@<TRIPOS>MOLECULE
ZINC49746575
   36    37     0     0     0
SMALL
USER_CHARGES

@<TRIPOS>ATOM
      1 C1         -0.0165    1.3646    0.0095 C.2       1 <0>         0.2487
      2 C2          1.1476    2.0491    0.0021 C.2       1 <0>        -0.3079
      3 C3          2.3685    1.3317   -0.0134 C.2       1 <0>         0.5698
      4 O1          3.4310    1.9268   -0.0200 O.2       1 <0>        -0.5074
      5 N1          2.3437   -0.0164   -0.0204 N.am      1 <0>        -0.6521
      6 H1          3.1758   -0.5148   -0.0310 H         1 <0>         0.4354
      7 C4          1.1690   -0.6735   -0.0123 C.2       1 <0>         0.6898
      8 O2          1.1624   -1.8894   -0.0183 O.2       1 <0>        -0.4871
      9 N2          0.0021   -0.0041    0.0020 N.am      1 <0>        -0.5174
     10 C5         -1.2606   -0.7469    0.0106 C.3       1 <0>         0.2990
     11 H2         -2.1016   -0.0630    0.1241 H         1 <0>         0.1295
     12 C6         -1.4087   -1.5706   -1.2879 C.3       1 <0>         0.0359
     13 H3         -0.4308   -1.7780   -1.7223 H         1 <0>         0.0888
     14 C7         -2.0850   -2.8809   -0.8263 C.3       1 <0>         0.0516
     15 H4         -1.4414   -3.7361   -1.0325 H         1 <0>         0.0943
     16 C8         -2.2655   -2.6939    0.6965 C.3       1 <0>         0.0896
     17 H5         -3.2616   -2.3099    0.9163 H         1 <0>         0.1020
     18 O3         -1.2611   -1.7253    1.0730 O.3       1 <0>        -0.3222
     19 C9         -2.0330   -4.0180    1.4270 C.3       1 <0>         0.1420
     20 O4         -2.3177   -3.8513    2.8174 O.3       1 <0>        -0.7608
     21 P1         -2.1797   -5.0442    3.8898 P.3       1 <0>         2.2798
     22 O5         -3.0269   -6.2514    3.4292 O.2       1 <0>        -1.1153
     23 O6         -0.6981   -5.4675    4.0015 O.3       1 <0>        -1.1262
     24 O7         -2.7030   -4.5380    5.3258 O.3       1 <0>        -1.0902
     25 P2         -3.1130   -5.2830    6.6929 P.3       1 <0>         2.2105
     26 O8         -3.9100   -6.5893    6.3571 O.2       1 <0>        -1.1919
     27 O9         -1.8187   -5.6525    7.4947 O.3       1 <0>        -1.2033
     28 O10        -4.0091   -4.3322    7.5574 O.3       1 <0>        -1.2032
     29 O11        -3.3519   -3.0432   -1.4672 O.3       1 <0>        -0.5324
     30 O12        -2.2361   -0.8807   -2.2268 O.3       1 <0>        -0.5446
     31 I1          1.1474    4.1441    0.0127 I         1 <0>         0.0267
     32 H6         -0.9574    1.8944    0.0259 H         1 <0>         0.1847
     33 H7         -2.6891   -4.7825    1.0109 H         1 <0>         0.0735
     34 H8         -0.9942   -4.3239    1.3029 H         1 <0>         0.0590
     35 H9         -3.3001   -3.1057   -2.4307 H         1 <0>         0.3704
     36 H10        -2.3630   -1.3532   -3.0609 H         1 <0>         0.3812
@<TRIPOS>BOND
     1    1    9 1
     2    1    2 2
     3    1   32 1
     4    2    3 1
     5    2   31 1
     6    3    4 2
     7    3    5 am
     8    5    6 1
     9    5    7 am
    10    7    8 2
    11    7    9 am
    12    9   10 1
    13   10   11 1
    14   10   18 1
    15   10   12 1
    16   12   13 1
    17   12   14 1
    18   12   30 1
    19   14   15 1
    20   14   16 1
    21   14   29 1
    22   16   17 1
    23   16   18 1
    24   16   19 1
    25   19   20 1
    26   19   33 1
    27   19   34 1
    28   20   21 1
    29   21   22 2
    30   21   23 1
    31   21   24 1
    32   24   25 1
    33   25   26 2
    34   25   27 1
    35   25   28 1
    36   29   35 1
    37   30   36 1
@<TRIPOS>MOLECULE
ZINC49746575
   37    38     0     0     0
SMALL
USER_CHARGES

@<TRIPOS>ATOM
      1 C1         -0.0165    1.3646    0.0095 C.2       1 <0>         0.2439
      2 C2          1.1476    2.0491    0.0021 C.2       1 <0>        -0.3034
      3 C3          2.3685    1.3317   -0.0134 C.2       1 <0>         0.5677
      4 O1          3.4310    1.9268   -0.0200 O.2       1 <0>        -0.5018
      5 N1          2.3437   -0.0164   -0.0204 N.am      1 <0>        -0.6523
      6 H1          3.1758   -0.5148   -0.0310 H         1 <0>         0.4361
      7 C4          1.1690   -0.6735   -0.0123 C.2       1 <0>         0.6916
      8 O2          1.1624   -1.8894   -0.0183 O.2       1 <0>        -0.4919
      9 N2          0.0021   -0.0041    0.0020 N.am      1 <0>        -0.5193
     10 C5         -1.2606   -0.7469    0.0106 C.3       1 <0>         0.3019
     11 H2         -2.1016   -0.0630    0.1241 H         1 <0>         0.1299
     12 C6         -1.4087   -1.5706   -1.2879 C.3       1 <0>         0.0354
     13 H3         -0.4308   -1.7780   -1.7223 H         1 <0>         0.0903
     14 C7         -2.0850   -2.8809   -0.8263 C.3       1 <0>         0.0513
     15 H4         -1.4414   -3.7361   -1.0325 H         1 <0>         0.0947
     16 C8         -2.2655   -2.6939    0.6965 C.3       1 <0>         0.0896
     17 H5         -3.2616   -2.3099    0.9163 H         1 <0>         0.1018
     18 O3         -1.2611   -1.7253    1.0730 O.3       1 <0>        -0.3266
     19 C9         -2.0330   -4.0180    1.4270 C.3       1 <0>         0.1429
     20 O4         -2.3177   -3.8513    2.8174 O.3       1 <0>        -0.7650
     21 P1         -2.1797   -5.0442    3.8898 P.3       1 <0>         2.2970
     22 O5         -3.0269   -6.2514    3.4292 O.2       1 <0>        -1.1070
     23 O6         -0.6981   -5.4675    4.0015 O.3       1 <0>        -1.1039
     24 O7         -2.7030   -4.5380    5.3258 O.3       1 <0>        -1.0893
     25 P2         -3.1130   -5.2830    6.6929 P.3       1 <0>         2.2769
     26 O8         -2.0588   -6.3617    7.0277 O.2       1 <0>        -1.1130
     27 O9         -3.1804   -4.2087    7.8902 O.3       1 <0>        -0.9093
     28 O10        -4.4959   -5.9502    6.5212 O.3       1 <0>        -1.1131
     29 O11        -3.3519   -3.0432   -1.4672 O.3       1 <0>        -0.5340
     30 O12        -2.2361   -0.8807   -2.2268 O.3       1 <0>        -0.5439
     31 I1          1.1474    4.1441    0.0127 I         1 <0>         0.0316
     32 H6         -0.9574    1.8944    0.0259 H         1 <0>         0.1849
     33 H7         -2.6891   -4.7825    1.0109 H         1 <0>         0.0782
     34 H8         -0.9942   -4.3239    1.3029 H         1 <0>         0.0648
     35 H9         -3.3001   -3.1057   -2.4307 H         1 <0>         0.3745
     36 H10        -2.3630   -1.3532   -3.0609 H         1 <0>         0.3836
     37 H11        -3.4224   -4.5882    8.7460 H         1 <0>         0.4051
@<TRIPOS>BOND
     1    1    9 1
     2    1    2 2
     3    1   32 1
     4    2    3 1
     5    2   31 1
     6    3    4 2
     7    3    5 am
     8    5    6 1
     9    5    7 am
    10    7    8 2
    11    7    9 am
    12    9   10 1
    13   10   11 1
    14   10   18 1
    15   10   12 1
    16   12   13 1
    17   12   14 1
    18   12   30 1
    19   14   15 1
    20   14   16 1
    21   14   29 1
    22   16   17 1
    23   16   18 1
    24   16   19 1
    25   19   20 1
    26   19   33 1
    27   19   34 1
    28   20   21 1
    29   21   22 2
    30   21   23 1
    31   21   24 1
    32   24   25 1
    33   25   26 2
    34   25   27 1
    35   25   28 1
    36   27   37 1
    37   29   35 1
    38   30   36 1
@<TRIPOS>MOLECULE
ZINC03985980
   40    42     0     0     0
SMALL
USER_CHARGES

@<TRIPOS>ATOM
      1 C1         -0.0178    1.4608    0.0101 C.3       1 <0>         0.1059
      2 N1          0.0021   -0.0041    0.0020 N.pl3     1 <0>        -0.7119
      3 C2         -1.1869   -0.7123    0.0096 C.ar      1 <0>         0.4922
      4 C3         -1.1867   -2.1177    0.0079 C.ar      1 <0>        -0.0981
      5 C4         -2.4251   -2.7811    0.0158 C.ar      1 <0>         0.2956
      6 N2         -3.5430   -2.0622    0.0249 N.ar      1 <0>        -0.5367
      7 C5         -3.4948   -0.7469    0.0265 C.ar      1 <0>         0.3352
      8 N3         -2.3552   -0.0793    0.0241 N.ar      1 <0>        -0.5980
      9 N4         -2.1358   -4.1222    0.0117 N.pl3     1 <0>        -0.4482
     10 C6         -0.7785   -4.2474    0.0017 C.2       1 <0>         0.2947
     11 N5         -0.2235   -3.0703   -0.0005 N.2       1 <0>        -0.4895
     12 C7         -3.1074   -5.2186    0.0174 C.3       1 <0>         0.2890
     13 H1         -3.9753   -4.9524    0.6208 H         1 <0>         0.1074
     14 C8         -3.5403   -5.5612   -1.4254 C.3       1 <0>        -0.1637
     15 C9         -3.6896   -7.0991   -1.4174 C.3       1 <0>         0.1424
     16 H2         -2.9964   -7.5538   -2.1250 H         1 <0>         0.0706
     17 C10        -3.3294   -7.5037    0.0293 C.3       1 <0>         0.0725
     18 H3         -4.2315   -7.5898    0.6351 H         1 <0>         0.0889
     19 O1         -2.4980   -6.4279    0.5194 O.3       1 <0>        -0.3579
     20 C11        -2.5563   -8.8240    0.0363 C.3       1 <0>         0.1383
     21 O2         -2.3347   -9.2390    1.3856 O.3       1 <0>        -0.7616
     22 P1         -1.5491  -10.5910    1.7694 P.3       1 <0>         2.1422
     23 O3         -2.2264  -11.8094    1.0545 O.2       1 <0>        -1.1885
     24 O4         -0.0568  -10.4772    1.3060 O.3       1 <0>        -1.1976
     25 O5         -1.5995  -10.8018    3.3210 O.3       1 <0>        -1.1824
     26 O6         -5.0341   -7.4732   -1.7248 O.3       1 <0>        -0.7405
     27 P2         -5.4188   -8.4140   -2.9733 P.3       1 <0>         2.1191
     28 O7         -4.8362   -7.7978   -4.2906 O.2       1 <0>        -1.1913
     29 O8         -4.8168   -9.8438   -2.7548 O.3       1 <0>        -1.1692
     30 O9         -6.9778   -8.5160   -3.0895 O.3       1 <0>        -1.1722
     31 H4          1.0048    1.8381    0.0023 H         1 <0>         0.0650
     32 H5         -0.5450    1.8219   -0.8730 H         1 <0>         0.0545
     33 H6         -0.5280    1.8123    0.9069 H         1 <0>         0.0539
     34 H7          0.8486   -0.4776   -0.0086 H         1 <0>         0.4169
     35 H8         -4.4217   -0.1927    0.0336 H         1 <0>         0.1965
     36 H9         -0.2427   -5.1851   -0.0035 H         1 <0>         0.2309
     37 H10        -4.4925   -5.0862   -1.6614 H         1 <0>         0.0958
     38 H11        -2.7732   -5.2557   -2.1369 H         1 <0>         0.0756
     39 H12        -3.1334   -9.5857   -0.4880 H         1 <0>         0.0872
     40 H13        -1.5975   -8.6863   -0.4636 H         1 <0>         0.0368
@<TRIPOS>BOND
     1    1    2 1
     2    1   31 1
     3    1   32 1
     4    1   33 1
     5    2    3 1
     6    2   34 1
     7    3    8 ar
     8    3    4 ar
     9    4   11 1
    10    4    5 ar
    11    5    6 ar
    12    5    9 1
    13    6    7 ar
    14    7    8 ar
    15    7   35 1
    16    9   10 1
    17    9   12 1
    18   10   11 2
    19   10   36 1
    20   12   13 1
    21   12   19 1
    22   12   14 1
    23   14   15 1
    24   14   37 1
    25   14   38 1
    26   15   16 1
    27   15   17 1
    28   15   26 1
    29   17   18 1
    30   17   19 1
    31   17   20 1
    32   20   21 1
    33   20   39 1
    34   20   40 1
    35   21   22 1
    36   22   23 2
    37   22   24 1
    38   22   25 1
    39   26   27 1
    40   27   28 2
    41   27   29 1
    42   27   30 1
@<TRIPOS>MOLECULE
ZINC03985980
   41    43     0     0     0
SMALL
USER_CHARGES

@<TRIPOS>ATOM
      1 C1         -0.0178    1.4608    0.0101 C.3       1 <0>         0.1032
      2 N1          0.0021   -0.0041    0.0020 N.pl3     1 <0>        -0.7091
      3 C2          0.6007   -0.6822   -1.0453 C.ar      1 <0>         0.4954
      4 C3          0.6240   -2.0872   -1.0724 C.ar      1 <0>        -0.1004
      5 C4          1.2463   -2.7194   -2.1619 C.ar      1 <0>         0.2996
      6 N2          1.7859   -1.9726   -3.1200 N.ar      1 <0>        -0.5415
      7 C5          1.7399   -0.6589   -3.0527 C.ar      1 <0>         0.3437
      8 N3          1.1621   -0.0202   -2.0515 N.ar      1 <0>        -0.5956
      9 N4          1.1262   -4.0673   -1.9362 N.pl3     1 <0>        -0.4536
     10 C6          0.4585   -4.2265   -0.7585 C.2       1 <0>         0.2858
     11 N5          0.1647   -3.0636   -0.2533 N.2       1 <0>        -0.4841
     12 C7          1.6238   -5.1390   -2.8022 C.3       1 <0>         0.2957
     13 H1          1.5308   -4.8531   -3.8500 H         1 <0>         0.1100
     14 C8          3.0950   -5.4655   -2.4625 C.3       1 <0>        -0.1658
     15 C9          3.1867   -6.9992   -2.6265 C.3       1 <0>         0.1424
     16 H2          3.4601   -7.4687   -1.6816 H         1 <0>         0.0727
     17 C10         1.7600   -7.4177   -3.0460 C.3       1 <0>         0.0698
     18 H3          1.6876   -7.4833   -4.1316 H         1 <0>         0.0944
     19 O1          0.9034   -6.3649   -2.5497 O.3       1 <0>        -0.3651
     20 C11         1.3882   -8.7570   -2.4065 C.3       1 <0>         0.1422
     21 O2          0.1154   -9.1823   -2.8975 O.3       1 <0>        -0.7604
     22 P1         -0.5885  -10.5548   -2.4362 P.3       1 <0>         2.2071
     23 O3         -0.7015  -10.5831   -0.8956 O.2       1 <0>        -1.1123
     24 O4         -2.0594  -10.6477   -3.0841 O.3       1 <0>        -0.8975
     25 O5          0.2607  -11.7544   -2.9124 O.3       1 <0>        -1.1017
     26 O6          4.1306   -7.3383   -3.6444 O.3       1 <0>        -0.7380
     27 P2          5.4188   -8.2648   -3.3721 P.3       1 <0>         2.1140
     28 O7          6.2589   -7.6588   -2.1967 O.2       1 <0>        -1.1857
     29 O8          4.9510   -9.7100   -2.9887 O.3       1 <0>        -1.1710
     30 O9          6.3001   -8.3272   -4.6659 O.3       1 <0>        -1.1662
     31 H4          1.0048    1.8381    0.0023 H         1 <0>         0.0569
     32 H5         -0.5450    1.8219   -0.8730 H         1 <0>         0.0559
     33 H6         -0.5280    1.8123    0.9069 H         1 <0>         0.0674
     34 H7         -0.4044   -0.4986    0.7308 H         1 <0>         0.4172
     35 H8          2.1883   -0.0817   -3.8478 H         1 <0>         0.1991
     36 H9          0.2099   -5.1773   -0.3107 H         1 <0>         0.2277
     37 H10         3.7679   -4.9660   -3.1594 H         1 <0>         0.1005
     38 H11         3.3232   -5.1769   -1.4365 H         1 <0>         0.0798
     39 H12         2.1426   -9.5022   -2.6593 H         1 <0>         0.1017
     40 H13         1.3399   -8.6417   -1.3237 H         1 <0>         0.0595
     41 H14        -2.5431  -11.4512   -2.8482 H         1 <0>         0.4063
@<TRIPOS>BOND
     1    1    2 1
     2    1   31 1
     3    1   32 1
     4    1   33 1
     5    2    3 1
     6    2   34 1
     7    3    8 ar
     8    3    4 ar
     9    4   11 1
    10    4    5 ar
    11    5    6 ar
    12    5    9 1
    13    6    7 ar
    14    7    8 ar
    15    7   35 1
    16    9   10 1
    17    9   12 1
    18   10   11 2
    19   10   36 1
    20   12   13 1
    21   12   19 1
    22   12   14 1
    23   14   15 1
    24   14   37 1
    25   14   38 1
    26   15   16 1
    27   15   17 1
    28   15   26 1
    29   17   18 1
    30   17   19 1
    31   17   20 1
    32   20   21 1
    33   20   39 1
    34   20   40 1
    35   21   22 1
    36   22   23 2
    37   22   24 1
    38   22   25 1
    39   24   41 1
    40   26   27 1
    41   27   28 2
    42   27   29 1
    43   27   30 1
@<TRIPOS>MOLECULE
ZINC03985980
   41    43     0     0     0
SMALL
USER_CHARGES

@<TRIPOS>ATOM
      1 C1         -0.0178    1.4608    0.0101 C.3       1 <0>         0.1029
      2 N1          0.0021   -0.0041    0.0020 N.pl3     1 <0>        -0.7082
      3 C2          0.6205   -0.6934    1.0304 C.ar      1 <0>         0.4963
      4 C3          0.6543   -2.0984    1.0360 C.ar      1 <0>        -0.0987
      5 C4          1.2966   -2.7422    2.1069 C.ar      1 <0>         0.2972
      6 N2          1.8451   -2.0058    3.0680 N.ar      1 <0>        -0.5447
      7 C5          1.7894   -0.6917    3.0208 C.ar      1 <0>         0.3423
      8 N3          1.2011   -0.0421    2.0327 N.ar      1 <0>        -0.5959
      9 N4          1.1822   -4.0874    1.8631 N.pl3     1 <0>        -0.4558
     10 C6          0.4984   -4.2339    0.6930 C.2       1 <0>         0.2913
     11 N5          0.1896   -3.0658    0.2094 N.2       1 <0>        -0.4822
     12 C7          1.7002   -5.1682    2.7055 C.3       1 <0>         0.2922
     13 H1          2.6497   -4.8765    3.1545 H         1 <0>         0.1098
     14 C8          0.6759   -5.5328    3.8029 C.3       1 <0>        -0.1668
     15 C9          0.7961   -7.0677    3.9336 C.3       1 <0>         0.1458
     16 H2         -0.1516   -7.5472    3.6886 H         1 <0>         0.0872
     17 C10         1.8788   -7.4488    2.8998 C.3       1 <0>         0.0722
     18 H3          2.8562   -7.5087    3.3785 H         1 <0>         0.0928
     19 O1          1.8606   -6.3766    1.9309 O.3       1 <0>        -0.3476
     20 C11         1.5316   -8.7806    2.2314 C.3       1 <0>         0.1354
     21 O2          2.5996   -9.1720    1.3663 O.3       1 <0>        -0.7570
     22 P1          2.5732  -10.5281    0.4988 P.3       1 <0>         2.1345
     23 O3          2.3234  -11.7499    1.4471 O.2       1 <0>        -1.1870
     24 O4          1.4234  -10.4469   -0.5623 O.3       1 <0>        -1.1912
     25 O5          3.9471  -10.7070   -0.2326 O.3       1 <0>        -1.1752
     26 O6          1.2112   -7.4268    5.2530 O.3       1 <0>        -0.7435
     27 P2          0.3460   -8.3864    6.2137 P.3       1 <0>         2.1928
     28 O7          0.0578   -9.7187    5.4865 O.2       1 <0>        -1.0871
     29 O8          1.1722   -8.6797    7.5640 O.3       1 <0>        -0.8948
     30 O9         -0.9889   -7.6932    6.5669 O.3       1 <0>        -1.1061
     31 H4          1.0048    1.8381    0.0023 H         1 <0>         0.0563
     32 H5         -0.5450    1.8219   -0.8730 H         1 <0>         0.0682
     33 H6         -0.5280    1.8123    0.9069 H         1 <0>         0.0565
     34 H7         -0.4183   -0.4908   -0.7241 H         1 <0>         0.4182
     35 H8          2.2449   -0.1231    3.8181 H         1 <0>         0.1981
     36 H9          0.2496   -5.1798    0.2348 H         1 <0>         0.2315
     37 H10         0.9355   -5.0479    4.7439 H         1 <0>         0.1005
     38 H11        -0.3312   -5.2535    3.4932 H         1 <0>         0.0868
     39 H12         1.3852   -9.5436    2.9959 H         1 <0>         0.0804
     40 H13         0.6162   -8.6679    1.6505 H         1 <0>         0.0430
     41 H14         0.7102   -9.2529    8.1911 H         1 <0>         0.4099
@<TRIPOS>BOND
     1    1    2 1
     2    1   31 1
     3    1   32 1
     4    1   33 1
     5    2    3 1
     6    2   34 1
     7    3    8 ar
     8    3    4 ar
     9    4   11 1
    10    4    5 ar
    11    5    6 ar
    12    5    9 1
    13    6    7 ar
    14    7    8 ar
    15    7   35 1
    16    9   10 1
    17    9   12 1
    18   10   11 2
    19   10   36 1
    20   12   13 1
    21   12   19 1
    22   12   14 1
    23   14   15 1
    24   14   37 1
    25   14   38 1
    26   15   16 1
    27   15   17 1
    28   15   26 1
    29   17   18 1
    30   17   19 1
    31   17   20 1
    32   20   21 1
    33   20   39 1
    34   20   40 1
    35   21   22 1
    36   22   23 2
    37   22   24 1
    38   22   25 1
    39   26   27 1
    40   27   28 2
    41   27   29 1
    42   27   30 1
    43   29   41 1
@<TRIPOS>MOLECULE
ZINC12493522
   36    37     0     0     0
SMALL
USER_CHARGES

@<TRIPOS>ATOM
      1 C1         -0.0171    1.4115    0.0098 C.2       1 <0>        -0.3108
      2 C2          1.1534    2.0845    0.0022 C.2       1 <0>         0.1964
      3 N1          2.3333    1.3916   -0.0127 N.am      1 <0>        -0.5242
      4 C3          2.3379    0.0462   -0.0205 C.2       1 <0>         0.6893
      5 O1          3.3978   -0.5494   -0.0342 O.2       1 <0>        -0.4992
      6 N2          1.1858   -0.6496   -0.0128 N.am      1 <0>        -0.6589
      7 H1          1.2071   -1.6194   -0.0179 H         1 <0>         0.4299
      8 C4          0.0021   -0.0041    0.0020 C.2       1 <0>         0.5552
      9 O2         -1.0408   -0.6329    0.0090 O.2       1 <0>        -0.5328
     10 C5          3.6034    2.1217   -0.0210 C.3       1 <0>         0.3015
     11 H2          3.4240    3.1927   -0.1150 H         1 <0>         0.1264
     12 C6          4.4045    1.8215    1.2653 C.3       1 <0>         0.0359
     13 H3          4.1051    0.8618    1.6866 H         1 <0>         0.0879
     14 C7          5.8735    1.7689    0.7891 C.3       1 <0>         0.0509
     15 H4          6.3002    0.7833    0.9749 H         1 <0>         0.0929
     16 C8          5.7861    2.0436   -0.7286 C.3       1 <0>         0.0900
     17 H5          5.9431    3.1028   -0.9322 H         1 <0>         0.1003
     18 O3          4.4440    1.6560   -1.0992 O.3       1 <0>        -0.3238
     19 C9          6.8150    1.1990   -1.4828 C.3       1 <0>         0.1421
     20 O4          6.7980    1.5519   -2.8675 O.3       1 <0>        -0.7609
     21 P1          7.7564    0.8600   -3.9605 P.3       1 <0>         2.2802
     22 O5          9.2288    0.9915   -3.5113 O.2       1 <0>        -1.1157
     23 O6          7.3902   -0.6351   -4.0938 O.3       1 <0>        -1.1265
     24 O7          7.5621    1.5890   -5.3828 O.3       1 <0>        -1.0903
     25 P2          8.3996    1.5996   -6.7578 P.3       1 <0>         2.2107
     26 O8          9.9322    1.6406   -6.4355 O.2       1 <0>        -1.1920
     27 O9          8.0730    0.3055   -7.5782 O.3       1 <0>        -1.2034
     28 O10         8.0086    2.8630   -7.5977 O.3       1 <0>        -1.2035
     29 O11         6.6472    2.7789    1.4397 O.3       1 <0>        -0.5334
     30 O12         4.2230    2.8660    2.2235 O.3       1 <0>        -0.5454
     31 H6         -0.9555    1.9460    0.0261 H         1 <0>         0.1707
     32 H7          1.1584    3.1644    0.0076 H         1 <0>         0.1799
     33 H8          7.8078    1.3841   -1.0728 H         1 <0>         0.0725
     34 H9          6.5681    0.1429   -1.3740 H         1 <0>         0.0587
     35 H10         6.6849    2.6869    2.4016 H         1 <0>         0.3698
     36 H11         4.7042    2.7287    3.0509 H         1 <0>         0.3797
@<TRIPOS>BOND
     1    1    8 1
     2    1    2 2
     3    1   31 1
     4    2    3 1
     5    2   32 1
     6    3    4 am
     7    3   10 1
     8    4    5 2
     9    4    6 am
    10    6    7 1
    11    6    8 am
    12    8    9 2
    13   10   11 1
    14   10   18 1
    15   10   12 1
    16   12   13 1
    17   12   14 1
    18   12   30 1
    19   14   15 1
    20   14   16 1
    21   14   29 1
    22   16   17 1
    23   16   18 1
    24   16   19 1
    25   19   20 1
    26   19   33 1
    27   19   34 1
    28   20   21 1
    29   21   22 2
    30   21   23 1
    31   21   24 1
    32   24   25 1
    33   25   26 2
    34   25   27 1
    35   25   28 1
    36   29   35 1
    37   30   36 1
@<TRIPOS>MOLECULE
ZINC49771868
   55    58     0     0     0
SMALL
USER_CHARGES

@<TRIPOS>ATOM
      1 C1         -0.0167    1.3796    0.0096 C.ar      1 <0>        -0.1139
      2 C2          1.1681    2.0947    0.0022 C.ar      1 <0>        -0.1211
      3 C3          2.3774    1.4319   -0.0134 C.ar      1 <0>        -0.0911
      4 C4          2.4044    0.0345   -0.0212 C.ar      1 <0>         0.0228
      5 C5          1.2037   -0.6807   -0.0131 C.ar      1 <0>        -0.0911
      6 C6          0.0021   -0.0041    0.0020 C.ar      1 <0>        -0.1207
      7 C7          3.6561   -0.6609   -0.0379 C.1       1 <0>        -0.0832
      8 C8          4.6822   -1.2310   -0.0515 C.1       1 <0>        -0.0601
      9 C9          5.9339   -1.9265   -0.0682 C.ar      1 <0>         0.4678
     10 N1          7.0632   -1.2200   -0.0705 N.ar      1 <0>        -0.5745
     11 C10         8.2460   -1.8196   -0.0853 C.ar      1 <0>         0.5075
     12 C11         8.2883   -3.2265   -0.0985 C.ar      1 <0>        -0.0896
     13 C12         7.0712   -3.9314   -0.0955 C.ar      1 <0>         0.3051
     14 N2          5.9306   -3.2539   -0.0753 N.ar      1 <0>        -0.5105
     15 N3          7.4054   -5.2628   -0.1103 N.pl3     1 <0>        -0.4590
     16 C13         8.7664   -5.3417   -0.1217 C.2       1 <0>         0.2931
     17 N4          9.2816   -4.1463   -0.1147 N.2       1 <0>        -0.4706
     18 C14         6.4713   -6.3914   -0.1126 C.3       1 <0>         0.3019
     19 C15         6.0805   -6.7630   -1.5602 C.3       1 <0>         0.0376
     20 H1          6.8516   -6.4389   -2.2591 H         1 <0>         0.0811
     21 C16         5.9829   -8.3049   -1.5386 C.3       1 <0>         0.0482
     22 H2          6.7057   -8.7430   -2.2269 H         1 <0>         0.0937
     23 C17         6.3262   -8.6824   -0.0805 C.3       1 <0>         0.0856
     24 H3          5.4151   -8.7929    0.5075 H         1 <0>         0.1063
     25 O1          7.1114   -7.5749    0.4123 O.3       1 <0>        -0.3315
     26 C18         7.1430   -9.9756   -0.0434 C.3       1 <0>         0.1427
     27 O2          7.3503  -10.3692    1.3146 O.3       1 <0>        -0.7598
     28 P1          8.1727  -11.6898    1.7291 P.3       1 <0>         2.2898
     29 O3          7.5604  -12.9204    1.0236 O.2       1 <0>        -1.1038
     30 O4          9.6490  -11.5325    1.3012 O.3       1 <0>        -1.1154
     31 O5          8.0950  -11.8919    3.3244 O.3       1 <0>        -1.0973
     32 P2          8.4181  -13.1207    4.3132 P.3       1 <0>         2.3454
     33 O6          7.9284  -14.4390    3.6734 O.2       1 <0>        -1.1158
     34 O7          9.9420  -13.2004    4.5548 O.3       1 <0>        -1.1397
     35 O8          7.6634  -12.8928    5.7170 O.3       1 <0>        -1.1050
     36 P3          7.3234  -13.8432    6.9712 P.3       1 <0>         2.2212
     37 O9          6.8948  -15.2582    6.4531 O.2       1 <0>        -1.1972
     38 O10         8.5919  -13.9820    7.8802 O.3       1 <0>        -1.2115
     39 O11         6.1527  -13.2142    7.8009 O.3       1 <0>        -1.2131
     40 O12         4.6585   -8.7274   -1.8695 O.3       1 <0>        -0.5288
     41 O13         4.8201   -6.1835   -1.9030 O.3       1 <0>        -0.5308
     42 N5          9.4142   -1.0776   -0.0881 N.pl3     1 <0>        -0.8201
     43 H4         -0.9607    1.9041    0.0260 H         1 <0>         0.1227
     44 H5          1.1457    3.1744    0.0082 H         1 <0>         0.1265
     45 H6          3.3013    1.9912   -0.0200 H         1 <0>         0.1296
     46 H7          1.2168   -1.7606   -0.0194 H         1 <0>         0.1299
     47 H8         -0.9266   -0.5554    0.0079 H         1 <0>         0.1268
     48 H9          9.3336   -6.2607   -0.1342 H         1 <0>         0.2364
     49 H10         5.5835   -6.1494    0.4717 H         1 <0>         0.1233
     50 H11         6.6030  -10.7617   -0.5711 H         1 <0>         0.0784
     51 H12         8.1068   -9.8106   -0.5249 H         1 <0>         0.0586
     52 H13         4.3709   -8.4635   -2.7542 H         1 <0>         0.3706
     53 H14         4.5261   -6.3850   -2.8019 H         1 <0>         0.3758
     54 H15         9.3733   -0.1085   -0.0792 H         1 <0>         0.4063
     55 H16        10.2740   -1.5267   -0.0989 H         1 <0>         0.4207
@<TRIPOS>BOND
     1    1    6 ar
     2    1    2 ar
     3    1   43 1
     4    2    3 ar
     5    2   44 1
     6    3    4 ar
     7    3   45 1
     8    4    5 ar
     9    4    7 1
    10    5    6 ar
    11    5   46 1
    12    6   47 1
    13    7    8 3
    14    8    9 1
    15    9   14 ar
    16    9   10 ar
    17   10   11 ar
    18   11   12 ar
    19   11   42 1
    20   12   17 1
    21   12   13 ar
    22   13   14 ar
    23   13   15 1
    24   15   16 1
    25   15   18 1
    26   16   17 2
    27   16   48 1
    28   18   25 1
    29   18   19 1
    30   18   49 1
    31   19   20 1
    32   19   21 1
    33   19   41 1
    34   21   22 1
    35   21   23 1
    36   21   40 1
    37   23   24 1
    38   23   25 1
    39   23   26 1
    40   26   27 1
    41   26   50 1
    42   26   51 1
    43   27   28 1
    44   28   29 2
    45   28   30 1
    46   28   31 1
    47   31   32 1
    48   32   33 2
    49   32   34 1
    50   32   35 1
    51   35   36 1
    52   36   37 2
    53   36   38 1
    54   36   39 1
    55   40   52 1
    56   41   53 1
    57   42   54 1
    58   42   55 1
@<TRIPOS>MOLECULE
ZINC49771868
   56    59     0     0     0
SMALL
USER_CHARGES

@<TRIPOS>ATOM
      1 C1         -0.0167    1.3796    0.0096 C.ar      1 <0>        -0.1122
      2 C2          1.1681    2.0947    0.0022 C.ar      1 <0>        -0.1206
      3 C3          2.3774    1.4319   -0.0134 C.ar      1 <0>        -0.0904
      4 C4          2.4044    0.0345   -0.0212 C.ar      1 <0>         0.0194
      5 C5          1.2037   -0.6807   -0.0131 C.ar      1 <0>        -0.0909
      6 C6          0.0021   -0.0041    0.0020 C.ar      1 <0>        -0.1206
      7 C7          3.6561   -0.6609   -0.0379 C.1       1 <0>        -0.0768
      8 C8          4.6822   -1.2310   -0.0515 C.1       1 <0>        -0.0663
      9 C9          5.9339   -1.9265   -0.0682 C.ar      1 <0>         0.4729
     10 N1          7.0632   -1.2200   -0.0705 N.ar      1 <0>        -0.5738
     11 C10         8.2460   -1.8196   -0.0853 C.ar      1 <0>         0.5088
     12 C11         8.2883   -3.2265   -0.0985 C.ar      1 <0>        -0.0915
     13 C12         7.0712   -3.9314   -0.0955 C.ar      1 <0>         0.3065
     14 N2          5.9306   -3.2539   -0.0753 N.ar      1 <0>        -0.5137
     15 N3          7.4054   -5.2628   -0.1103 N.pl3     1 <0>        -0.4609
     16 C13         8.7664   -5.3417   -0.1217 C.2       1 <0>         0.2893
     17 N4          9.2816   -4.1463   -0.1147 N.2       1 <0>        -0.4685
     18 C14         6.4713   -6.3914   -0.1126 C.3       1 <0>         0.3040
     19 C15         6.0805   -6.7630   -1.5602 C.3       1 <0>         0.0370
     20 H1          6.8516   -6.4389   -2.2591 H         1 <0>         0.0822
     21 C16         5.9829   -8.3049   -1.5386 C.3       1 <0>         0.0477
     22 H2          6.7057   -8.7430   -2.2269 H         1 <0>         0.0940
     23 C17         6.3262   -8.6824   -0.0805 C.3       1 <0>         0.0864
     24 H3          5.4151   -8.7929    0.5075 H         1 <0>         0.1047
     25 O1          7.1114   -7.5749    0.4123 O.3       1 <0>        -0.3340
     26 C18         7.1430   -9.9756   -0.0434 C.3       1 <0>         0.1427
     27 O2          7.3503  -10.3692    1.3146 O.3       1 <0>        -0.7624
     28 P1          8.1727  -11.6898    1.7291 P.3       1 <0>         2.2881
     29 O3          7.5604  -12.9204    1.0236 O.2       1 <0>        -1.0988
     30 O4          9.6490  -11.5325    1.3012 O.3       1 <0>        -1.1086
     31 O5          8.0950  -11.8919    3.3244 O.3       1 <0>        -1.0976
     32 P2          8.4181  -13.1207    4.3132 P.3       1 <0>         2.3536
     33 O6          7.9284  -14.4390    3.6734 O.2       1 <0>        -1.1050
     34 O7          9.9420  -13.2004    4.5548 O.3       1 <0>        -1.1150
     35 O8          7.6634  -12.8928    5.7170 O.3       1 <0>        -1.0986
     36 P3          7.3234  -13.8432    6.9712 P.3       1 <0>         2.2761
     37 O9          8.5708  -14.6779    7.3379 O.2       1 <0>        -1.1170
     38 O10         6.8949  -12.9367    8.2309 O.3       1 <0>        -0.9090
     39 O11         6.1610  -14.7905    6.5993 O.3       1 <0>        -1.1165
     40 O12         4.6585   -8.7274   -1.8695 O.3       1 <0>        -0.5304
     41 O13         4.8201   -6.1835   -1.9030 O.3       1 <0>        -0.5306
     42 N5          9.4142   -1.0776   -0.0881 N.pl3     1 <0>        -0.8189
     43 H4         -0.9607    1.9041    0.0260 H         1 <0>         0.1236
     44 H5          1.1457    3.1744    0.0082 H         1 <0>         0.1273
     45 H6          3.3013    1.9912   -0.0200 H         1 <0>         0.1296
     46 H7          1.2168   -1.7606   -0.0194 H         1 <0>         0.1296
     47 H8         -0.9266   -0.5554    0.0079 H         1 <0>         0.1273
     48 H9          9.3336   -6.2607   -0.1342 H         1 <0>         0.2352
     49 H10         5.5835   -6.1494    0.4717 H         1 <0>         0.1227
     50 H11         6.6030  -10.7617   -0.5711 H         1 <0>         0.0800
     51 H12         8.1068   -9.8106   -0.5249 H         1 <0>         0.0613
     52 H13         4.3709   -8.4635   -2.7542 H         1 <0>         0.3732
     53 H14         4.5261   -6.3850   -2.8019 H         1 <0>         0.3775
     54 H15         9.3733   -0.1085   -0.0792 H         1 <0>         0.4075
     55 H16        10.2740   -1.5267   -0.0989 H         1 <0>         0.4209
     56 H17         6.6755  -13.4442    9.0242 H         1 <0>         0.3998
@<TRIPOS>BOND
     1    1    6 ar
     2    1    2 ar
     3    1   43 1
     4    2    3 ar
     5    2   44 1
     6    3    4 ar
     7    3   45 1
     8    4    5 ar
     9    4    7 1
    10    5    6 ar
    11    5   46 1
    12    6   47 1
    13    7    8 3
    14    8    9 1
    15    9   14 ar
    16    9   10 ar
    17   10   11 ar
    18   11   12 ar
    19   11   42 1
    20   12   17 1
    21   12   13 ar
    22   13   14 ar
    23   13   15 1
    24   15   16 1
    25   15   18 1
    26   16   17 2
    27   16   48 1
    28   18   25 1
    29   18   19 1
    30   18   49 1
    31   19   20 1
    32   19   21 1
    33   19   41 1
    34   21   22 1
    35   21   23 1
    36   21   40 1
    37   23   24 1
    38   23   25 1
    39   23   26 1
    40   26   27 1
    41   26   50 1
    42   26   51 1
    43   27   28 1
    44   28   29 2
    45   28   30 1
    46   28   31 1
    47   31   32 1
    48   32   33 2
    49   32   34 1
    50   32   35 1
    51   35   36 1
    52   36   37 2
    53   36   38 1
    54   36   39 1
    55   38   56 1
    56   40   52 1
    57   41   53 1
    58   42   54 1
    59   42   55 1
