@<TRIPOS>MOLECULE
ZINC00492540
   43    45     0     0     0
SMALL
USER_CHARGES
N-(1-benzoyl-2-methyl-3,4-dihydro-2H-quinolin-4-yl)acetamide
@<TRIPOS>ATOM
      1 C1          1.7131   -3.8782   -0.8548 C.3       1 <0>        -0.1536
      2 C2          2.6920   -2.8029   -0.3791 C.3       1 <0>         0.1441
      3 H1          3.5949   -2.8285   -0.9893 H         1 <0>         0.0871
      4 C3          2.0349   -1.4201   -0.4813 C.3       1 <0>        -0.1380
      5 C4          3.0533   -0.3576   -0.0686 C.3       1 <0>         0.1890
      6 H2          3.8390   -0.3006   -0.8219 H         1 <0>         0.1021
      7 C5          3.6664   -0.7038    1.2627 C.ar      1 <0>        -0.1323
      8 C6          4.2670    0.2997    2.0049 C.ar      1 <0>        -0.0776
      9 C7          4.8410    0.0133    3.2281 C.ar      1 <0>        -0.1419
     10 C8          4.8200   -1.2791    3.7200 C.ar      1 <0>        -0.0867
     11 C9          4.2223   -2.2847    2.9874 C.ar      1 <0>        -0.1760
     12 C10         3.6422   -1.9984    1.7565 C.ar      1 <0>         0.1648
     13 N1          3.0373   -3.0326    1.0304 N.am      1 <0>        -0.5562
     14 C11         2.7760   -4.2185    1.6152 C.2       1 <0>         0.5698
     15 O1          2.5344   -5.1936    0.9308 O.2       1 <0>        -0.4995
     16 C12         2.7832   -4.3333    3.0889 C.ar      1 <0>        -0.1574
     17 C13         2.3922   -3.2504    3.8783 C.ar      1 <0>        -0.0537
     18 C14         2.3953   -3.3663    5.2530 C.ar      1 <0>        -0.1391
     19 C15         2.7962   -4.5485    5.8497 C.ar      1 <0>        -0.0840
     20 C16         3.1909   -5.6235    5.0732 C.ar      1 <0>        -0.1342
     21 C17         3.1865   -5.5231    3.6974 C.ar      1 <0>        -0.0598
     22 N2          2.3835    0.9414    0.0307 N.am      1 <0>        -0.7239
     23 H3          1.4303    0.9835    0.2055 H         1 <0>         0.4034
     24 C18         3.0916    2.0781   -0.1209 C.2       1 <0>         0.5106
     25 O2          4.2834    2.0255   -0.3396 O.2       1 <0>        -0.5379
     26 C19         2.4014    3.4143   -0.0250 C.3       1 <0>        -0.1749
     27 H4          1.2989   -3.5906   -1.8211 H         1 <0>         0.0645
     28 H5          2.2372   -4.8289   -0.9526 H         1 <0>         0.0917
     29 H6          0.9060   -3.9812   -0.1296 H         1 <0>         0.0593
     30 H7          1.1717   -1.3761    0.1828 H         1 <0>         0.0801
     31 H8          1.7172   -1.2418   -1.5086 H         1 <0>         0.0954
     32 H9          4.2865    1.3106    1.6254 H         1 <0>         0.1315
     33 H10         5.3071    0.8007    3.8019 H         1 <0>         0.1234
     34 H11         5.2710   -1.5013    4.6759 H         1 <0>         0.1266
     35 H12         4.2048   -3.2943    3.3706 H         1 <0>         0.1554
     36 H13         2.0836   -2.3255    3.4138 H         1 <0>         0.1302
     37 H14         2.0881   -2.5311    5.8648 H         1 <0>         0.1301
     38 H15         2.8007   -4.6326    6.9264 H         1 <0>         0.1291
     39 H16         3.5027   -6.5435    5.5453 H         1 <0>         0.1319
     40 H17         3.4948   -6.3629    3.0924 H         1 <0>         0.1341
     41 H18         2.4170    3.7579    1.0093 H         1 <0>         0.0954
     42 H19         2.9192    4.1369   -0.6558 H         1 <0>         0.0958
     43 H20         1.3686    3.3146   -0.3591 H         1 <0>         0.0812
@<TRIPOS>BOND
     1    1    2 1
     2    1   27 1
     3    1   28 1
     4    1   29 1
     5    2    3 1
     6    2   13 1
     7    2    4 1
     8    4    5 1
     9    4   30 1
    10    4   31 1
    11    5    6 1
    12    5    7 1
    13    5   22 1
    14    7   12 ar
    15    7    8 ar
    16    8    9 ar
    17    8   32 1
    18    9   10 ar
    19    9   33 1
    20   10   11 ar
    21   10   34 1
    22   11   12 ar
    23   11   35 1
    24   12   13 1
    25   13   14 am
    26   14   15 2
    27   14   16 1
    28   16   21 ar
    29   16   17 ar
    30   17   18 ar
    31   17   36 1
    32   18   19 ar
    33   18   37 1
    34   19   20 ar
    35   19   38 1
    36   20   21 ar
    37   20   39 1
    38   21   40 1
    39   22   23 1
    40   22   24 am
    41   24   25 2
    42   24   26 1
    43   26   41 1
    44   26   42 1
    45   26   43 1
@<TRIPOS>MOLECULE
ZINC04728842
   43    45     0     0     0
SMALL
USER_CHARGES
N-(1-benzoyl-2-methyl-3,4-dihydro-2H-quinolin-4-yl)acetamide
@<TRIPOS>ATOM
      1 C1         -1.5010    6.7567    0.3059 C.3       1 <0>        -0.1516
      2 C2         -1.0283    6.0110   -0.9436 C.3       1 <0>         0.1433
      3 H1         -0.9140    6.7119   -1.7706 H         1 <0>         0.0871
      4 C3         -2.0461    4.9260   -1.3189 C.3       1 <0>        -0.1380
      5 C4         -1.5881    4.2438   -2.6078 C.3       1 <0>         0.1893
      6 H2         -1.6757    4.9456   -3.4371 H         1 <0>         0.1019
      7 C5         -0.1557    3.7951   -2.4866 C.ar      1 <0>        -0.1320
      8 C6          0.3123    2.8095   -3.3398 C.ar      1 <0>        -0.0778
      9 C7          1.6209    2.3762   -3.2530 C.ar      1 <0>        -0.1421
     10 C8          2.4762    2.9317   -2.3187 C.ar      1 <0>        -0.0855
     11 C9          2.0189    3.9167   -1.4669 C.ar      1 <0>        -0.1809
     12 C10         0.7003    4.3506   -1.5488 C.ar      1 <0>         0.1645
     13 N1          0.2547    5.3484   -0.6721 N.am      1 <0>        -0.5531
     14 C11         0.9908    5.6949    0.4023 C.2       1 <0>         0.5685
     15 O1          0.7222    6.7051    1.0229 O.2       1 <0>        -0.5003
     16 C12         2.1247    4.8467    0.8261 C.ar      1 <0>        -0.1499
     17 C13         2.0178    3.4559    0.7736 C.ar      1 <0>        -0.0570
     18 C14         3.0817    2.6701    1.1655 C.ar      1 <0>        -0.1355
     19 C15         4.2490    3.2575    1.6204 C.ar      1 <0>        -0.0872
     20 C16         4.3597    4.6354    1.6800 C.ar      1 <0>        -0.1307
     21 C17         3.3052    5.4328    1.2860 C.ar      1 <0>        -0.0655
     22 N2         -2.4390    3.0799   -2.8675 N.am      1 <0>        -0.7246
     23 C18        -2.5885    2.6218   -4.1262 C.2       1 <0>         0.5105
     24 O2         -2.0186    3.1732   -5.0439 O.2       1 <0>        -0.5374
     25 C19        -3.4639    1.4245   -4.3934 C.3       1 <0>        -0.1767
     26 H3         -0.8701    7.6307    0.4679 H         1 <0>         0.0916
     27 H4         -2.5346    7.0750    0.1698 H         1 <0>         0.0626
     28 H5         -1.4351    6.0958    1.1702 H         1 <0>         0.0600
     29 H6         -2.1070    4.1896   -0.5176 H         1 <0>         0.0799
     30 H7         -3.0248    5.3807   -1.4721 H         1 <0>         0.0953
     31 H8         -0.3503    2.3748   -4.0736 H         1 <0>         0.1316
     32 H9          1.9784    1.6050   -3.9192 H         1 <0>         0.1232
     33 H10         3.5006    2.5954   -2.2560 H         1 <0>         0.1262
     34 H11         2.6853    4.3505   -0.7361 H         1 <0>         0.1591
     35 H12         1.1055    2.9961    0.4232 H         1 <0>         0.1280
     36 H13         3.0019    1.5939    1.1212 H         1 <0>         0.1305
     37 H14         5.0775    2.6377    1.9300 H         1 <0>         0.1294
     38 H15         5.2735    5.0876    2.0360 H         1 <0>         0.1322
     39 H16         3.3928    6.5083    1.3330 H         1 <0>         0.1335
     40 H17        -2.8948    2.6389   -2.1336 H         1 <0>         0.4034
     41 H18        -4.4820    1.6391   -4.0686 H         1 <0>         0.0899
     42 H19        -3.4619    1.2040   -5.4608 H         1 <0>         0.0948
     43 H20        -3.0808    0.5646   -3.8440 H         1 <0>         0.0895
@<TRIPOS>BOND
     1    1    2 1
     2    1   26 1
     3    1   27 1
     4    1   28 1
     5    2    3 1
     6    2   13 1
     7    2    4 1
     8    4    5 1
     9    4   29 1
    10    4   30 1
    11    5    6 1
    12    5    7 1
    13    5   22 1
    14    7   12 ar
    15    7    8 ar
    16    8    9 ar
    17    8   31 1
    18    9   10 ar
    19    9   32 1
    20   10   11 ar
    21   10   33 1
    22   11   12 ar
    23   11   34 1
    24   12   13 1
    25   13   14 am
    26   14   15 2
    27   14   16 1
    28   16   21 ar
    29   16   17 ar
    30   17   18 ar
    31   17   35 1
    32   18   19 ar
    33   18   36 1
    34   19   20 ar
    35   19   37 1
    36   20   21 ar
    37   20   38 1
    38   21   39 1
    39   22   23 am
    40   22   40 1
    41   23   24 2
    42   23   25 1
    43   25   41 1
    44   25   42 1
    45   25   43 1
@<TRIPOS>MOLECULE
ZINC16037307
   43    45     0     0     0
SMALL
USER_CHARGES
N-[(2R,4R)-1-benzoyl-2-methyl-3,4-dihydro-2H-quinolin-4-yl]acetamide
@<TRIPOS>ATOM
      1 C1          1.7870    3.9048    0.4159 C.3       1 <0>        -0.1496
      2 C2          1.4115    2.6603   -0.3910 C.3       1 <0>         0.1401
      3 H1          0.4260    2.3070   -0.0873 H         1 <0>         0.0790
      4 C3          2.4528    1.5574   -0.1601 C.3       1 <0>        -0.1405
      5 C4          2.0194    0.3025   -0.9176 C.3       1 <0>         0.1885
      6 H2          2.8220   -0.4342   -0.8822 H         1 <0>         0.1036
      7 C5          1.7116    0.6336   -2.3540 C.ar      1 <0>        -0.1407
      8 C6          1.7228   -0.3841   -3.2934 C.ar      1 <0>        -0.0688
      9 C7          1.4408   -0.1131   -4.6181 C.ar      1 <0>        -0.1508
     10 C8          1.1455    1.1783   -5.0155 C.ar      1 <0>        -0.0777
     11 C9          1.1340    2.1987   -4.0861 C.ar      1 <0>        -0.2156
     12 C10         1.4188    1.9284   -2.7521 C.ar      1 <0>         0.1805
     13 N1          1.4056    2.9789   -1.8253 N.am      1 <0>        -0.5640
     14 C11         1.3882    4.2603   -2.2424 C.2       1 <0>         0.5735
     15 O1          1.9071    5.1268   -1.5659 O.2       1 <0>        -0.4874
     16 C12         0.7383    4.6122   -3.5225 C.ar      1 <0>        -0.1398
     17 C13        -0.5084    4.0744   -3.8468 C.ar      1 <0>        -0.0679
     18 C14        -1.1116    4.4106   -5.0411 C.ar      1 <0>        -0.1308
     19 C15        -0.4787    5.2702   -5.9214 C.ar      1 <0>        -0.0907
     20 C16         0.7592    5.8029   -5.6083 C.ar      1 <0>        -0.1247
     21 C17         1.3711    5.4791   -4.4150 C.ar      1 <0>        -0.0711
     22 N2          0.8225   -0.2557   -0.2835 N.am      1 <0>        -0.7245
     23 C18         0.5460   -1.5692   -0.4050 C.2       1 <0>         0.5138
     24 O2          1.2880   -2.2890   -1.0392 O.2       1 <0>        -0.5416
     25 C19        -0.6853   -2.1435    0.2472 C.3       1 <0>        -0.1722
     26 H3          2.8006    4.2124    0.1587 H         1 <0>         0.0750
     27 H4          1.0923    4.7119    0.1834 H         1 <0>         0.0735
     28 H5          1.7358    3.6766    1.4806 H         1 <0>         0.0621
     29 H6          2.5202    1.3360    0.9051 H         1 <0>         0.0947
     30 H7          3.4237    1.8891   -0.5281 H         1 <0>         0.0913
     31 H8          1.9525   -1.3945   -2.9886 H         1 <0>         0.1383
     32 H9          1.4513   -0.9115   -5.3454 H         1 <0>         0.1227
     33 H10         0.9246    1.3881   -6.0516 H         1 <0>         0.1241
     34 H11         0.9033    3.2076   -4.3950 H         1 <0>         0.1725
     35 H12        -1.0014    3.3999   -3.1625 H         1 <0>         0.1291
     36 H13        -2.0780    3.9985   -5.2914 H         1 <0>         0.1329
     37 H14        -0.9532    5.5267   -6.8571 H         1 <0>         0.1310
     38 H15         1.2477    6.4736   -6.2997 H         1 <0>         0.1336
     39 H16         2.3374    5.8956   -4.1718 H         1 <0>         0.1335
     40 H17         0.2290    0.3200    0.2237 H         1 <0>         0.3986
     41 H18        -1.2234   -1.3515    0.7682 H         1 <0>         0.0745
     42 H19        -1.3302   -2.5802   -0.5153 H         1 <0>         0.0956
     43 H20        -0.3928   -2.9140    0.9605 H         1 <0>         0.0963
@<TRIPOS>BOND
     1    1    2 1
     2    1   26 1
     3    1   27 1
     4    1   28 1
     5    2    3 1
     6    2   13 1
     7    2    4 1
     8    4    5 1
     9    4   29 1
    10    4   30 1
    11    5    6 1
    12    5    7 1
    13    5   22 1
    14    7   12 ar
    15    7    8 ar
    16    8    9 ar
    17    8   31 1
    18    9   10 ar
    19    9   32 1
    20   10   11 ar
    21   10   33 1
    22   11   12 ar
    23   11   34 1
    24   12   13 1
    25   13   14 am
    26   14   15 2
    27   14   16 1
    28   16   21 ar
    29   16   17 ar
    30   17   18 ar
    31   17   35 1
    32   18   19 ar
    33   18   36 1
    34   19   20 ar
    35   19   37 1
    36   20   21 ar
    37   20   38 1
    38   21   39 1
    39   22   23 am
    40   22   40 1
    41   23   24 2
    42   23   25 1
    43   25   41 1
    44   25   42 1
    45   25   43 1
@<TRIPOS>MOLECULE
ZINC16037308
   43    45     0     0     0
SMALL
USER_CHARGES
N-[(2S,4S)-1-benzoyl-2-methyl-3,4-dihydro-2H-quinolin-4-yl]acetamide
@<TRIPOS>ATOM
      1 C1         -5.6362    1.1000    1.2831 C.3       1 <0>        -0.1760
      2 C2         -4.9472    0.9398   -0.0736 C.3       1 <0>         0.1243
      3 H1         -4.7673   -0.1165   -0.2737 H         1 <0>         0.1157
      4 C3         -5.8288    1.5353   -1.1791 C.3       1 <0>        -0.1370
      5 C4         -6.1255    2.9961   -0.8408 C.3       1 <0>         0.1896
      6 H2         -6.7802    3.0380    0.0296 H         1 <0>         0.1039
      7 C5         -4.8496    3.7371   -0.5392 C.ar      1 <0>        -0.1338
      8 C6         -4.8393    5.1189   -0.6324 C.ar      1 <0>        -0.0851
      9 C7         -3.6853    5.8273   -0.3596 C.ar      1 <0>        -0.1426
     10 C8         -2.5314    5.1601    0.0096 C.ar      1 <0>        -0.0956
     11 C9         -2.5329    3.7831    0.1042 C.ar      1 <0>        -0.1625
     12 C10        -3.6933    3.0682   -0.1659 C.ar      1 <0>         0.1612
     13 N1         -3.6725    1.6704   -0.0737 N.am      1 <0>        -0.5422
     14 C11        -2.5028    1.0073    0.0189 C.2       1 <0>         0.5635
     15 O1         -1.4573    1.6247    0.0797 O.2       1 <0>        -0.5050
     16 C12        -2.4911   -0.4705    0.0464 C.ar      1 <0>        -0.1314
     17 C13        -1.6272   -1.1804   -0.7891 C.ar      1 <0>        -0.0665
     18 C14        -1.6170   -2.5595   -0.7540 C.ar      1 <0>        -0.1210
     19 C15        -2.4646   -3.2390    0.1027 C.ar      1 <0>        -0.0946
     20 C16        -3.3275   -2.5416    0.9294 C.ar      1 <0>        -0.1222
     21 C17        -3.3478   -1.1624    0.9043 C.ar      1 <0>        -0.0989
     22 N2         -6.7943    3.6300   -1.9797 N.am      1 <0>        -0.7250
     23 C18        -7.5889    4.7008   -1.7840 C.2       1 <0>         0.5107
     24 O2         -7.7503    5.1397   -0.6649 O.2       1 <0>        -0.5377
     25 C19        -8.2768    5.3529   -2.9556 C.3       1 <0>        -0.1768
     26 H3         -5.8264    2.1566    1.4714 H         1 <0>         0.0715
     27 H4         -6.5808    0.5561    1.2773 H         1 <0>         0.0811
     28 H5         -4.9922    0.7013    2.0670 H         1 <0>         0.0672
     29 H6         -5.3048    1.4806   -2.1333 H         1 <0>         0.0811
     30 H7         -6.7624    0.9763   -1.2426 H         1 <0>         0.0954
     31 H8         -5.7376    5.6450   -0.9200 H         1 <0>         0.1299
     32 H9         -3.6839    6.9046   -0.4352 H         1 <0>         0.1210
     33 H10        -1.6305    5.7159    0.2239 H         1 <0>         0.1253
     34 H11        -1.6326    3.2609    0.3924 H         1 <0>         0.1756
     35 H12        -0.9651   -0.6512   -1.4584 H         1 <0>         0.1315
     36 H13        -0.9461   -3.1099   -1.3970 H         1 <0>         0.1323
     37 H14        -2.4525   -4.3187    0.1266 H         1 <0>         0.1297
     38 H15        -3.9864   -3.0781    1.5961 H         1 <0>         0.1318
     39 H16        -4.0216   -0.6192    1.5503 H         1 <0>         0.1346
     40 H17        -6.6652    3.2789   -2.8747 H         1 <0>         0.4030
     41 H18        -8.9277    4.6279   -3.4442 H         1 <0>         0.0897
     42 H19        -8.8714    6.1962   -2.6044 H         1 <0>         0.0946
     43 H20        -7.5289    5.7062   -3.6655 H         1 <0>         0.0895
@<TRIPOS>BOND
     1    1    2 1
     2    1   26 1
     3    1   27 1
     4    1   28 1
     5    2    3 1
     6    2   13 1
     7    2    4 1
     8    4    5 1
     9    4   29 1
    10    4   30 1
    11    5    6 1
    12    5    7 1
    13    5   22 1
    14    7   12 ar
    15    7    8 ar
    16    8    9 ar
    17    8   31 1
    18    9   10 ar
    19    9   32 1
    20   10   11 ar
    21   10   33 1
    22   11   12 ar
    23   11   34 1
    24   12   13 1
    25   13   14 am
    26   14   15 2
    27   14   16 1
    28   16   21 ar
    29   16   17 ar
    30   17   18 ar
    31   17   35 1
    32   18   19 ar
    33   18   36 1
    34   19   20 ar
    35   19   37 1
    36   20   21 ar
    37   20   38 1
    38   21   39 1
    39   22   23 am
    40   22   40 1
    41   23   24 2
    42   23   25 1
    43   25   41 1
    44   25   42 1
    45   25   43 1
@<TRIPOS>MOLECULE
ZINC49021281
   54    57     0     0     0
SMALL
USER_CHARGES

@<TRIPOS>ATOM
      1 C1         -0.7515    1.5614   -0.6929 C.3       1 <0>        -0.1688
      2 C2         -0.6001    0.0448   -0.5588 C.3       1 <0>         0.1577
      3 H1         -0.2355   -0.3740   -1.4967 H         1 <0>         0.0718
      4 C3         -1.9536   -0.5828   -0.2008 C.3       1 <0>        -0.1604
      5 C4         -1.7929   -2.1017   -0.1404 C.3       1 <0>         0.1974
      6 H2         -1.6164   -2.4856   -1.1452 H         1 <0>         0.1005
      7 C5         -0.6335   -2.4742    0.7456 C.ar      1 <0>        -0.1746
      8 C6         -0.5786   -3.7528    1.2752 C.ar      1 <0>        -0.0629
      9 C7          0.4734   -4.1256    2.0889 C.ar      1 <0>        -0.1699
     10 C8          1.4802   -3.2232    2.3804 C.ar      1 <0>        -0.0692
     11 C9          1.4329   -1.9467    1.8575 C.ar      1 <0>        -0.1955
     12 C10         0.3741   -1.5687    1.0388 C.ar      1 <0>         0.2315
     13 N1          0.3416   -0.2673    0.5249 N.pl3     1 <0>        -0.6218
     14 C11         1.2313    0.7669    1.0589 C.3       1 <0>         0.1598
     15 C12         2.5288    0.7580    0.2925 C.ar      1 <0>        -0.1068
     16 C13         3.6234    0.0792    0.7945 C.ar      1 <0>        -0.1084
     17 C14         4.8136    0.0710    0.0914 C.ar      1 <0>        -0.1181
     18 C15         4.9091    0.7412   -1.1138 C.ar      1 <0>        -0.1171
     19 C16         3.8142    1.4193   -1.6162 C.ar      1 <0>        -0.1199
     20 C17         2.6227    1.4239   -0.9153 C.ar      1 <0>        -0.1108
     21 N2         -3.0187   -2.6973    0.3971 N.am      1 <0>        -0.5642
     22 C18        -3.8171   -3.5090   -0.4163 C.ar      1 <0>         0.1410
     23 C19        -4.1118   -4.8090   -0.0269 C.ar      1 <0>        -0.1056
     24 C20        -4.9006   -5.6074   -0.8318 C.ar      1 <0>        -0.1063
     25 C21        -5.3968   -5.1136   -2.0243 C.ar      1 <0>        -0.1235
     26 C22        -5.1051   -3.8195   -2.4150 C.ar      1 <0>        -0.1076
     27 C23        -4.3213   -3.0143   -1.6120 C.ar      1 <0>        -0.1291
     28 C24        -3.3773   -2.4636    1.6751 C.2       1 <0>         0.5243
     29 O1         -4.3423   -3.0269    2.1469 O.2       1 <0>        -0.5282
     30 C25        -2.5794   -1.5022    2.5178 C.3       1 <0>        -0.1898
     31 H3          0.2300    2.0132   -0.8366 H         1 <0>         0.0722
     32 H4         -1.3851    1.7889   -1.5501 H         1 <0>         0.0744
     33 H5         -1.2071    1.9626    0.2124 H         1 <0>         0.0665
     34 H6         -2.2831   -0.2116    0.7697 H         1 <0>         0.0916
     35 H7         -2.6893   -0.3234   -0.9621 H         1 <0>         0.0858
     36 H8         -1.3622   -4.4615    1.0512 H         1 <0>         0.1171
     37 H9          0.5097   -5.1241    2.4989 H         1 <0>         0.1191
     38 H10         2.3021   -3.5169    3.0165 H         1 <0>         0.1219
     39 H11         2.2185   -1.2412    2.0841 H         1 <0>         0.1292
     40 H12         0.7562    1.7426    0.9576 H         1 <0>         0.0924
     41 H13         1.4299    0.5670    2.1119 H         1 <0>         0.0830
     42 H14         3.5489   -0.4444    1.7361 H         1 <0>         0.1235
     43 H15         5.6690   -0.4587    0.4839 H         1 <0>         0.1221
     44 H16         5.8391    0.7354   -1.6627 H         1 <0>         0.1213
     45 H17         3.8888    1.9432   -2.5577 H         1 <0>         0.1215
     46 H18         1.7662    1.9505   -1.3096 H         1 <0>         0.1230
     47 H19        -3.7243   -5.1954    0.9042 H         1 <0>         0.1227
     48 H20        -5.1299   -6.6186   -0.5297 H         1 <0>         0.1263
     49 H21        -6.0130   -5.7400   -2.6522 H         1 <0>         0.1247
     50 H22        -5.4941   -3.4367   -3.3469 H         1 <0>         0.1264
     51 H23        -4.0973   -2.0023   -1.9156 H         1 <0>         0.1230
     52 H24        -1.7601   -1.0940    1.9260 H         1 <0>         0.1020
     53 H25        -3.2251   -0.6906    2.8530 H         1 <0>         0.0911
     54 H26        -2.1758   -2.0269    3.3838 H         1 <0>         0.0938
@<TRIPOS>BOND
     1    1    2 1
     2    1   31 1
     3    1   32 1
     4    1   33 1
     5    2    3 1
     6    2   13 1
     7    2    4 1
     8    4    5 1
     9    4   34 1
    10    4   35 1
    11    5    6 1
    12    5    7 1
    13    5   21 1
    14    7   12 ar
    15    7    8 ar
    16    8    9 ar
    17    8   36 1
    18    9   10 ar
    19    9   37 1
    20   10   11 ar
    21   10   38 1
    22   11   12 ar
    23   11   39 1
    24   12   13 1
    25   13   14 1
    26   14   15 1
    27   14   40 1
    28   14   41 1
    29   15   20 ar
    30   15   16 ar
    31   16   17 ar
    32   16   42 1
    33   17   18 ar
    34   17   43 1
    35   18   19 ar
    36   18   44 1
    37   19   20 ar
    38   19   45 1
    39   20   46 1
    40   21   22 1
    41   21   28 am
    42   22   27 ar
    43   22   23 ar
    44   23   24 ar
    45   23   47 1
    46   24   25 ar
    47   24   48 1
    48   25   26 ar
    49   25   49 1
    50   26   27 ar
    51   26   50 1
    52   27   51 1
    53   28   29 2
    54   28   30 1
    55   30   52 1
    56   30   53 1
    57   30   54 1
@<TRIPOS>MOLECULE
ZINC49021284
   54    57     0     0     0
SMALL
USER_CHARGES

@<TRIPOS>ATOM
      1 C1          0.0103    1.4182    0.1838 C.3       1 <0>        -0.1701
      2 C2          0.0255   -0.1087    0.0880 C.3       1 <0>         0.1577
      3 H1         -0.9960   -0.4890    0.0927 H         1 <0>         0.0929
      4 C3          0.7351   -0.5414   -1.2017 C.3       1 <0>        -0.1592
      5 C4          2.1397    0.0615   -1.2184 C.3       1 <0>         0.1972
      6 H2          2.0666    1.1418   -1.3438 H         1 <0>         0.1030
      7 C5          2.8592   -0.2427    0.0691 C.ar      1 <0>        -0.1733
      8 C6          4.2423   -0.1754    0.0958 C.ar      1 <0>        -0.0632
      9 C7          4.9309   -0.4460    1.2622 C.ar      1 <0>        -0.1700
     10 C8          4.2426   -0.7864    2.4125 C.ar      1 <0>        -0.0681
     11 C9          2.8642   -0.8567    2.3944 C.ar      1 <0>        -0.1926
     12 C10         2.1688   -0.5857    1.2210 C.ar      1 <0>         0.2338
     13 N1          0.7710   -0.6710    1.2224 N.pl3     1 <0>        -0.6220
     14 C11         0.0635   -1.3100    2.3348 C.3       1 <0>         0.1651
     15 C12        -0.1030   -2.7797    2.0462 C.ar      1 <0>        -0.1092
     16 C13        -1.2229   -3.2292    1.3720 C.ar      1 <0>        -0.1064
     17 C14        -1.3756   -4.5774    1.1073 C.ar      1 <0>        -0.1210
     18 C15        -0.4081   -5.4760    1.5164 C.ar      1 <0>        -0.1158
     19 C16         0.7123   -5.0264    2.1898 C.ar      1 <0>        -0.1195
     20 C17         0.8670   -3.6777    2.4507 C.ar      1 <0>        -0.1018
     21 N2          2.8967   -0.5056   -2.3372 N.am      1 <0>        -0.5646
     22 C18         3.2823    0.3107   -3.4062 C.ar      1 <0>         0.1415
     23 C19         4.6213    0.4048   -3.7622 C.ar      1 <0>        -0.1060
     24 C20         4.9986    1.2110   -4.8182 C.ar      1 <0>        -0.1061
     25 C21         4.0446    1.9242   -5.5207 C.ar      1 <0>        -0.1239
     26 C22         2.7105    1.8327   -5.1688 C.ar      1 <0>        -0.1074
     27 C23         2.3261    1.0241   -4.1171 C.ar      1 <0>        -0.1297
     28 C24         3.2218   -1.8136   -2.3367 C.2       1 <0>         0.5243
     29 O1          3.9250   -2.2640   -3.2162 O.2       1 <0>        -0.5286
     30 C25         2.7115   -2.7164   -1.2433 C.3       1 <0>        -0.1881
     31 H3          1.0339    1.7928    0.1787 H         1 <0>         0.0625
     32 H4         -0.5317    1.8302   -0.6674 H         1 <0>         0.0681
     33 H5         -0.4822    1.7194    1.1084 H         1 <0>         0.0624
     34 H6          0.8040   -1.6288   -1.2335 H         1 <0>         0.0892
     35 H7          0.1738   -0.1838   -2.0649 H         1 <0>         0.0843
     36 H8          4.7849    0.0896   -0.7996 H         1 <0>         0.1171
     37 H9          6.0095   -0.3920    1.2759 H         1 <0>         0.1192
     38 H10         4.7828   -0.9965    3.3237 H         1 <0>         0.1223
     39 H11         2.3255   -1.1221    3.2921 H         1 <0>         0.1246
     40 H12         0.6383   -1.1827    3.2520 H         1 <0>         0.0865
     41 H13        -0.9174   -0.8498    2.4538 H         1 <0>         0.0845
     42 H14        -1.9788   -2.5272    1.0524 H         1 <0>         0.1183
     43 H15        -2.2509   -4.9287    0.5812 H         1 <0>         0.1211
     44 H16        -0.5277   -6.5294    1.3102 H         1 <0>         0.1210
     45 H17         1.4680   -5.7285    2.5097 H         1 <0>         0.1215
     46 H18         1.7442   -3.3260    2.9736 H         1 <0>         0.1207
     47 H19         5.3668   -0.1517   -3.2137 H         1 <0>         0.1228
     48 H20         6.0398    1.2849   -5.0953 H         1 <0>         0.1262
     49 H21         4.3422    2.5542   -6.3459 H         1 <0>         0.1245
     50 H22         1.9678    2.3909   -5.7194 H         1 <0>         0.1263
     51 H23         1.2835    0.9498   -3.8453 H         1 <0>         0.1228
     52 H24         2.1816   -2.1220   -0.4989 H         1 <0>         0.1043
     53 H25         2.0321   -3.4548   -1.6692 H         1 <0>         0.0894
     54 H26         3.5515   -3.2255   -0.7708 H         1 <0>         0.0915
@<TRIPOS>BOND
     1    1    2 1
     2    1   31 1
     3    1   32 1
     4    1   33 1
     5    2    3 1
     6    2   13 1
     7    2    4 1
     8    4    5 1
     9    4   34 1
    10    4   35 1
    11    5    6 1
    12    5    7 1
    13    5   21 1
    14    7   12 ar
    15    7    8 ar
    16    8    9 ar
    17    8   36 1
    18    9   10 ar
    19    9   37 1
    20   10   11 ar
    21   10   38 1
    22   11   12 ar
    23   11   39 1
    24   12   13 1
    25   13   14 1
    26   14   15 1
    27   14   40 1
    28   14   41 1
    29   15   20 ar
    30   15   16 ar
    31   16   17 ar
    32   16   42 1
    33   17   18 ar
    34   17   43 1
    35   18   19 ar
    36   18   44 1
    37   19   20 ar
    38   19   45 1
    39   20   46 1
    40   21   22 1
    41   21   28 am
    42   22   27 ar
    43   22   23 ar
    44   23   24 ar
    45   23   47 1
    46   24   25 ar
    47   24   48 1
    48   25   26 ar
    49   25   49 1
    50   26   27 ar
    51   26   50 1
    52   27   51 1
    53   28   29 2
    54   28   30 1
    55   30   52 1
    56   30   53 1
    57   30   54 1
@<TRIPOS>MOLECULE
ZINC49021287
   54    57     0     0     0
SMALL
USER_CHARGES

@<TRIPOS>ATOM
      1 C1          0.6161    0.9590    0.8101 C.3       1 <0>        -0.1698
      2 C2          0.3372   -0.5171    0.5197 C.3       1 <0>         0.1523
      3 H1          0.7590   -0.7889   -0.4479 H         1 <0>         0.0731
      4 C3         -1.1763   -0.7690    0.5161 C.3       1 <0>        -0.1554
      5 C4         -1.4322   -2.2324    0.1560 C.3       1 <0>         0.1860
      6 H2         -2.4895   -2.4580    0.2950 H         1 <0>         0.1041
      7 C5         -0.6100   -3.1419    1.0305 C.ar      1 <0>        -0.1513
      8 C6         -0.9967   -4.4643    1.1726 C.ar      1 <0>        -0.0722
      9 C7         -0.2617   -5.3240    1.9654 C.ar      1 <0>        -0.1648
     10 C8          0.8667   -4.8691    2.6233 C.ar      1 <0>        -0.0642
     11 C9          1.2586   -3.5527    2.4879 C.ar      1 <0>        -0.2096
     12 C10         0.5196   -2.6849    1.6910 C.ar      1 <0>         0.2369
     13 N1          0.9301   -1.3521    1.5732 N.pl3     1 <0>        -0.6129
     14 C11         1.9336   -0.7983    2.4856 C.3       1 <0>         0.1591
     15 C12         3.3075   -0.9882    1.8964 C.ar      1 <0>        -0.1073
     16 C13         4.0574   -2.0990    2.2352 C.ar      1 <0>        -0.1078
     17 C14         5.3177   -2.2732    1.6947 C.ar      1 <0>        -0.1173
     18 C15         5.8280   -1.3368    0.8151 C.ar      1 <0>        -0.1151
     19 C16         5.0778   -0.2265    0.4756 C.ar      1 <0>        -0.1187
     20 C17         3.8158   -0.0545    1.0128 C.ar      1 <0>        -0.1099
     21 N2         -1.0694   -2.4568   -1.2455 N.am      1 <0>        -0.5437
     22 C18         0.0904   -3.1728   -1.5619 C.ar      1 <0>         0.1453
     23 C19         0.9006   -3.6680   -0.5486 C.ar      1 <0>        -0.2361
     24 C20         2.0445   -4.3748   -0.8642 C.ar      1 <0>        -0.0962
     25 C21         2.3832   -4.5895   -2.1876 C.ar      1 <0>        -0.1475
     26 C22         1.5785   -4.0977   -3.1989 C.ar      1 <0>        -0.1096
     27 C23         0.4306   -3.3947   -2.8899 C.ar      1 <0>        -0.1743
     28 C24        -1.8528   -1.9736   -2.2300 C.2       1 <0>         0.5103
     29 O1         -1.5947   -2.2240   -3.3884 O.2       1 <0>        -0.5171
     30 C25        -3.0493   -1.1222   -1.8917 C.3       1 <0>        -0.1833
     31 H3          1.6899    1.1115    0.9181 H         1 <0>         0.0723
     32 H4          0.2436    1.5680   -0.0135 H         1 <0>         0.0733
     33 H5          0.1133    1.2491    1.7328 H         1 <0>         0.0677
     34 H6         -1.5837   -0.5597    1.5052 H         1 <0>         0.0932
     35 H7         -1.6523   -0.1228   -0.2214 H         1 <0>         0.0921
     36 H8         -1.8771   -4.8248    0.6615 H         1 <0>         0.1238
     37 H9         -0.5691   -6.3538    2.0722 H         1 <0>         0.1241
     38 H10         1.4402   -5.5431    3.2424 H         1 <0>         0.1264
     39 H11         2.1396   -3.1963    3.0009 H         1 <0>         0.1342
     40 H12         1.7445    0.2653    2.6313 H         1 <0>         0.0929
     41 H13         1.8754   -1.3124    3.4450 H         1 <0>         0.0856
     42 H14         3.6587   -2.8305    2.9224 H         1 <0>         0.1235
     43 H15         5.9038   -3.1407    1.9600 H         1 <0>         0.1220
     44 H16         6.8130   -1.4726    0.3934 H         1 <0>         0.1210
     45 H17         5.4766    0.5052   -0.2113 H         1 <0>         0.1209
     46 H18         3.2281    0.8111    0.7447 H         1 <0>         0.1220
     47 H19         0.6368   -3.5004    0.4852 H         1 <0>         0.2167
     48 H20         2.6752   -4.7598   -0.0766 H         1 <0>         0.1124
     49 H21         3.2784   -5.1422   -2.4318 H         1 <0>         0.1116
     50 H22         1.8458   -4.2671   -4.2315 H         1 <0>         0.1172
     51 H23        -0.1997   -3.0144   -3.6802 H         1 <0>         0.1772
     52 H24        -3.0792   -0.9486   -0.8160 H         1 <0>         0.0853
     53 H25        -2.9746   -0.1673   -2.4119 H         1 <0>         0.1011
     54 H26        -3.9596   -1.6350   -2.2024 H         1 <0>         0.1005
@<TRIPOS>BOND
     1    1    2 1
     2    1   31 1
     3    1   32 1
     4    1   33 1
     5    2    3 1
     6    2   13 1
     7    2    4 1
     8    4    5 1
     9    4   34 1
    10    4   35 1
    11    5    6 1
    12    5    7 1
    13    5   21 1
    14    7   12 ar
    15    7    8 ar
    16    8    9 ar
    17    8   36 1
    18    9   10 ar
    19    9   37 1
    20   10   11 ar
    21   10   38 1
    22   11   12 ar
    23   11   39 1
    24   12   13 1
    25   13   14 1
    26   14   15 1
    27   14   40 1
    28   14   41 1
    29   15   20 ar
    30   15   16 ar
    31   16   17 ar
    32   16   42 1
    33   17   18 ar
    34   17   43 1
    35   18   19 ar
    36   18   44 1
    37   19   20 ar
    38   19   45 1
    39   20   46 1
    40   21   22 1
    41   21   28 am
    42   22   27 ar
    43   22   23 ar
    44   23   24 ar
    45   23   47 1
    46   24   25 ar
    47   24   48 1
    48   25   26 ar
    49   25   49 1
    50   26   27 ar
    51   26   50 1
    52   27   51 1
    53   28   29 2
    54   28   30 1
    55   30   52 1
    56   30   53 1
    57   30   54 1
@<TRIPOS>MOLECULE
ZINC49021290
   54    57     0     0     0
SMALL
USER_CHARGES

@<TRIPOS>ATOM
      1 C1         -0.4758    0.8455    0.4875 C.3       1 <0>        -0.1692
      2 C2         -0.2968   -0.6688    0.3617 C.3       1 <0>         0.1600
      3 H1         -1.2318   -1.1726    0.6070 H         1 <0>         0.0714
      4 C3          0.1252   -1.0250   -1.0698 C.3       1 <0>        -0.1597
      5 C4          0.2303   -2.5452   -1.1897 C.3       1 <0>         0.1980
      6 H2         -0.7665   -2.9814   -1.1252 H         1 <0>         0.1001
      7 C5          1.0900   -3.1028   -0.0861 C.ar      1 <0>        -0.1738
      8 C6          1.6593   -4.3550   -0.2479 C.ar      1 <0>        -0.0627
      9 C7          2.4504   -4.8948    0.7474 C.ar      1 <0>        -0.1706
     10 C8          2.6793   -4.1873    1.9136 C.ar      1 <0>        -0.0685
     11 C9          2.1166   -2.9384    2.0826 C.ar      1 <0>        -0.1967
     12 C10         1.3205   -2.3923    1.0815 C.ar      1 <0>         0.2310
     13 N1          0.7655   -1.1215    1.2700 N.pl3     1 <0>        -0.6213
     14 C11         1.2370   -0.2560    2.3540 C.3       1 <0>         0.1604
     15 C12         0.3310   -0.4083    3.5485 C.ar      1 <0>        -0.1069
     16 C13        -0.6922    0.4970    3.7598 C.ar      1 <0>        -0.1124
     17 C14        -1.5233    0.3573    4.8556 C.ar      1 <0>        -0.1204
     18 C15        -1.3315   -0.6878    5.7398 C.ar      1 <0>        -0.1170
     19 C16        -0.3089   -1.5935    5.5280 C.ar      1 <0>        -0.1191
     20 C17         0.5195   -1.4564    4.4299 C.ar      1 <0>        -0.1083
     21 N2          0.8264   -2.8889   -2.4831 N.am      1 <0>        -0.5672
     22 C18         0.1185   -3.6849   -3.3903 C.ar      1 <0>         0.1416
     23 C19        -1.0358   -3.1983   -3.9898 C.ar      1 <0>        -0.1212
     24 C20        -1.7320   -3.9863   -4.8853 C.ar      1 <0>        -0.1087
     25 C21        -1.2808   -5.2586   -5.1850 C.ar      1 <0>        -0.1194
     26 C22        -0.1319   -5.7461   -4.5897 C.ar      1 <0>        -0.1072
     27 C23         0.5718   -4.9611   -3.6975 C.ar      1 <0>        -0.1093
     28 C24         2.0567   -2.4383   -2.7990 C.2       1 <0>         0.5240
     29 O1          2.5092   -2.6367   -3.9067 O.2       1 <0>        -0.5288
     30 C25         2.8701   -1.6880   -1.7761 C.3       1 <0>        -0.1903
     31 H3          0.4876    1.3375    0.3538 H         1 <0>         0.0666
     32 H4         -1.1709    1.1939   -0.2764 H         1 <0>         0.0736
     33 H5         -0.8716    1.0838    1.4748 H         1 <0>         0.0723
     34 H6         -0.6200   -0.6538   -1.7733 H         1 <0>         0.0854
     35 H7          1.0931   -0.5737   -1.2882 H         1 <0>         0.0901
     36 H8          1.4836   -4.9120   -1.1563 H         1 <0>         0.1181
     37 H9          2.8916   -5.8716    0.6145 H         1 <0>         0.1192
     38 H10         3.2973   -4.6117    2.6910 H         1 <0>         0.1223
     39 H11         2.2943   -2.3851    2.9929 H         1 <0>         0.1278
     40 H12         2.2526   -0.5397    2.6298 H         1 <0>         0.0864
     41 H13         1.2274    0.7817    2.0206 H         1 <0>         0.0882
     42 H14        -0.8420    1.3135    3.0690 H         1 <0>         0.1242
     43 H15        -2.3222    1.0650    5.0210 H         1 <0>         0.1216
     44 H16        -1.9804   -0.7965    6.5963 H         1 <0>         0.1211
     45 H17        -0.1589   -2.4099    6.2190 H         1 <0>         0.1216
     46 H18         1.3161   -2.1661    4.2624 H         1 <0>         0.1250
     47 H19        -1.3888   -2.2048   -3.7559 H         1 <0>         0.1230
     48 H20        -2.6299   -3.6085   -5.3516 H         1 <0>         0.1268
     49 H21        -1.8272   -5.8730   -5.8853 H         1 <0>         0.1254
     50 H22         0.2179   -6.7403   -4.8259 H         1 <0>         0.1269
     51 H23         1.4714   -5.3409   -3.2360 H         1 <0>         0.1210
     52 H24         2.3161   -1.6356   -0.8388 H         1 <0>         0.1021
     53 H25         3.8146   -2.2067   -1.6114 H         1 <0>         0.0933
     54 H26         3.0679   -0.6791   -2.1381 H         1 <0>         0.0908
@<TRIPOS>BOND
     1    1    2 1
     2    1   31 1
     3    1   32 1
     4    1   33 1
     5    2    3 1
     6    2   13 1
     7    2    4 1
     8    4    5 1
     9    4   34 1
    10    4   35 1
    11    5    6 1
    12    5    7 1
    13    5   21 1
    14    7   12 ar
    15    7    8 ar
    16    8    9 ar
    17    8   36 1
    18    9   10 ar
    19    9   37 1
    20   10   11 ar
    21   10   38 1
    22   11   12 ar
    23   11   39 1
    24   12   13 1
    25   13   14 1
    26   14   15 1
    27   14   40 1
    28   14   41 1
    29   15   20 ar
    30   15   16 ar
    31   16   17 ar
    32   16   42 1
    33   17   18 ar
    34   17   43 1
    35   18   19 ar
    36   18   44 1
    37   19   20 ar
    38   19   45 1
    39   20   46 1
    40   21   22 1
    41   21   28 am
    42   22   27 ar
    43   22   23 ar
    44   23   24 ar
    45   23   47 1
    46   24   25 ar
    47   24   48 1
    48   25   26 ar
    49   25   49 1
    50   26   27 ar
    51   26   50 1
    52   27   51 1
    53   28   29 2
    54   28   30 1
    55   30   52 1
    56   30   53 1
    57   30   54 1
@<TRIPOS>MOLECULE
ZINC00832676
   57    60     0     0     0
SMALL
USER_CHARGES
N-[2-methyl-1-(3-phenylprop-2-enoyl)-3,4-dihydro-2H-quinolin-4-yl]-N-phenyl-acetamide
@<TRIPOS>ATOM
      1 C1          0.3219    3.0169   -1.4999 C.3       1 <0>        -0.1711
      2 C2          0.6109    2.3880   -0.1354 C.3       1 <0>         0.1327
      3 H1          1.5337    1.8098   -0.1835 H         1 <0>         0.1062
      4 C3          0.7399    3.4876    0.9268 C.3       1 <0>        -0.1478
      5 C4         -0.5371    4.3276    0.9255 C.3       1 <0>         0.2005
      6 H2         -0.5917    4.8988   -0.0012 H         1 <0>         0.1013
      7 C5         -1.7507    3.4422    1.0318 C.ar      1 <0>        -0.1176
      8 C6         -2.9439    3.9908    1.4717 C.ar      1 <0>        -0.0894
      9 C7         -4.0753    3.2054    1.5766 C.ar      1 <0>        -0.1421
     10 C8         -4.0237    1.8643    1.2422 C.ar      1 <0>        -0.0964
     11 C9         -2.8383    1.3093    0.8045 C.ar      1 <0>        -0.1523
     12 C10        -1.6994    2.0978    0.6943 C.ar      1 <0>         0.1768
     13 N1         -0.5038    1.5145    0.2561 N.am      1 <0>        -0.5432
     14 C11        -0.3798    0.1741    0.1892 C.2       1 <0>         0.5524
     15 O1         -1.2684   -0.5412    0.6135 O.2       1 <0>        -0.5184
     16 C12         0.8237   -0.4215   -0.3937 C.2       1 <0>        -0.2224
     17 C13         0.9595   -1.7623   -0.4365 C.2       1 <0>        -0.0044
     18 C14         2.1697   -2.3611   -1.0227 C.ar      1 <0>        -0.0817
     19 C15         3.1782   -1.5429   -1.5413 C.ar      1 <0>        -0.0995
     20 C16         4.3112   -2.1114   -2.0840 C.ar      1 <0>        -0.1225
     21 C17         4.4469   -3.4881   -2.1260 C.ar      1 <0>        -0.1053
     22 C18         3.4508   -4.3047   -1.6195 C.ar      1 <0>        -0.1223
     23 C19         2.3142   -3.7513   -1.0689 C.ar      1 <0>        -0.0915
     24 N2         -0.5105    5.2510    2.0625 N.am      1 <0>        -0.5694
     25 C20        -0.5678    6.6319    1.8439 C.ar      1 <0>         0.1314
     26 C21         0.5158    7.2927    1.2802 C.ar      1 <0>        -0.1196
     27 C22         0.4541    8.6550    1.0612 C.ar      1 <0>        -0.1056
     28 C23        -0.6811    9.3625    1.4118 C.ar      1 <0>        -0.1160
     29 C24        -1.7598    8.7082    1.9780 C.ar      1 <0>        -0.1048
     30 C25        -1.7063    7.3453    2.1952 C.ar      1 <0>        -0.1215
     31 C26        -0.4307    4.7705    3.3192 C.2       1 <0>         0.5177
     32 O2         -0.4729    3.5743    3.5149 O.2       1 <0>        -0.5132
     33 C27        -0.2890    5.7195    4.4812 C.3       1 <0>        -0.1770
     34 H3         -0.5939    3.6052   -1.4422 H         1 <0>         0.0657
     35 H4          1.1517    3.6636   -1.7850 H         1 <0>         0.0769
     36 H5          0.2019    2.2300   -2.2446 H         1 <0>         0.0665
     37 H6          0.8772    3.0332    1.9081 H         1 <0>         0.0963
     38 H7          1.5961    4.1210    0.6947 H         1 <0>         0.0862
     39 H8         -2.9900    5.0375    1.7335 H         1 <0>         0.1174
     40 H9         -5.0025    3.6397    1.9203 H         1 <0>         0.1197
     41 H10        -4.9098    1.2522    1.3239 H         1 <0>         0.1241
     42 H11        -2.7966    0.2622    0.5431 H         1 <0>         0.1669
     43 H12         1.6028    0.2131   -0.7895 H         1 <0>         0.1335
     44 H13         0.1803   -2.3968   -0.0407 H         1 <0>         0.1385
     45 H14         3.0717   -0.4685   -1.5132 H         1 <0>         0.1259
     46 H15         5.0930   -1.4807   -2.4809 H         1 <0>         0.1269
     47 H16         5.3348   -3.9275   -2.5561 H         1 <0>         0.1257
     48 H17         3.5639   -5.3781   -1.6559 H         1 <0>         0.1278
     49 H18         1.5378   -4.3898   -0.6740 H         1 <0>         0.1294
     50 H19         1.4044    6.7415    1.0103 H         1 <0>         0.1264
     51 H20         1.2952    9.1690    0.6198 H         1 <0>         0.1286
     52 H21        -0.7253   10.4283    1.2433 H         1 <0>         0.1271
     53 H22        -2.6449    9.2636    2.2510 H         1 <0>         0.1291
     54 H23        -2.5491    6.8349    2.6375 H         1 <0>         0.1257
     55 H24        -0.1958    6.7394    4.1081 H         1 <0>         0.0806
     56 H25        -1.1689    5.6454    5.1202 H         1 <0>         0.0956
     57 H26         0.6002    5.4602    5.0558 H         1 <0>         0.0954
@<TRIPOS>BOND
     1    1    2 1
     2    1   34 1
     3    1   35 1
     4    1   36 1
     5    2    3 1
     6    2   13 1
     7    2    4 1
     8    4    5 1
     9    4   37 1
    10    4   38 1
    11    5    6 1
    12    5    7 1
    13    5   24 1
    14    7   12 ar
    15    7    8 ar
    16    8    9 ar
    17    8   39 1
    18    9   10 ar
    19    9   40 1
    20   10   11 ar
    21   10   41 1
    22   11   12 ar
    23   11   42 1
    24   12   13 1
    25   13   14 am
    26   14   15 2
    27   14   16 1
    28   16   17 2
    29   16   43 1
    30   17   18 1
    31   17   44 1
    32   18   23 ar
    33   18   19 ar
    34   19   20 ar
    35   19   45 1
    36   20   21 ar
    37   20   46 1
    38   21   22 ar
    39   21   47 1
    40   22   23 ar
    41   22   48 1
    42   23   49 1
    43   24   25 1
    44   24   31 am
    45   25   30 ar
    46   25   26 ar
    47   26   27 ar
    48   26   50 1
    49   27   28 ar
    50   27   51 1
    51   28   29 ar
    52   28   52 1
    53   29   30 ar
    54   29   53 1
    55   30   54 1
    56   31   32 2
    57   31   33 1
    58   33   55 1
    59   33   56 1
    60   33   57 1
@<TRIPOS>MOLECULE
ZINC01064515
   57    60     0     0     0
SMALL
USER_CHARGES
N-[2-methyl-1-(3-phenylprop-2-enoyl)-3,4-dihydro-2H-quinolin-4-yl]-N-phenyl-acetamide
@<TRIPOS>ATOM
      1 C1          7.4077    5.3028   -0.1552 C.3       1 <0>        -0.1422
      2 C2          6.2321    6.2492   -0.4066 C.3       1 <0>         0.1182
      3 H1          6.0588    6.3470   -1.4783 H         1 <0>         0.1034
      4 C3          6.5373    7.6241    0.1925 C.3       1 <0>        -0.1413
      5 C4          5.3815    8.5722   -0.1260 C.3       1 <0>         0.1839
      6 H2          5.5198    9.5053    0.4202 H         1 <0>         0.1202
      7 C5          4.0673    7.9532    0.2709 C.ar      1 <0>        -0.1373
      8 C6          2.9716    8.7767    0.4698 C.ar      1 <0>        -0.0703
      9 C7          1.7509    8.2384    0.8274 C.ar      1 <0>        -0.1469
     10 C8          1.6148    6.8716    0.9890 C.ar      1 <0>        -0.0765
     11 C9          2.7021    6.0439    0.7947 C.ar      1 <0>        -0.2032
     12 C10         3.9325    6.5837    0.4361 C.ar      1 <0>         0.1903
     13 N1          5.0243    5.7270    0.2471 N.am      1 <0>        -0.5429
     14 C11         4.9701    4.4462    0.6631 C.2       1 <0>         0.5539
     15 O1          5.8583    3.6705    0.3622 O.2       1 <0>        -0.5098
     16 C12         3.8428    3.9881    1.4769 C.2       1 <0>        -0.2297
     17 C13         3.4882    2.6873    1.4662 C.2       1 <0>        -0.0246
     18 C14         2.3547    2.2267    2.2845 C.ar      1 <0>        -0.0779
     19 C15         1.6436    3.1350    3.0750 C.ar      1 <0>        -0.1035
     20 C16         0.5835    2.6956    3.8396 C.ar      1 <0>        -0.1201
     21 C17         0.2224    1.3596    3.8255 C.ar      1 <0>        -0.1066
     22 C18         0.9212    0.4545    3.0457 C.ar      1 <0>        -0.1212
     23 C19         1.9839    0.8784    2.2761 C.ar      1 <0>        -0.0933
     24 N2          5.3690    8.8548   -1.5635 N.am      1 <0>        -0.5639
     25 C20         5.0873    7.8315   -2.4753 C.ar      1 <0>         0.1353
     26 C21         6.0777    7.3719   -3.3334 C.ar      1 <0>        -0.1282
     27 C22         5.7980    6.3574   -4.2279 C.ar      1 <0>        -0.1057
     28 C23         4.5302    5.8076   -4.2778 C.ar      1 <0>        -0.1155
     29 C24         3.5401    6.2673   -3.4289 C.ar      1 <0>        -0.1042
     30 C25         3.8150    7.2772   -2.5279 C.ar      1 <0>        -0.1158
     31 C26         5.6290   10.1004   -2.0077 C.2       1 <0>         0.5221
     32 O2          5.9581   10.9669   -1.2253 O.2       1 <0>        -0.5326
     33 C27         5.5108   10.4167   -3.4764 C.3       1 <0>        -0.1768
     34 H3          7.3095    4.4241   -0.7927 H         1 <0>         0.0810
     35 H4          8.3421    5.8152   -0.3841 H         1 <0>         0.0553
     36 H5          7.4089    4.9948    0.8904 H         1 <0>         0.0626
     37 H6          7.4593    8.0145   -0.2385 H         1 <0>         0.0909
     38 H7          6.6488    7.5342    1.2730 H         1 <0>         0.0859
     39 H8          3.0723    9.8447    0.3449 H         1 <0>         0.1264
     40 H9          0.9006    8.8864    0.9810 H         1 <0>         0.1267
     41 H10         0.6590    6.4525    1.2671 H         1 <0>         0.1295
     42 H11         2.5972    4.9764    0.9210 H         1 <0>         0.1649
     43 H12         3.2951    4.6921    2.0859 H         1 <0>         0.1552
     44 H13         4.0359    1.9833    0.8572 H         1 <0>         0.1352
     45 H14         1.9240    4.1779    3.0867 H         1 <0>         0.1254
     46 H15         0.0308    3.3966    4.4475 H         1 <0>         0.1269
     47 H16        -0.6089    1.0215    4.4265 H         1 <0>         0.1254
     48 H17         0.6336   -0.5865    3.0403 H         1 <0>         0.1273
     49 H18         2.5287    0.1708    1.6687 H         1 <0>         0.1284
     50 H19         7.0667    7.8042   -3.2982 H         1 <0>         0.1276
     51 H20         6.5692    5.9963   -4.8923 H         1 <0>         0.1298
     52 H21         4.3127    5.0177   -4.9815 H         1 <0>         0.1263
     53 H22         2.5509    5.8358   -3.4703 H         1 <0>         0.1261
     54 H23         3.0415    7.6353   -1.8646 H         1 <0>         0.1288
     55 H24         5.1200    9.5472   -4.0049 H         1 <0>         0.0820
     56 H25         4.8335   11.2597   -3.6132 H         1 <0>         0.0974
     57 H26         6.4934   10.6718   -3.8733 H         1 <0>         0.0976
@<TRIPOS>BOND
     1    1    2 1
     2    1   34 1
     3    1   35 1
     4    1   36 1
     5    2    3 1
     6    2   13 1
     7    2    4 1
     8    4    5 1
     9    4   37 1
    10    4   38 1
    11    5    6 1
    12    5    7 1
    13    5   24 1
    14    7   12 ar
    15    7    8 ar
    16    8    9 ar
    17    8   39 1
    18    9   10 ar
    19    9   40 1
    20   10   11 ar
    21   10   41 1
    22   11   12 ar
    23   11   42 1
    24   12   13 1
    25   13   14 am
    26   14   15 2
    27   14   16 1
    28   16   17 2
    29   16   43 1
    30   17   18 1
    31   17   44 1
    32   18   23 ar
    33   18   19 ar
    34   19   20 ar
    35   19   45 1
    36   20   21 ar
    37   20   46 1
    38   21   22 ar
    39   21   47 1
    40   22   23 ar
    41   22   48 1
    42   23   49 1
    43   24   25 1
    44   24   31 am
    45   25   30 ar
    46   25   26 ar
    47   26   27 ar
    48   26   50 1
    49   27   28 ar
    50   27   51 1
    51   28   29 ar
    52   28   52 1
    53   29   30 ar
    54   29   53 1
    55   30   54 1
    56   31   32 2
    57   31   33 1
    58   33   55 1
    59   33   56 1
    60   33   57 1
@<TRIPOS>MOLECULE
ZINC04535263
   57    60     0     0     0
SMALL
USER_CHARGES
N-[2-methyl-1-(3-phenylprop-2-enoyl)-3,4-dihydro-2H-quinolin-4-yl]-N-phenyl-acetamide
@<TRIPOS>ATOM
      1 C1         -0.1524    1.8797    0.4239 C.3       1 <0>        -0.1439
      2 C2         -1.1634    1.3169    1.4249 C.3       1 <0>         0.1430
      3 H1         -1.8083    0.5912    0.9294 H         1 <0>         0.0821
      4 C3         -2.0121    2.4569    2.0028 C.3       1 <0>        -0.1509
      5 C4         -3.0581    1.8642    2.9467 C.3       1 <0>         0.1985
      6 H2         -3.7884    1.3010    2.3657 H         1 <0>         0.1006
      7 C5         -2.4065    0.9485    3.9491 C.ar      1 <0>        -0.1190
      8 C6         -3.0771    0.6569    5.1252 C.ar      1 <0>        -0.0778
      9 C7         -2.5090   -0.1853    6.0611 C.ar      1 <0>        -0.1436
     10 C8         -1.2649   -0.7434    5.8291 C.ar      1 <0>        -0.0823
     11 C9         -0.5890   -0.4567    4.6603 C.ar      1 <0>        -0.1921
     12 C10        -1.1584    0.3920    3.7173 C.ar      1 <0>         0.1858
     13 N1         -0.4546    0.6734    2.5395 N.am      1 <0>        -0.5461
     14 C11         0.8513    0.3586    2.4302 C.2       1 <0>         0.5559
     15 O1          1.4142    0.4616    1.3560 O.2       1 <0>        -0.5114
     16 C12         1.5926   -0.1071    3.6033 C.2       1 <0>        -0.2132
     17 C13         2.5947   -0.9974    3.4579 C.2       1 <0>        -0.0359
     18 C14         3.3402   -1.4657    4.6376 C.ar      1 <0>        -0.0749
     19 C15         3.0158   -0.9853    5.9102 C.ar      1 <0>        -0.1043
     20 C16         3.7149   -1.4333    7.0111 C.ar      1 <0>        -0.1196
     21 C17         4.7429   -2.3472    6.8576 C.ar      1 <0>        -0.1083
     22 C18         5.0737   -2.8230    5.6008 C.ar      1 <0>        -0.1213
     23 C19         4.3801   -2.3890    4.4908 C.ar      1 <0>        -0.0947
     24 N2         -3.7376    2.9520    3.6547 N.am      1 <0>        -0.5680
     25 C20        -5.1130    3.1455    3.4849 C.ar      1 <0>         0.1308
     26 C21        -5.9823    2.9293    4.5461 C.ar      1 <0>        -0.1227
     27 C22        -7.3387    3.1272    4.3770 C.ar      1 <0>        -0.1044
     28 C23        -7.8326    3.5288    3.1494 C.ar      1 <0>        -0.1169
     29 C24        -6.9702    3.7390    2.0891 C.ar      1 <0>        -0.1042
     30 C25        -5.6122    3.5488    2.2534 C.ar      1 <0>        -0.1205
     31 C26        -3.0380    3.7662    4.4696 C.2       1 <0>         0.5198
     32 O2         -1.8329    3.6548    4.5494 O.2       1 <0>        -0.5154
     33 C27        -3.7531    4.8152    5.2815 C.3       1 <0>        -0.1764
     34 H3          0.2976    1.0609   -0.1374 H         1 <0>         0.0857
     35 H4          0.6256    2.4234    0.9600 H         1 <0>         0.0632
     36 H5         -0.6600    2.5559   -0.2639 H         1 <0>         0.0572
     37 H6         -1.3720    3.1454    2.5545 H         1 <0>         0.1006
     38 H7         -2.5102    2.9886    1.1921 H         1 <0>         0.0853
     39 H8         -4.0490    1.0896    5.3113 H         1 <0>         0.1210
     40 H9         -3.0372   -0.4082    6.9763 H         1 <0>         0.1240
     41 H10        -0.8229   -1.4026    6.5616 H         1 <0>         0.1282
     42 H11         0.3823   -0.8921    4.4778 H         1 <0>         0.1603
     43 H12         1.3369    0.2623    4.5854 H         1 <0>         0.1499
     44 H13         2.8505   -1.3669    2.4758 H         1 <0>         0.1347
     45 H14         2.2171   -0.2685    6.0309 H         1 <0>         0.1256
     46 H15         3.4627   -1.0666    7.9951 H         1 <0>         0.1264
     47 H16         5.2896   -2.6911    7.7232 H         1 <0>         0.1249
     48 H17         5.8769   -3.5363    5.4891 H         1 <0>         0.1268
     49 H18         4.6392   -2.7615    3.5107 H         1 <0>         0.1281
     50 H19        -5.5977    2.6110    5.5038 H         1 <0>         0.1256
     51 H20        -8.0148    2.9639    5.2032 H         1 <0>         0.1292
     52 H21        -8.8942    3.6783    3.0184 H         1 <0>         0.1271
     53 H22        -7.3590    4.0527    1.1315 H         1 <0>         0.1289
     54 H23        -4.9391    3.7132    1.4248 H         1 <0>         0.1264
     55 H24        -3.9709    4.4206    6.2739 H         1 <0>         0.0955
     56 H25        -3.1204    5.6981    5.3725 H         1 <0>         0.0940
     57 H26        -4.6852    5.0858    4.7855 H         1 <0>         0.0827
@<TRIPOS>BOND
     1    1    2 1
     2    1   34 1
     3    1   35 1
     4    1   36 1
     5    2    3 1
     6    2   13 1
     7    2    4 1
     8    4    5 1
     9    4   37 1
    10    4   38 1
    11    5    6 1
    12    5    7 1
    13    5   24 1
    14    7   12 ar
    15    7    8 ar
    16    8    9 ar
    17    8   39 1
    18    9   10 ar
    19    9   40 1
    20   10   11 ar
    21   10   41 1
    22   11   12 ar
    23   11   42 1
    24   12   13 1
    25   13   14 am
    26   14   15 2
    27   14   16 1
    28   16   17 2
    29   16   43 1
    30   17   18 1
    31   17   44 1
    32   18   23 ar
    33   18   19 ar
    34   19   20 ar
    35   19   45 1
    36   20   21 ar
    37   20   46 1
    38   21   22 ar
    39   21   47 1
    40   22   23 ar
    41   22   48 1
    42   23   49 1
    43   24   25 1
    44   24   31 am
    45   25   30 ar
    46   25   26 ar
    47   26   27 ar
    48   26   50 1
    49   27   28 ar
    50   27   51 1
    51   28   29 ar
    52   28   52 1
    53   29   30 ar
    54   29   53 1
    55   30   54 1
    56   31   32 2
    57   31   33 1
    58   33   55 1
    59   33   56 1
    60   33   57 1
@<TRIPOS>MOLECULE
ZINC04535268
   57    60     0     0     0
SMALL
USER_CHARGES
N-[2-methyl-1-(3-phenylprop-2-enoyl)-3,4-dihydro-2H-quinolin-4-yl]-N-phenyl-acetamide
@<TRIPOS>ATOM
      1 C1          0.3564    0.6074    1.8837 C.3       1 <0>        -0.1528
      2 C2         -0.6656    1.3358    1.0087 C.3       1 <0>         0.1461
      3 H1         -0.7439    2.3773    1.3205 H         1 <0>         0.0828
      4 C3         -0.2349    1.2647   -0.4622 C.3       1 <0>        -0.1496
      5 C4         -1.2295    2.0578   -1.3098 C.3       1 <0>         0.1984
      6 H2         -1.1268    3.1195   -1.0856 H         1 <0>         0.1008
      7 C5         -2.6401    1.6220   -1.0131 C.ar      1 <0>        -0.1183
      8 C6         -3.6321    1.8839   -1.9435 C.ar      1 <0>        -0.0756
      9 C7         -4.9360    1.4993   -1.6991 C.ar      1 <0>        -0.1448
     10 C8         -5.2598    0.8492   -0.5220 C.ar      1 <0>        -0.0832
     11 C9         -4.2771    0.5836    0.4102 C.ar      1 <0>        -0.1889
     12 C10        -2.9634    0.9685    0.1656 C.ar      1 <0>         0.1890
     13 N1         -1.9798    0.6824    1.1208 N.am      1 <0>        -0.5521
     14 C11        -2.2316   -0.1785    2.1267 C.2       1 <0>         0.5590
     15 O1         -1.5210   -0.1844    3.1149 O.2       1 <0>        -0.5139
     16 C12        -3.3598   -1.1063    2.0309 C.2       1 <0>        -0.2364
     17 C13        -3.7228   -1.8393    3.1028 C.2       1 <0>        -0.0158
     18 C14        -4.8572   -2.7723    3.0064 C.ar      1 <0>        -0.0795
     19 C15        -5.5645   -2.8971    1.8066 C.ar      1 <0>        -0.1006
     20 C16        -6.6224   -3.7775    1.7225 C.ar      1 <0>        -0.1210
     21 C17        -6.9920   -4.5282    2.8250 C.ar      1 <0>        -0.1064
     22 C18        -6.3005   -4.4061    4.0177 C.ar      1 <0>        -0.1225
     23 C19        -5.2367   -3.5342    4.1159 C.ar      1 <0>        -0.0929
     24 N2         -0.9424    1.8332   -2.7287 N.am      1 <0>        -0.5677
     25 C20        -0.6354    2.9159   -3.5603 C.ar      1 <0>         0.1320
     26 C21         0.5411    3.6285   -3.3691 C.ar      1 <0>        -0.1208
     27 C22         0.8442    4.6928   -4.1955 C.ar      1 <0>        -0.1039
     28 C23        -0.0282    5.0565   -5.2049 C.ar      1 <0>        -0.1170
     29 C24        -1.2035    4.3528   -5.3940 C.ar      1 <0>        -0.1040
     30 C25        -1.5094    3.2837   -4.5749 C.ar      1 <0>        -0.1239
     31 C26        -0.9739    0.5838   -3.2331 C.2       1 <0>         0.5189
     32 O2         -1.3311   -0.3426   -2.5365 O.2       1 <0>        -0.5147
     33 C27        -0.5654    0.3379   -4.6627 C.3       1 <0>        -0.1791
     34 H3          1.3584    0.9653    1.6467 H         1 <0>         0.0622
     35 H4          0.1400    0.8023    2.9341 H         1 <0>         0.0919
     36 H5          0.2991   -0.4644    1.6937 H         1 <0>         0.0591
     37 H6         -0.2236    0.2251   -0.7896 H         1 <0>         0.0974
     38 H7          0.7614    1.6930   -0.5721 H         1 <0>         0.0857
     39 H8         -3.3849    2.3910   -2.8644 H         1 <0>         0.1207
     40 H9         -5.7046    1.7063   -2.4291 H         1 <0>         0.1235
     41 H10        -6.2799    0.5494   -0.3327 H         1 <0>         0.1281
     42 H11        -4.5286    0.0762    1.3298 H         1 <0>         0.1533
     43 H12        -3.9014   -1.2038    1.1016 H         1 <0>         0.1535
     44 H13        -3.1812   -1.7418    4.0321 H         1 <0>         0.1368
     45 H14        -5.2804   -2.3084    0.9468 H         1 <0>         0.1263
     46 H15        -7.1669   -3.8783    0.7953 H         1 <0>         0.1267
     47 H16        -7.8241   -5.2130    2.7542 H         1 <0>         0.1253
     48 H17        -6.5950   -4.9950    4.8738 H         1 <0>         0.1272
     49 H18        -4.6978   -3.4403    5.0471 H         1 <0>         0.1286
     50 H19         1.2206    3.3479   -2.5779 H         1 <0>         0.1267
     51 H20         1.7613    5.2443   -4.0504 H         1 <0>         0.1289
     52 H21         0.2091    5.8917   -5.8472 H         1 <0>         0.1272
     53 H22        -1.8828    4.6394   -6.1832 H         1 <0>         0.1294
     54 H23        -2.4271    2.7341   -4.7235 H         1 <0>         0.1259
     55 H24        -0.3561    1.2903   -5.1498 H         1 <0>         0.0821
     56 H25         0.3289   -0.2849   -4.6830 H         1 <0>         0.0960
     57 H26        -1.3736   -0.1696   -5.1894 H         1 <0>         0.0958
@<TRIPOS>BOND
     1    1    2 1
     2    1   34 1
     3    1   35 1
     4    1   36 1
     5    2    3 1
     6    2   13 1
     7    2    4 1
     8    4    5 1
     9    4   37 1
    10    4   38 1
    11    5    6 1
    12    5    7 1
    13    5   24 1
    14    7   12 ar
    15    7    8 ar
    16    8    9 ar
    17    8   39 1
    18    9   10 ar
    19    9   40 1
    20   10   11 ar
    21   10   41 1
    22   11   12 ar
    23   11   42 1
    24   12   13 1
    25   13   14 am
    26   14   15 2
    27   14   16 1
    28   16   17 2
    29   16   43 1
    30   17   18 1
    31   17   44 1
    32   18   23 ar
    33   18   19 ar
    34   19   20 ar
    35   19   45 1
    36   20   21 ar
    37   20   46 1
    38   21   22 ar
    39   21   47 1
    40   22   23 ar
    41   22   48 1
    42   23   49 1
    43   24   25 1
    44   24   31 am
    45   25   30 ar
    46   25   26 ar
    47   26   27 ar
    48   26   50 1
    49   27   28 ar
    50   27   51 1
    51   28   29 ar
    52   28   52 1
    53   29   30 ar
    54   29   53 1
    55   30   54 1
    56   31   32 2
    57   31   33 1
    58   33   55 1
    59   33   56 1
    60   33   57 1
@<TRIPOS>MOLECULE
ZINC14607246
   61    65     0     0     0
SMALL
USER_CHARGES

@<TRIPOS>ATOM
      1 C1         -0.8540    1.1704    0.0314 C.3       1 <0>        -0.1478
      2 C2          0.1215    0.0869   -0.4328 C.3       1 <0>         0.1208
      3 H1          0.6976    0.4492   -1.2842 H         1 <0>         0.1070
      4 C3         -0.6547   -1.1755   -0.8301 C.3       1 <0>        -0.1448
      5 C4          0.3325   -2.2175   -1.3554 C.3       1 <0>         0.1878
      6 H2         -0.1871   -3.1647   -1.5000 H         1 <0>         0.1248
      7 C5          1.4615   -2.4140   -0.3783 C.ar      1 <0>        -0.1305
      8 C6          2.2056   -3.5805   -0.4398 C.ar      1 <0>        -0.0808
      9 C7          3.2491   -3.7888    0.4408 C.ar      1 <0>        -0.1412
     10 C8          3.5580   -2.8324    1.3909 C.ar      1 <0>        -0.0798
     11 C9          2.8208   -1.6674    1.4596 C.ar      1 <0>        -0.1906
     12 C10         1.7692   -1.4561    0.5748 C.ar      1 <0>         0.1814
     13 N1          1.0288   -0.2698    0.6664 N.am      1 <0>        -0.5443
     14 C11         1.1459    0.5298    1.7450 C.2       1 <0>         0.5676
     15 O1          0.6334    1.6321    1.7429 O.2       1 <0>        -0.4992
     16 C12         1.8973    0.0664    2.9305 C.ar      1 <0>        -0.1524
     17 C13         1.7530   -1.2463    3.3829 C.ar      1 <0>        -0.0538
     18 C14         2.4576   -1.6725    4.4897 C.ar      1 <0>        -0.1384
     19 C15         3.3059   -0.8021    5.1510 C.ar      1 <0>        -0.0863
     20 C16         3.4532    0.5004    4.7080 C.ar      1 <0>        -0.1318
     21 C17         2.7588    0.9378    3.5991 C.ar      1 <0>        -0.0649
     22 N2          0.8772   -1.7642   -2.6377 N.pl3     1 <0>        -0.9407
     23 C18         1.6951   -0.6331   -2.6883 C.ar      1 <0>         0.1498
     24 C19         2.9364   -0.6432   -2.0649 C.ar      1 <0>        -0.1074
     25 C20         3.7428    0.4767   -2.1174 C.ar      1 <0>        -0.1023
     26 C21         3.3156    1.6074   -2.7892 C.ar      1 <0>        -0.1154
     27 C22         2.0804    1.6208   -3.4108 C.ar      1 <0>        -0.1012
     28 C23         1.2715    0.5024   -3.3671 C.ar      1 <0>        -0.1421
     29 S1          0.5231   -2.5929   -4.0270 S.o2      1 <0>         2.6808
     30 O2          1.6073   -2.3726   -4.9188 O.2       1 <0>        -0.9373
     31 O3          0.1155   -3.8952   -3.6304 O.2       1 <0>        -0.9469
     32 C24        -0.8872   -1.8217   -4.7486 C.ar      1 <0>        -0.6786
     33 C25        -2.1576   -2.2472   -4.4081 C.ar      1 <0>        -0.0202
     34 C26        -3.2641   -1.6421   -4.9743 C.ar      1 <0>        -0.1375
     35 C27        -3.1001   -0.6112   -5.8805 C.ar      1 <0>        -0.0598
     36 C28        -1.8297   -0.1851   -6.2203 C.ar      1 <0>        -0.1372
     37 C29        -0.7234   -0.7873   -5.6509 C.ar      1 <0>        -0.0221
     38 H3         -0.3206    2.1139    0.1474 H         1 <0>         0.0878
     39 H4         -1.6448    1.2888   -0.7093 H         1 <0>         0.0563
     40 H5         -1.2914    0.8804    0.9867 H         1 <0>         0.0588
     41 H6         -1.1761   -1.5728    0.0408 H         1 <0>         0.0891
     42 H7         -1.3762   -0.9304   -1.6095 H         1 <0>         0.0916
     43 H8          1.9686   -4.3309   -1.1795 H         1 <0>         0.1300
     44 H9          3.8251   -4.7009    0.3875 H         1 <0>         0.1270
     45 H10         4.3746   -2.9969    2.0783 H         1 <0>         0.1277
     46 H11         3.0611   -0.9196    2.2009 H         1 <0>         0.1681
     47 H12         1.0909   -1.9265    2.8679 H         1 <0>         0.1299
     48 H13         2.3466   -2.6877    4.8410 H         1 <0>         0.1312
     49 H14         3.8552   -1.1408    6.0170 H         1 <0>         0.1292
     50 H15         4.1164    1.1749    5.2291 H         1 <0>         0.1317
     51 H16         2.8783    1.9533    3.2515 H         1 <0>         0.1324
     52 H17         3.2704   -1.5257   -1.5395 H         1 <0>         0.1318
     53 H18         4.7080    0.4696   -1.6329 H         1 <0>         0.1265
     54 H19         3.9479    2.4821   -2.8280 H         1 <0>         0.1265
     55 H20         1.7498    2.5055   -3.9346 H         1 <0>         0.1295
     56 H21         0.3088    0.5119   -3.8567 H         1 <0>         0.1262
     57 H22        -2.2857   -3.0526   -3.7001 H         1 <0>         0.1399
     58 H23        -4.2566   -1.9750   -4.7088 H         1 <0>         0.1350
     59 H24        -3.9646   -0.1389   -6.3233 H         1 <0>         0.1331
     60 H25        -1.7017    0.6201   -6.9286 H         1 <0>         0.1353
     61 H26         0.2691   -0.4519   -5.9135 H         1 <0>         0.1409
@<TRIPOS>BOND
     1    1    2 1
     2    1   38 1
     3    1   39 1
     4    1   40 1
     5    2    3 1
     6    2   13 1
     7    2    4 1
     8    4    5 1
     9    4   41 1
    10    4   42 1
    11    5    6 1
    12    5    7 1
    13    5   22 1
    14    7   12 ar
    15    7    8 ar
    16    8    9 ar
    17    8   43 1
    18    9   10 ar
    19    9   44 1
    20   10   11 ar
    21   10   45 1
    22   11   12 ar
    23   11   46 1
    24   12   13 1
    25   13   14 am
    26   14   15 2
    27   14   16 1
    28   16   21 ar
    29   16   17 ar
    30   17   18 ar
    31   17   47 1
    32   18   19 ar
    33   18   48 1
    34   19   20 ar
    35   19   49 1
    36   20   21 ar
    37   20   50 1
    38   21   51 1
    39   22   23 1
    40   22   29 1
    41   23   28 ar
    42   23   24 ar
    43   24   25 ar
    44   24   52 1
    45   25   26 ar
    46   25   53 1
    47   26   27 ar
    48   26   54 1
    49   27   28 ar
    50   27   55 1
    51   28   56 1
    52   29   30 2
    53   29   31 2
    54   29   32 1
    55   32   37 ar
    56   32   33 ar
    57   33   34 ar
    58   33   57 1
    59   34   35 ar
    60   34   58 1
    61   35   36 ar
    62   35   59 1
    63   36   37 ar
    64   36   60 1
    65   37   61 1
@<TRIPOS>MOLECULE
ZINC14607247
   61    65     0     0     0
SMALL
USER_CHARGES

@<TRIPOS>ATOM
      1 C1          0.2916    0.9747   -0.5728 C.3       1 <0>        -0.1468
      2 C2         -0.7193    0.0601    0.1217 C.3       1 <0>         0.1414
      3 H1         -1.6987    0.5382    0.1387 H         1 <0>         0.0876
      4 C3         -0.8071   -1.2781   -0.6237 C.3       1 <0>        -0.1396
      5 C4         -1.8717   -2.1472    0.0454 C.3       1 <0>         0.1957
      6 H2         -2.8554   -1.7133   -0.1342 H         1 <0>         0.1152
      7 C5         -1.6284   -2.2302    1.5292 C.ar      1 <0>        -0.1267
      8 C6         -2.1871   -3.2779    2.2423 C.ar      1 <0>        -0.0767
      9 C7         -1.9846   -3.3799    3.6048 C.ar      1 <0>        -0.1376
     10 C8         -1.2222   -2.4346    4.2667 C.ar      1 <0>        -0.0819
     11 C9         -0.6611   -1.3879    3.5634 C.ar      1 <0>        -0.1810
     12 C10        -0.8620   -1.2842    2.1914 C.ar      1 <0>         0.1720
     13 N1         -0.2773   -0.2179    1.4951 N.am      1 <0>        -0.5507
     14 C11         0.6752    0.5391    2.0747 C.2       1 <0>         0.5688
     15 O1          1.0365    1.5720    1.5451 O.2       1 <0>        -0.4993
     16 C12         1.2806    0.1135    3.3542 C.ar      1 <0>        -0.1491
     17 C13         1.6150   -1.2260    3.5603 C.ar      1 <0>        -0.0579
     18 C14         2.1802   -1.6164    4.7566 C.ar      1 <0>        -0.1348
     19 C15         2.4157   -0.6836    5.7511 C.ar      1 <0>        -0.0875
     20 C16         2.0862    0.6456    5.5535 C.ar      1 <0>        -0.1300
     21 C17         1.5258    1.0503    4.3596 C.ar      1 <0>        -0.0666
     22 N2         -1.8259   -3.4948   -0.5275 N.pl3     1 <0>        -0.9410
     23 C18        -0.6051   -4.1636   -0.6425 C.ar      1 <0>         0.1465
     24 C19         0.0750   -4.5717    0.4979 C.ar      1 <0>        -0.1099
     25 C20         1.2816   -5.2333    0.3807 C.ar      1 <0>        -0.1062
     26 C21         1.8130   -5.4892   -0.8701 C.ar      1 <0>        -0.1146
     27 C22         1.1385   -5.0843   -2.0074 C.ar      1 <0>        -0.1033
     28 C23        -0.0713   -4.4274   -1.8975 C.ar      1 <0>        -0.1322
     29 S1         -3.2215   -4.2249   -1.0389 S.o2      1 <0>         2.6765
     30 O2         -3.0001   -5.6262   -0.9575 O.2       1 <0>        -0.9373
     31 O3         -4.2897   -3.5816   -0.3575 O.2       1 <0>        -0.9435
     32 C24        -3.4126   -3.8438   -2.7486 C.ar      1 <0>        -0.6786
     33 C25        -4.1026   -2.7086   -3.1307 C.ar      1 <0>        -0.0205
     34 C26        -4.2525   -2.4096   -4.4720 C.ar      1 <0>        -0.1372
     35 C27        -3.7121   -3.2456   -5.4311 C.ar      1 <0>        -0.0598
     36 C28        -3.0214   -4.3804   -5.0489 C.ar      1 <0>        -0.1375
     37 C29        -2.8677   -4.6771   -3.7076 C.ar      1 <0>        -0.0219
     38 H3          1.3007    0.6045   -0.3920 H         1 <0>         0.0618
     39 H4          0.0952    0.9855   -1.6449 H         1 <0>         0.0605
     40 H5          0.1991    1.9858   -0.1763 H         1 <0>         0.0877
     41 H6         -1.0819   -1.0996   -1.6633 H         1 <0>         0.0938
     42 H7          0.1573   -1.7841   -0.5807 H         1 <0>         0.0880
     43 H8         -2.7842   -4.0183    1.7308 H         1 <0>         0.1140
     44 H9         -2.4228   -4.1997    4.1547 H         1 <0>         0.1278
     45 H10        -1.0659   -2.5155    5.3322 H         1 <0>         0.1290
     46 H11        -0.0658   -0.6489    4.0790 H         1 <0>         0.1643
     47 H12         1.4313   -1.9551    2.7850 H         1 <0>         0.1291
     48 H13         2.4390   -2.6525    4.9175 H         1 <0>         0.1310
     49 H14         2.8584   -0.9945    6.6858 H         1 <0>         0.1293
     50 H15         2.2720    1.3685    6.3340 H         1 <0>         0.1321
     51 H16         1.2735    2.0890    4.2048 H         1 <0>         0.1331
     52 H17        -0.3391   -4.3716    1.4751 H         1 <0>         0.1329
     53 H18         1.8110   -5.5509    1.2669 H         1 <0>         0.1275
     54 H19         2.7571   -6.0061   -0.9589 H         1 <0>         0.1264
     55 H20         1.5563   -5.2857   -2.9827 H         1 <0>         0.1284
     56 H21        -0.5998   -4.1154   -2.7862 H         1 <0>         0.1244
     57 H22        -4.5248   -2.0554   -2.3814 H         1 <0>         0.1397
     58 H23        -4.7922   -1.5230   -4.7705 H         1 <0>         0.1355
     59 H24        -3.8299   -3.0124   -6.4790 H         1 <0>         0.1335
     60 H25        -2.5994   -5.0337   -5.7983 H         1 <0>         0.1355
     61 H26        -2.3249   -5.5617   -3.4089 H         1 <0>         0.1406
@<TRIPOS>BOND
     1    1    2 1
     2    1   38 1
     3    1   39 1
     4    1   40 1
     5    2    3 1
     6    2   13 1
     7    2    4 1
     8    4    5 1
     9    4   41 1
    10    4   42 1
    11    5    6 1
    12    5    7 1
    13    5   22 1
    14    7   12 ar
    15    7    8 ar
    16    8    9 ar
    17    8   43 1
    18    9   10 ar
    19    9   44 1
    20   10   11 ar
    21   10   45 1
    22   11   12 ar
    23   11   46 1
    24   12   13 1
    25   13   14 am
    26   14   15 2
    27   14   16 1
    28   16   21 ar
    29   16   17 ar
    30   17   18 ar
    31   17   47 1
    32   18   19 ar
    33   18   48 1
    34   19   20 ar
    35   19   49 1
    36   20   21 ar
    37   20   50 1
    38   21   51 1
    39   22   23 1
    40   22   29 1
    41   23   28 ar
    42   23   24 ar
    43   24   25 ar
    44   24   52 1
    45   25   26 ar
    46   25   53 1
    47   26   27 ar
    48   26   54 1
    49   27   28 ar
    50   27   55 1
    51   28   56 1
    52   29   30 2
    53   29   31 2
    54   29   32 1
    55   32   37 ar
    56   32   33 ar
    57   33   34 ar
    58   33   57 1
    59   34   35 ar
    60   34   58 1
    61   35   36 ar
    62   35   59 1
    63   36   37 ar
    64   36   60 1
    65   37   61 1
@<TRIPOS>MOLECULE
ZINC14607248
   61    65     0     0     0
SMALL
USER_CHARGES

@<TRIPOS>ATOM
      1 C1         -1.0846    1.1306    0.1160 C.3       1 <0>        -0.1477
      2 C2         -0.0489    0.1420   -0.4230 C.3       1 <0>         0.1411
      3 H1          0.4300    0.5563   -1.3103 H         1 <0>         0.0891
      4 C3         -0.7317   -1.1865   -0.7736 C.3       1 <0>        -0.1375
      5 C4          0.3077   -2.1327   -1.3742 C.3       1 <0>         0.1889
      6 H2          0.6114   -1.7594   -2.3522 H         1 <0>         0.1232
      7 C5          1.5160   -2.2246   -0.4801 C.ar      1 <0>        -0.1310
      8 C6          2.3582   -3.3175   -0.6019 C.ar      1 <0>        -0.0939
      9 C7          3.4760   -3.4290    0.2018 C.ar      1 <0>        -0.1371
     10 C8          3.7623   -2.4481    1.1338 C.ar      1 <0>        -0.0832
     11 C9          2.9278   -1.3562    1.2623 C.ar      1 <0>        -0.1839
     12 C10         1.8008   -1.2428    0.4556 C.ar      1 <0>         0.1734
     13 N1          0.9628   -0.1300    0.6072 N.am      1 <0>        -0.5503
     14 C11         1.0816    0.6765    1.6805 C.2       1 <0>         0.5683
     15 O1          0.4708    1.7268    1.7221 O.2       1 <0>        -0.4975
     16 C12         1.9545    0.2841    2.8069 C.ar      1 <0>        -0.1528
     17 C13         1.9639   -1.0364    3.2594 C.ar      1 <0>        -0.0542
     18 C14         2.7814   -1.3962    4.3108 C.ar      1 <0>        -0.1384
     19 C15         3.5907   -0.4514    4.9166 C.ar      1 <0>        -0.0860
     20 C16         3.5858    0.8592    4.4732 C.ar      1 <0>        -0.1313
     21 C17         2.7774    1.2310    3.4190 C.ar      1 <0>        -0.0645
     22 N2         -0.2823   -3.4649   -1.5270 N.pl3     1 <0>        -0.9358
     23 C18        -0.8739   -4.0967   -0.4308 C.ar      1 <0>         0.1310
     24 C19        -0.1372   -4.3188    0.7258 C.ar      1 <0>        -0.1219
     25 C20        -0.7253   -4.9433    1.8080 C.ar      1 <0>        -0.1137
     26 C21        -2.0460   -5.3478    1.7412 C.ar      1 <0>        -0.1148
     27 C22        -2.7823   -5.1282    0.5914 C.ar      1 <0>        -0.1078
     28 C23        -2.2020   -4.4991   -0.4925 C.ar      1 <0>        -0.1075
     29 S1         -0.2478   -4.2218   -2.9995 S.o2      1 <0>         2.6774
     30 O2         -1.3850   -5.0727   -3.0455 O.2       1 <0>        -0.9388
     31 O3         -0.0130   -3.2110   -3.9703 O.2       1 <0>        -0.9459
     32 C24         1.1674   -5.2713   -3.0128 C.ar      1 <0>        -0.6814
     33 C25         2.3833   -4.7866   -3.4572 C.ar      1 <0>        -0.0205
     34 C26         3.4936   -5.6100   -3.4676 C.ar      1 <0>        -0.1375
     35 C27         3.3881   -6.9181   -3.0332 C.ar      1 <0>        -0.0583
     36 C28         2.1724   -7.4026   -2.5880 C.ar      1 <0>        -0.1377
     37 C29         1.0631   -6.5779   -2.5735 C.ar      1 <0>        -0.0133
     38 H3         -0.6386    2.1228    0.1847 H         1 <0>         0.0888
     39 H4         -1.9410    1.1631   -0.5576 H         1 <0>         0.0618
     40 H5         -1.4123    0.8104    1.1051 H         1 <0>         0.0616
     41 H6         -1.1515   -1.6306    0.1290 H         1 <0>         0.0870
     42 H7         -1.5259   -1.0087   -1.4987 H         1 <0>         0.0962
     43 H8          2.1396   -4.0862   -1.3283 H         1 <0>         0.1266
     44 H9          4.1282   -4.2840    0.1018 H         1 <0>         0.1241
     45 H10         4.6374   -2.5366    1.7605 H         1 <0>         0.1279
     46 H11         3.1503   -0.5894    1.9895 H         1 <0>         0.1688
     47 H12         1.3324   -1.7747    2.7877 H         1 <0>         0.1297
     48 H13         2.7894   -2.4174    4.6622 H         1 <0>         0.1309
     49 H14         4.2288   -0.7383    5.7393 H         1 <0>         0.1294
     50 H15         4.2194    1.5919    4.9509 H         1 <0>         0.1323
     51 H16         2.7781    2.2533    3.0708 H         1 <0>         0.1335
     52 H17         0.8945   -4.0037    0.7784 H         1 <0>         0.1371
     53 H18        -0.1531   -5.1163    2.7075 H         1 <0>         0.1242
     54 H19        -2.5033   -5.8366    2.5887 H         1 <0>         0.1245
     55 H20        -3.8135   -5.4454    0.5425 H         1 <0>         0.1289
     56 H21        -2.7789   -4.3239   -1.3885 H         1 <0>         0.1361
     57 H22         2.4657   -3.7646   -3.7966 H         1 <0>         0.1396
     58 H23         4.4433   -5.2314   -3.8155 H         1 <0>         0.1353
     59 H24         4.2553   -7.5616   -3.0421 H         1 <0>         0.1330
     60 H25         2.0899   -8.4246   -2.2489 H         1 <0>         0.1347
     61 H26         0.1141   -6.9553   -2.2222 H         1 <0>         0.1399
@<TRIPOS>BOND
     1    1    2 1
     2    1   38 1
     3    1   39 1
     4    1   40 1
     5    2    3 1
     6    2   13 1
     7    2    4 1
     8    4    5 1
     9    4   41 1
    10    4   42 1
    11    5    6 1
    12    5    7 1
    13    5   22 1
    14    7   12 ar
    15    7    8 ar
    16    8    9 ar
    17    8   43 1
    18    9   10 ar
    19    9   44 1
    20   10   11 ar
    21   10   45 1
    22   11   12 ar
    23   11   46 1
    24   12   13 1
    25   13   14 am
    26   14   15 2
    27   14   16 1
    28   16   21 ar
    29   16   17 ar
    30   17   18 ar
    31   17   47 1
    32   18   19 ar
    33   18   48 1
    34   19   20 ar
    35   19   49 1
    36   20   21 ar
    37   20   50 1
    38   21   51 1
    39   22   23 1
    40   22   29 1
    41   23   28 ar
    42   23   24 ar
    43   24   25 ar
    44   24   52 1
    45   25   26 ar
    46   25   53 1
    47   26   27 ar
    48   26   54 1
    49   27   28 ar
    50   27   55 1
    51   28   56 1
    52   29   30 2
    53   29   31 2
    54   29   32 1
    55   32   37 ar
    56   32   33 ar
    57   33   34 ar
    58   33   57 1
    59   34   35 ar
    60   34   58 1
    61   35   36 ar
    62   35   59 1
    63   36   37 ar
    64   36   60 1
    65   37   61 1
@<TRIPOS>MOLECULE
ZINC14607249
   61    65     0     0     0
SMALL
USER_CHARGES

@<TRIPOS>ATOM
      1 C1         -1.5397    2.8987   -0.4256 C.3       1 <0>        -0.1709
      2 C2         -1.3412    1.5756   -1.1678 C.3       1 <0>         0.0967
      3 H1         -2.1894    1.3916   -1.8273 H         1 <0>         0.1361
      4 C3         -0.0465    1.6297   -1.9893 C.3       1 <0>        -0.1442
      5 C4          1.1177    1.9591   -1.0551 C.3       1 <0>         0.1908
      6 H2          1.0184    2.9865   -0.7050 H         1 <0>         0.1241
      7 C5          1.1229    1.0288    0.1291 C.ar      1 <0>        -0.1287
      8 C6          2.2957    0.8650    0.8475 C.ar      1 <0>        -0.0962
      9 C7          2.3316    0.0210    1.9403 C.ar      1 <0>        -0.1382
     10 C8          1.1947   -0.6662    2.3251 C.ar      1 <0>        -0.0933
     11 C9          0.0221   -0.5094    1.6142 C.ar      1 <0>        -0.1601
     12 C10        -0.0159    0.3383    0.5125 C.ar      1 <0>         0.1721
     13 N1         -1.2151    0.4766   -0.2008 N.am      1 <0>        -0.5417
     14 C11        -2.2341   -0.3833   -0.0044 C.2       1 <0>         0.5655
     15 O1         -2.1678   -1.2119    0.8827 O.2       1 <0>        -0.5067
     16 C12        -3.4323   -0.3190   -0.8676 C.ar      1 <0>        -0.1329
     17 C13        -3.3089    0.0311   -2.2132 C.ar      1 <0>        -0.1019
     18 C14        -4.4311    0.0888   -3.0134 C.ar      1 <0>        -0.1227
     19 C15        -5.6769   -0.1995   -2.4850 C.ar      1 <0>        -0.0915
     20 C16        -5.8063   -0.5468   -1.1519 C.ar      1 <0>        -0.1219
     21 C17        -4.6915   -0.6139   -0.3421 C.ar      1 <0>        -0.0604
     22 N2          2.3793    1.8172   -1.7861 N.pl3     1 <0>        -0.9422
     23 C18         2.6809    0.6160   -2.4321 C.ar      1 <0>         0.1355
     24 C19         3.5103   -0.3147   -1.8195 C.ar      1 <0>        -0.1130
     25 C20         3.8060   -1.5015   -2.4608 C.ar      1 <0>        -0.1097
     26 C21         3.2779   -1.7636   -3.7116 C.ar      1 <0>        -0.1084
     27 C22         2.4518   -0.8392   -4.3244 C.ar      1 <0>        -0.1114
     28 C23         2.1474    0.3471   -3.6862 C.ar      1 <0>        -0.1014
     29 S1          3.4479    3.0808   -1.8466 S.o2      1 <0>         2.6795
     30 O2          4.1139    2.9899   -3.0986 O.2       1 <0>        -0.9384
     31 O3          2.7289    4.2401   -1.4486 O.2       1 <0>        -0.9474
     32 C24         4.6658    2.7930   -0.6062 C.ar      1 <0>        -0.6824
     33 C25         4.4751    3.2762    0.6748 C.ar      1 <0>        -0.0193
     34 C26         5.4306    3.0504    1.6480 C.ar      1 <0>        -0.1371
     35 C27         6.5765    2.3411    1.3402 C.ar      1 <0>        -0.0583
     36 C28         6.7667    1.8572    0.0593 C.ar      1 <0>        -0.1378
     37 C29         5.8092    2.0793   -0.9127 C.ar      1 <0>        -0.0161
     38 H3         -0.6890    3.0775    0.2321 H         1 <0>         0.0663
     39 H4         -1.6183    3.7118   -1.1471 H         1 <0>         0.0807
     40 H5         -2.4531    2.8493    0.1672 H         1 <0>         0.0656
     41 H6          0.1268    0.6630   -2.4620 H         1 <0>         0.0901
     42 H7         -0.1310    2.4021   -2.7537 H         1 <0>         0.0964
     43 H8          3.1864    1.3995    0.5517 H         1 <0>         0.1212
     44 H9          3.2496   -0.1023    2.4958 H         1 <0>         0.1200
     45 H10         1.2245   -1.3248    3.1805 H         1 <0>         0.1251
     46 H11        -0.8665   -1.0452    1.9137 H         1 <0>         0.1783
     47 H12        -2.3371    0.2567   -2.6268 H         1 <0>         0.1408
     48 H13        -4.3371    0.3600   -4.0546 H         1 <0>         0.1326
     49 H14        -6.5523   -0.1529   -3.1158 H         1 <0>         0.1302
     50 H15        -6.7817   -0.7700   -0.7455 H         1 <0>         0.1328
     51 H16        -4.7932   -0.8898    0.6971 H         1 <0>         0.1343
     52 H17         3.9237   -0.1103   -0.8429 H         1 <0>         0.1262
     53 H18         4.4508   -2.2256   -1.9850 H         1 <0>         0.1272
     54 H19         3.5113   -2.6922   -4.2112 H         1 <0>         0.1263
     55 H20         2.0410   -1.0471   -5.3013 H         1 <0>         0.1289
     56 H21         1.4986    1.0666   -4.1634 H         1 <0>         0.1282
     57 H22         3.5799    3.8304    0.9153 H         1 <0>         0.1396
     58 H23         5.2820    3.4285    2.6486 H         1 <0>         0.1352
     59 H24         7.3233    2.1653    2.1003 H         1 <0>         0.1330
     60 H25         7.6621    1.3033   -0.1812 H         1 <0>         0.1349
     61 H26         5.9561    1.6980   -1.9124 H         1 <0>         0.1399
@<TRIPOS>BOND
     1    1    2 1
     2    1   38 1
     3    1   39 1
     4    1   40 1
     5    2    3 1
     6    2   13 1
     7    2    4 1
     8    4    5 1
     9    4   41 1
    10    4   42 1
    11    5    6 1
    12    5    7 1
    13    5   22 1
    14    7   12 ar
    15    7    8 ar
    16    8    9 ar
    17    8   43 1
    18    9   10 ar
    19    9   44 1
    20   10   11 ar
    21   10   45 1
    22   11   12 ar
    23   11   46 1
    24   12   13 1
    25   13   14 am
    26   14   15 2
    27   14   16 1
    28   16   21 ar
    29   16   17 ar
    30   17   18 ar
    31   17   47 1
    32   18   19 ar
    33   18   48 1
    34   19   20 ar
    35   19   49 1
    36   20   21 ar
    37   20   50 1
    38   21   51 1
    39   22   23 1
    40   22   29 1
    41   23   28 ar
    42   23   24 ar
    43   24   25 ar
    44   24   52 1
    45   25   26 ar
    46   25   53 1
    47   26   27 ar
    48   26   54 1
    49   27   28 ar
    50   27   55 1
    51   28   56 1
    52   29   30 2
    53   29   31 2
    54   29   32 1
    55   32   37 ar
    56   32   33 ar
    57   33   34 ar
    58   33   57 1
    59   34   35 ar
    60   34   58 1
    61   35   36 ar
    62   35   59 1
    63   36   37 ar
    64   36   60 1
    65   37   61 1
@<TRIPOS>MOLECULE
ZINC02270590
   60    64     0     0     0
SMALL
USER_CHARGES
N-(1-benzoyl-2-methyl-3,4-dihydro-2H-quinolin-4-yl)-N-phenyl-benzamide
@<TRIPOS>ATOM
      1 C1         -3.4875   -0.0530    1.5598 C.3       1 <0>        -0.1491
      2 C2         -4.4187    0.9761    0.9159 C.3       1 <0>         0.1457
      3 H1         -4.7945    0.5926   -0.0327 H         1 <0>         0.0844
      4 C3         -5.5929    1.2753    1.8572 C.3       1 <0>        -0.1474
      5 C4         -6.5450    2.2502    1.1649 C.3       1 <0>         0.1989
      6 H2         -7.0352    1.7446    0.3329 H         1 <0>         0.1038
      7 C5         -5.7903    3.4452    0.6451 C.ar      1 <0>        -0.1162
      8 C6         -6.4856    4.6133    0.3797 C.ar      1 <0>        -0.0833
      9 C7         -5.8230    5.7283   -0.0858 C.ar      1 <0>        -0.1380
     10 C8         -4.4583    5.6835   -0.3062 C.ar      1 <0>        -0.0861
     11 C9         -3.7573    4.5229   -0.0477 C.ar      1 <0>        -0.1762
     12 C10        -4.4225    3.4004    0.4329 C.ar      1 <0>         0.1781
     13 N1         -3.6920    2.2333    0.6917 N.am      1 <0>        -0.5508
     14 C11        -2.3455    2.2643    0.7397 C.2       1 <0>         0.5699
     15 O1         -1.7126    1.2265    0.7224 O.2       1 <0>        -0.5018
     16 C12        -1.6382    3.5601    0.8133 C.ar      1 <0>        -0.1520
     17 C13        -0.4427    3.7468    0.1172 C.ar      1 <0>        -0.0653
     18 C14         0.2096    4.9604    0.1861 C.ar      1 <0>        -0.1333
     19 C15        -0.3158    5.9895    0.9471 C.ar      1 <0>        -0.0870
     20 C16        -1.4976    5.8094    1.6436 C.ar      1 <0>        -0.1361
     21 C17        -2.1603    4.6010    1.5831 C.ar      1 <0>        -0.0545
     22 N2         -7.5591    2.6980    2.1226 N.am      1 <0>        -0.5592
     23 C18        -8.9078    2.4000    1.9035 C.ar      1 <0>         0.1344
     24 C19        -9.6338    1.7114    2.8668 C.ar      1 <0>        -0.1161
     25 C20       -10.9669    1.4234    2.6495 C.ar      1 <0>        -0.1010
     26 C21       -11.5760    1.8096    1.4696 C.ar      1 <0>        -0.1207
     27 C22       -10.8545    2.4907    0.5063 C.ar      1 <0>        -0.1007
     28 C23        -9.5226    2.7869    0.7197 C.ar      1 <0>        -0.1376
     29 C24        -7.1923    3.3971    3.2150 C.2       1 <0>         0.5679
     30 O2         -6.0260    3.6969    3.3813 O.2       1 <0>        -0.5025
     31 C25        -8.2081    3.7992    4.2106 C.ar      1 <0>        -0.1418
     32 C26        -9.5251    4.0348    3.8126 C.ar      1 <0>        -0.0826
     33 C27       -10.4695    4.4042    4.7479 C.ar      1 <0>        -0.1287
     34 C28       -10.1111    4.5525    6.0760 C.ar      1 <0>        -0.0904
     35 C29        -8.8062    4.3260    6.4763 C.ar      1 <0>        -0.1305
     36 C30        -7.8533    3.9506    5.5522 C.ar      1 <0>        -0.0609
     37 H3         -2.9487    0.4112    2.3858 H         1 <0>         0.0606
     38 H4         -4.0756   -0.8907    1.9348 H         1 <0>         0.0611
     39 H5         -2.7749   -0.4128    0.8176 H         1 <0>         0.0889
     40 H6         -6.1214    0.3501    2.0873 H         1 <0>         0.0883
     41 H7         -5.2181    1.7225    2.7778 H         1 <0>         0.0940
     42 H8         -7.5514    4.6548    0.5495 H         1 <0>         0.1193
     43 H9         -6.3716    6.6366   -0.2870 H         1 <0>         0.1225
     44 H10        -3.9420    6.5551   -0.6804 H         1 <0>         0.1259
     45 H11        -2.6916    4.4865   -0.2193 H         1 <0>         0.1583
     46 H12        -0.0317    2.9444   -0.4774 H         1 <0>         0.1329
     47 H13         1.1327    5.1073   -0.3550 H         1 <0>         0.1313
     48 H14         0.1987    6.9378    0.9973 H         1 <0>         0.1285
     49 H15        -1.9024    6.6168    2.2358 H         1 <0>         0.1298
     50 H16        -3.0829    4.4618    2.1270 H         1 <0>         0.1339
     51 H17        -9.1576    1.4056    3.7866 H         1 <0>         0.1254
     52 H18       -11.5332    0.8919    3.4000 H         1 <0>         0.1286
     53 H19       -12.6174    1.5792    1.3002 H         1 <0>         0.1272
     54 H20       -11.3333    2.7916   -0.4139 H         1 <0>         0.1296
     55 H21        -8.9598    3.3192   -0.0329 H         1 <0>         0.1286
     56 H22        -9.8051    3.9237    2.7754 H         1 <0>         0.1378
     57 H23       -11.4898    4.5824    4.4420 H         1 <0>         0.1273
     58 H24       -10.8534    4.8459    6.8036 H         1 <0>         0.1269
     59 H25        -8.5331    4.4432    7.5146 H         1 <0>         0.1294
     60 H26        -6.8349    3.7745    5.8659 H         1 <0>         0.1308
@<TRIPOS>BOND
     1    1    2 1
     2    1   37 1
     3    1   38 1
     4    1   39 1
     5    2    3 1
     6    2   13 1
     7    2    4 1
     8    4    5 1
     9    4   40 1
    10    4   41 1
    11    5    6 1
    12    5    7 1
    13    5   22 1
    14    7   12 ar
    15    7    8 ar
    16    8    9 ar
    17    8   42 1
    18    9   10 ar
    19    9   43 1
    20   10   11 ar
    21   10   44 1
    22   11   12 ar
    23   11   45 1
    24   12   13 1
    25   13   14 am
    26   14   15 2
    27   14   16 1
    28   16   21 ar
    29   16   17 ar
    30   17   18 ar
    31   17   46 1
    32   18   19 ar
    33   18   47 1
    34   19   20 ar
    35   19   48 1
    36   20   21 ar
    37   20   49 1
    38   21   50 1
    39   22   23 1
    40   22   29 am
    41   23   28 ar
    42   23   24 ar
    43   24   25 ar
    44   24   51 1
    45   25   26 ar
    46   25   52 1
    47   26   27 ar
    48   26   53 1
    49   27   28 ar
    50   27   54 1
    51   28   55 1
    52   29   30 2
    53   29   31 1
    54   31   36 ar
    55   31   32 ar
    56   32   33 ar
    57   32   56 1
    58   33   34 ar
    59   33   57 1
    60   34   35 ar
    61   34   58 1
    62   35   36 ar
    63   35   59 1
    64   36   60 1
@<TRIPOS>MOLECULE
ZINC08984029
   60    64     0     0     0
SMALL
USER_CHARGES
N-(1-benzoyl-2-methyl-3,4-dihydro-2H-quinolin-4-yl)-N-phenyl-benzamide
@<TRIPOS>ATOM
      1 C1         -3.3709   -2.4672   -1.9077 C.3       1 <0>        -0.1507
      2 C2         -3.6471   -2.5628   -0.4058 C.3       1 <0>         0.1455
      3 H1         -4.6541   -2.9451   -0.2394 H         1 <0>         0.0838
      4 C3         -3.5029   -1.1777    0.2383 C.3       1 <0>        -0.1502
      5 C4         -3.8509   -1.2845    1.7228 C.3       1 <0>         0.2001
      6 H2         -4.9175   -1.4828    1.8284 H         1 <0>         0.1032
      7 C5         -3.0718   -2.4000    2.3682 C.ar      1 <0>        -0.1173
      8 C6         -2.9059   -2.3931    3.7433 C.ar      1 <0>        -0.0810
      9 C7         -2.1990   -3.4039    4.3650 C.ar      1 <0>        -0.1396
     10 C8         -1.6523   -4.4310    3.6174 C.ar      1 <0>        -0.0856
     11 C9         -1.8123   -4.4450    2.2465 C.ar      1 <0>        -0.1752
     12 C10        -2.5217   -3.4274    1.6182 C.ar      1 <0>         0.1787
     13 N1         -2.6652   -3.4555    0.2249 N.am      1 <0>        -0.5512
     14 C11        -1.9149   -4.2873   -0.5245 C.2       1 <0>         0.5701
     15 O1         -2.2143   -4.4978   -1.6837 O.2       1 <0>        -0.5016
     16 C12        -0.7281   -4.9437    0.0632 C.ar      1 <0>        -0.1516
     17 C13         0.0803   -4.2517    0.9667 C.ar      1 <0>        -0.0552
     18 C14         1.1833   -4.8722    1.5159 C.ar      1 <0>        -0.1356
     19 C15         1.4954   -6.1735    1.1643 C.ar      1 <0>        -0.0871
     20 C16         0.7016   -6.8631    0.2651 C.ar      1 <0>        -0.1331
     21 C17        -0.4075   -6.2564   -0.2871 C.ar      1 <0>        -0.0652
     22 N2         -3.5261   -0.0202    2.3877 N.am      1 <0>        -0.5604
     23 C18        -4.5431    0.7497    2.9612 C.ar      1 <0>         0.1344
     24 C19        -4.5211    1.0296    4.3215 C.ar      1 <0>        -0.1164
     25 C20        -5.5241    1.7946    4.8837 C.ar      1 <0>        -0.1004
     26 C21        -6.5553    2.2725    4.0960 C.ar      1 <0>        -0.1193
     27 C22        -6.5830    1.9912    2.7424 C.ar      1 <0>        -0.1020
     28 C23        -5.5803    1.2312    2.1729 C.ar      1 <0>        -0.1327
     29 C24        -2.2473    0.4011    2.4467 C.2       1 <0>         0.5691
     30 O2         -1.3718   -0.2342    1.8920 O.2       1 <0>        -0.5041
     31 C25        -1.9091    1.6356    3.1860 C.ar      1 <0>        -0.1398
     32 C26        -2.8192    2.6928    3.2384 C.ar      1 <0>        -0.0819
     33 C27        -2.4995    3.8401    3.9345 C.ar      1 <0>        -0.1278
     34 C28        -1.2755    3.9486    4.5706 C.ar      1 <0>        -0.0914
     35 C29        -0.3669    2.9066    4.5182 C.ar      1 <0>        -0.1296
     36 C30        -0.6761    1.7517    3.8299 C.ar      1 <0>        -0.0614
     37 H3         -3.6525   -3.4036   -2.3892 H         1 <0>         0.0902
     38 H4         -3.9538   -1.6502   -2.3330 H         1 <0>         0.0613
     39 H5         -2.3096   -2.2796   -2.0707 H         1 <0>         0.0601
     40 H6         -4.1827   -0.4770   -0.2466 H         1 <0>         0.0866
     41 H7         -2.4762   -0.8288    0.1281 H         1 <0>         0.0979
     42 H8         -3.3307   -1.5935    4.3320 H         1 <0>         0.1194
     43 H9         -2.0730   -3.3920    5.4376 H         1 <0>         0.1226
     44 H10        -1.1008   -5.2209    4.1056 H         1 <0>         0.1261
     45 H11        -1.3859   -5.2465    1.6615 H         1 <0>         0.1568
     46 H12        -0.1595   -3.2343    1.2382 H         1 <0>         0.1335
     47 H13         1.8070   -4.3395    2.2184 H         1 <0>         0.1296
     48 H14         2.3624   -6.6532    1.5940 H         1 <0>         0.1284
     49 H15         0.9510   -7.8785   -0.0054 H         1 <0>         0.1313
     50 H16        -1.0265   -6.7959   -0.9887 H         1 <0>         0.1329
     51 H17        -3.7184    0.6529    4.9380 H         1 <0>         0.1244
     52 H18        -5.5056    2.0158    5.9407 H         1 <0>         0.1285
     53 H19        -7.3407    2.8670    4.5389 H         1 <0>         0.1271
     54 H20        -7.3898    2.3659    2.1299 H         1 <0>         0.1295
     55 H21        -5.6028    1.0112    1.1158 H         1 <0>         0.1276
     56 H22        -3.7731    2.6111    2.7386 H         1 <0>         0.1353
     57 H23        -3.2042    4.6574    3.9790 H         1 <0>         0.1271
     58 H24        -1.0285    4.8506    5.1108 H         1 <0>         0.1268
     59 H25         0.5868    2.9976    5.0169 H         1 <0>         0.1294
     60 H26         0.0341    0.9390    3.7898 H         1 <0>         0.1304
@<TRIPOS>BOND
     1    1    2 1
     2    1   37 1
     3    1   38 1
     4    1   39 1
     5    2    3 1
     6    2   13 1
     7    2    4 1
     8    4    5 1
     9    4   40 1
    10    4   41 1
    11    5    6 1
    12    5    7 1
    13    5   22 1
    14    7   12 ar
    15    7    8 ar
    16    8    9 ar
    17    8   42 1
    18    9   10 ar
    19    9   43 1
    20   10   11 ar
    21   10   44 1
    22   11   12 ar
    23   11   45 1
    24   12   13 1
    25   13   14 am
    26   14   15 2
    27   14   16 1
    28   16   21 ar
    29   16   17 ar
    30   17   18 ar
    31   17   46 1
    32   18   19 ar
    33   18   47 1
    34   19   20 ar
    35   19   48 1
    36   20   21 ar
    37   20   49 1
    38   21   50 1
    39   22   23 1
    40   22   29 am
    41   23   28 ar
    42   23   24 ar
    43   24   25 ar
    44   24   51 1
    45   25   26 ar
    46   25   52 1
    47   26   27 ar
    48   26   53 1
    49   27   28 ar
    50   27   54 1
    51   28   55 1
    52   29   30 2
    53   29   31 1
    54   31   36 ar
    55   31   32 ar
    56   32   33 ar
    57   32   56 1
    58   33   34 ar
    59   33   57 1
    60   34   35 ar
    61   34   58 1
    62   35   36 ar
    63   35   59 1
    64   36   60 1
@<TRIPOS>MOLECULE
ZINC13940059
   60    64     0     0     0
SMALL
USER_CHARGES
N-[(2R,4R)-1-benzoyl-2-methyl-3,4-dihydro-2H-quinolin-4-yl]-N-phenyl-benzamide
@<TRIPOS>ATOM
      1 C1         -0.9015    1.7337    0.0472 C.3       1 <0>        -0.1464
      2 C2         -1.5071    2.8873    0.8492 C.3       1 <0>         0.1253
      3 H1         -1.2291    3.8384    0.3952 H         1 <0>         0.0989
      4 C3         -1.0018    2.8352    2.2970 C.3       1 <0>        -0.1718
      5 C4         -1.5636    4.0348    3.0597 C.3       1 <0>         0.1663
      6 H2         -1.3333    3.9271    4.1196 H         1 <0>         0.1234
      7 C5         -3.0566    4.1206    2.8818 C.ar      1 <0>        -0.1338
      8 C6         -3.8009    4.8391    3.8027 C.ar      1 <0>        -0.0686
      9 C7         -5.1717    4.9388    3.6651 C.ar      1 <0>        -0.1377
     10 C8         -5.8104    4.3213    2.6051 C.ar      1 <0>        -0.0749
     11 C9         -5.0761    3.6025    1.6835 C.ar      1 <0>        -0.1905
     12 C10        -3.6963    3.4995    1.8208 C.ar      1 <0>         0.1801
     13 N1         -2.9704    2.7580    0.8796 N.am      1 <0>        -0.5524
     14 C11        -3.6038    1.9396    0.0162 C.2       1 <0>         0.5677
     15 O1         -2.9813    1.3996   -0.8775 O.2       1 <0>        -0.4947
     16 C12        -5.0555    1.6986    0.1559 C.ar      1 <0>        -0.1526
     17 C13        -5.6058    1.4427    1.4130 C.ar      1 <0>        -0.0535
     18 C14        -6.9622    1.2239    1.5371 C.ar      1 <0>        -0.1385
     19 C15        -7.7751    1.2468    0.4176 C.ar      1 <0>        -0.0856
     20 C16        -7.2352    1.4945   -0.8320 C.ar      1 <0>        -0.1308
     21 C17        -5.8812    1.7202   -0.9694 C.ar      1 <0>        -0.0655
     22 N2         -0.9450    5.2625    2.5535 N.am      1 <0>        -0.5557
     23 C18        -1.7009    6.1679    1.8021 C.ar      1 <0>         0.1532
     24 C19        -2.4275    5.7253    0.7043 C.ar      1 <0>        -0.1469
     25 C20        -3.1779    6.6210   -0.0319 C.ar      1 <0>        -0.1039
     26 C21        -3.1968    7.9593    0.3159 C.ar      1 <0>        -0.1231
     27 C22        -2.4696    8.4043    1.4046 C.ar      1 <0>        -0.1046
     28 C23        -1.7221    7.5127    2.1487 C.ar      1 <0>        -0.1096
     29 C24         0.3526    5.5193    2.8118 C.2       1 <0>         0.5611
     30 O2          0.9093    6.4496    2.2620 O.2       1 <0>        -0.5102
     31 C25         1.0989    4.6697    3.7638 C.ar      1 <0>        -0.1378
     32 C26         0.5872    3.4283    4.1454 C.ar      1 <0>        -0.1582
     33 C27         1.2906    2.6386    5.0313 C.ar      1 <0>        -0.1277
     34 C28         2.4963    3.0786    5.5483 C.ar      1 <0>        -0.0907
     35 C29         3.0067    4.3101    5.1778 C.ar      1 <0>        -0.1269
     36 C30         2.3155    5.1077    4.2895 C.ar      1 <0>        -0.0570
     37 H3         -1.3562    0.7943    0.3619 H         1 <0>         0.0657
     38 H4          0.1735    1.6939    0.2230 H         1 <0>         0.0600
     39 H5         -1.0904    1.8910   -1.0147 H         1 <0>         0.0865
     40 H6         -1.3391    1.9121    2.7685 H         1 <0>         0.1006
     41 H7          0.0874    2.8748    2.3052 H         1 <0>         0.1117
     42 H8         -3.3074    5.3232    4.6324 H         1 <0>         0.1253
     43 H9         -5.7461    5.5001    4.3872 H         1 <0>         0.1258
     44 H10        -6.8822    4.4012    2.4988 H         1 <0>         0.1278
     45 H11        -5.5736    3.1203    0.8549 H         1 <0>         0.1721
     46 H12        -4.9718    1.4203    2.2870 H         1 <0>         0.1300
     47 H13        -7.3900    1.0303    2.5096 H         1 <0>         0.1320
     48 H14        -8.8357    1.0707    0.5197 H         1 <0>         0.1300
     49 H15        -7.8752    1.5110   -1.7018 H         1 <0>         0.1326
     50 H16        -5.4610    1.9135   -1.9454 H         1 <0>         0.1331
     51 H17        -2.4095    4.6810    0.4295 H         1 <0>         0.1404
     52 H18        -3.7472    6.2766   -0.8825 H         1 <0>         0.1207
     53 H19        -3.7806    8.6586   -0.2644 H         1 <0>         0.1227
     54 H20        -2.4865    9.4501    1.6736 H         1 <0>         0.1252
     55 H21        -1.1549    7.8608    2.9993 H         1 <0>         0.1205
     56 H22        -0.3556    3.0853    3.7455 H         1 <0>         0.1869
     57 H23         0.8975    1.6764    5.3248 H         1 <0>         0.1297
     58 H24         3.0412    2.4581    6.2443 H         1 <0>         0.1279
     59 H25         3.9481    4.6478    5.5853 H         1 <0>         0.1312
     60 H26         2.7147    6.0691    4.0016 H         1 <0>         0.1351
@<TRIPOS>BOND
     1    1    2 1
     2    1   37 1
     3    1   38 1
     4    1   39 1
     5    2    3 1
     6    2   13 1
     7    2    4 1
     8    4    5 1
     9    4   40 1
    10    4   41 1
    11    5    6 1
    12    5    7 1
    13    5   22 1
    14    7   12 ar
    15    7    8 ar
    16    8    9 ar
    17    8   42 1
    18    9   10 ar
    19    9   43 1
    20   10   11 ar
    21   10   44 1
    22   11   12 ar
    23   11   45 1
    24   12   13 1
    25   13   14 am
    26   14   15 2
    27   14   16 1
    28   16   21 ar
    29   16   17 ar
    30   17   18 ar
    31   17   46 1
    32   18   19 ar
    33   18   47 1
    34   19   20 ar
    35   19   48 1
    36   20   21 ar
    37   20   49 1
    38   21   50 1
    39   22   23 1
    40   22   29 am
    41   23   28 ar
    42   23   24 ar
    43   24   25 ar
    44   24   51 1
    45   25   26 ar
    46   25   52 1
    47   26   27 ar
    48   26   53 1
    49   27   28 ar
    50   27   54 1
    51   28   55 1
    52   29   30 2
    53   29   31 1
    54   31   36 ar
    55   31   32 ar
    56   32   33 ar
    57   32   56 1
    58   33   34 ar
    59   33   57 1
    60   34   35 ar
    61   34   58 1
    62   35   36 ar
    63   35   59 1
    64   36   60 1
@<TRIPOS>MOLECULE
ZINC13940060
   60    64     0     0     0
SMALL
USER_CHARGES
N-[(2S,4S)-1-benzoyl-2-methyl-3,4-dihydro-2H-quinolin-4-yl]-N-phenyl-benzamide
@<TRIPOS>ATOM
      1 C1          6.9723    0.4423   -1.7395 C.3       1 <0>        -0.1782
      2 C2          6.6964   -0.2878   -0.4235 C.3       1 <0>         0.1061
      3 H1          7.0153   -1.3271   -0.5033 H         1 <0>         0.1296
      4 C3          7.4541    0.4001    0.7142 C.3       1 <0>        -0.1496
      5 C4          7.0425    1.8712    0.7669 C.3       1 <0>         0.1999
      6 H2          7.4293    2.3848   -0.1133 H         1 <0>         0.1052
      7 C5          5.5422    1.9982    0.7972 C.ar      1 <0>        -0.1181
      8 C6          4.9786    3.1723    1.2683 C.ar      1 <0>        -0.0871
      9 C7          3.6059    3.3212    1.3042 C.ar      1 <0>        -0.1405
     10 C8          2.7844    2.2968    0.8697 C.ar      1 <0>        -0.0956
     11 C9          3.3379    1.1228    0.4002 C.ar      1 <0>        -0.1598
     12 C10         4.7196    0.9704    0.3639 C.ar      1 <0>         0.1750
     13 N1          5.2614   -0.2300   -0.1137 N.am      1 <0>        -0.5381
     14 C11         4.4802   -1.3155   -0.2809 C.2       1 <0>         0.5636
     15 O1          3.2827   -1.2384   -0.0864 O.2       1 <0>        -0.5079
     16 C12         5.0795   -2.5998   -0.7009 C.ar      1 <0>        -0.1330
     17 C13         4.5304   -3.8061   -0.2628 C.ar      1 <0>        -0.0595
     18 C14         5.0944   -5.0012   -0.6588 C.ar      1 <0>        -0.1231
     19 C15         6.2015   -5.0058   -1.4887 C.ar      1 <0>        -0.0926
     20 C16         6.7507   -3.8137   -1.9265 C.ar      1 <0>        -0.1253
     21 C17         6.1968   -2.6116   -1.5376 C.ar      1 <0>        -0.1138
     22 N2          7.6043    2.4870    1.9717 N.am      1 <0>        -0.5601
     23 C18         8.4739    3.5764    1.8596 C.ar      1 <0>         0.1410
     24 C19         8.2107    4.7512    2.5523 C.ar      1 <0>        -0.1227
     25 C20         9.0738    5.8237    2.4428 C.ar      1 <0>        -0.0972
     26 C21        10.1940    5.7323    1.6372 C.ar      1 <0>        -0.1237
     27 C22        10.4562    4.5659    0.9421 C.ar      1 <0>        -0.0990
     28 C23         9.5997    3.4880    1.0510 C.ar      1 <0>        -0.1397
     29 C24         7.2830    2.0035    3.1880 C.2       1 <0>         0.5655
     30 O2          6.4500    1.1243    3.2920 O.2       1 <0>        -0.4996
     31 C25         7.9435    2.5424    4.3956 C.ar      1 <0>        -0.1428
     32 C26         9.1949    3.1529    4.2968 C.ar      1 <0>        -0.0845
     33 C27         9.8032    3.6589    5.4268 C.ar      1 <0>        -0.1295
     34 C28         9.1808    3.5521    6.6580 C.ar      1 <0>        -0.0899
     35 C29         7.9430    2.9430    6.7638 C.ar      1 <0>        -0.1310
     36 C30         7.3211    2.4380    5.6407 C.ar      1 <0>        -0.0592
     37 H3          6.6649    1.4841   -1.6483 H         1 <0>         0.0711
     38 H4          8.0379    0.3962   -1.9641 H         1 <0>         0.0816
     39 H5          6.4105   -0.0332   -2.5435 H         1 <0>         0.0698
     40 H6          8.5270    0.3273    0.5359 H         1 <0>         0.0882
     41 H7          7.2055   -0.0827    1.6593 H         1 <0>         0.0969
     42 H8          5.6154    3.9754    1.6089 H         1 <0>         0.1173
     43 H9          3.1730    4.2394    1.6728 H         1 <0>         0.1199
     44 H10         1.7113    2.4156    0.8973 H         1 <0>         0.1247
     45 H11         2.6975    0.3222    0.0605 H         1 <0>         0.1764
     46 H12         3.6663   -3.8038    0.3849 H         1 <0>         0.1345
     47 H13         4.6706   -5.9352   -0.3207 H         1 <0>         0.1325
     48 H14         6.6417   -5.9441   -1.7925 H         1 <0>         0.1295
     49 H15         7.6150   -3.8243   -2.5741 H         1 <0>         0.1317
     50 H16         6.6262   -1.6818   -1.8803 H         1 <0>         0.1483
     51 H17         7.3340    4.8245    3.1787 H         1 <0>         0.1246
     52 H18         8.8717    6.7362    2.9841 H         1 <0>         0.1286
     53 H19        10.8654    6.5738    1.5504 H         1 <0>         0.1270
     54 H20        11.3316    4.4979    0.3132 H         1 <0>         0.1294
     55 H21         9.8052    2.5773    0.5081 H         1 <0>         0.1277
     56 H22         9.6838    3.2329    3.3371 H         1 <0>         0.1399
     57 H23        10.7694    4.1354    5.3511 H         1 <0>         0.1271
     58 H24         9.6633    3.9461    7.5402 H         1 <0>         0.1268
     59 H25         7.4624    2.8632    7.7276 H         1 <0>         0.1295
     60 H26         6.3547    1.9631    5.7246 H         1 <0>         0.1319
@<TRIPOS>BOND
     1    1    2 1
     2    1   37 1
     3    1   38 1
     4    1   39 1
     5    2    3 1
     6    2   13 1
     7    2    4 1
     8    4    5 1
     9    4   40 1
    10    4   41 1
    11    5    6 1
    12    5    7 1
    13    5   22 1
    14    7   12 ar
    15    7    8 ar
    16    8    9 ar
    17    8   42 1
    18    9   10 ar
    19    9   43 1
    20   10   11 ar
    21   10   44 1
    22   11   12 ar
    23   11   45 1
    24   12   13 1
    25   13   14 am
    26   14   15 2
    27   14   16 1
    28   16   21 ar
    29   16   17 ar
    30   17   18 ar
    31   17   46 1
    32   18   19 ar
    33   18   47 1
    34   19   20 ar
    35   19   48 1
    36   20   21 ar
    37   20   49 1
    38   21   50 1
    39   22   23 1
    40   22   29 am
    41   23   28 ar
    42   23   24 ar
    43   24   25 ar
    44   24   51 1
    45   25   26 ar
    46   25   52 1
    47   26   27 ar
    48   26   53 1
    49   27   28 ar
    50   27   54 1
    51   28   55 1
    52   29   30 2
    53   29   31 1
    54   31   36 ar
    55   31   32 ar
    56   32   33 ar
    57   32   56 1
    58   33   34 ar
    59   33   57 1
    60   34   35 ar
    61   34   58 1
    62   35   36 ar
    63   35   59 1
    64   36   60 1
@<TRIPOS>MOLECULE
ZINC00869158
   57    60     0     0     0
SMALL
USER_CHARGES
N-[1-(4-methoxybenzoyl)-2-methyl-3,4-dihydro-2H-quinolin-4-yl]-N-phenyl-acetamide
@<TRIPOS>ATOM
      1 C1          0.6778    2.4386    0.9820 C.3       1 <0>        -0.1463
      2 C2          0.7883    1.7453   -0.3775 C.3       1 <0>         0.1445
      3 H1          0.7060    2.4824   -1.1763 H         1 <0>         0.0835
      4 C3          2.1339    1.0156   -0.4806 C.3       1 <0>        -0.1465
      5 C4          2.2513    0.3901   -1.8704 C.3       1 <0>         0.1967
      6 H2          2.3558    1.1805   -2.6136 H         1 <0>         0.1012
      7 C5          1.0277   -0.4297   -2.1844 C.ar      1 <0>        -0.1114
      8 C6          1.1069   -1.4020   -3.1677 C.ar      1 <0>        -0.0795
      9 C7          0.0002   -2.1658   -3.4833 C.ar      1 <0>        -0.1403
     10 C8         -1.1958   -1.9640   -2.8186 C.ar      1 <0>        -0.0869
     11 C9         -1.2831   -0.9975   -1.8370 C.ar      1 <0>        -0.1883
     12 C10        -0.1697   -0.2288   -1.5162 C.ar      1 <0>         0.1773
     13 N1         -0.2777    0.7434   -0.5132 N.am      1 <0>        -0.5499
     14 C11        -1.3445    0.7625    0.3102 C.2       1 <0>         0.5741
     15 O1         -1.5163    1.7035    1.0609 O.2       1 <0>        -0.5045
     16 C12        -2.3043   -0.3584    0.3004 C.ar      1 <0>        -0.1985
     17 C13        -1.8429   -1.6752    0.2218 C.ar      1 <0>        -0.0038
     18 C14        -2.7415   -2.7185    0.2188 C.ar      1 <0>        -0.2287
     19 C15        -4.1063   -2.4630    0.2823 C.ar      1 <0>         0.1632
     20 C16        -4.5696   -1.1545    0.3549 C.ar      1 <0>        -0.1702
     21 C17        -3.6773   -0.1058    0.3641 C.ar      1 <0>        -0.0226
     22 O2         -4.9889   -3.4938    0.2730 O.3       1 <0>        -0.3108
     23 C18        -4.4449   -4.8130    0.1969 C.3       1 <0>         0.0236
     24 N2          3.4357   -0.4710   -1.9154 N.am      1 <0>        -0.5655
     25 C19         4.4979   -0.1555   -2.7698 C.ar      1 <0>         0.1349
     26 C20         5.1677    1.0531   -2.6303 C.ar      1 <0>        -0.1249
     27 C21         6.2198    1.3588   -3.4712 C.ar      1 <0>        -0.1017
     28 C22         6.5988    0.4682   -4.4589 C.ar      1 <0>        -0.1200
     29 C23         5.9299   -0.7333   -4.6043 C.ar      1 <0>        -0.1022
     30 C24         4.8810   -1.0477   -3.7626 C.ar      1 <0>        -0.1267
     31 C25         3.5021   -1.5670   -1.1339 C.2       1 <0>         0.5184
     32 O3          2.5464   -1.8908   -0.4609 O.2       1 <0>        -0.5143
     33 C26         4.7639   -2.3902   -1.0962 C.3       1 <0>        -0.1795
     34 H3          0.5476    1.6891    1.7625 H         1 <0>         0.0618
     35 H4          1.5866    3.0089    1.1739 H         1 <0>         0.0582
     36 H5         -0.1795    3.1117    0.9779 H         1 <0>         0.0883
     37 H6          2.1842    0.2338    0.2772 H         1 <0>         0.0911
     38 H7          2.9483    1.7240   -0.3291 H         1 <0>         0.0868
     39 H8          2.0384   -1.5639   -3.6897 H         1 <0>         0.1184
     40 H9          0.0689   -2.9225   -4.2508 H         1 <0>         0.1214
     41 H10        -2.0602   -2.5619   -3.0671 H         1 <0>         0.1238
     42 H11        -2.2163   -0.8392   -1.3170 H         1 <0>         0.1682
     43 H12        -0.7828   -1.8743    0.1679 H         1 <0>         0.1370
     44 H13        -2.3855   -3.7366    0.1622 H         1 <0>         0.1366
     45 H14        -5.6308   -0.9601    0.4037 H         1 <0>         0.1402
     46 H15        -4.0380    0.9106    0.4209 H         1 <0>         0.1405
     47 H16        -3.8659   -4.9149   -0.7210 H         1 <0>         0.0593
     48 H17        -3.7978   -4.9893    1.0561 H         1 <0>         0.0591
     49 H18        -5.2561   -5.5412    0.1975 H         1 <0>         0.1037
     50 H19         4.8691    1.7511   -1.8623 H         1 <0>         0.1265
     51 H20         6.7442    2.2964   -3.3602 H         1 <0>         0.1289
     52 H21         7.4192    0.7114   -5.1178 H         1 <0>         0.1270
     53 H22         6.2283   -1.4268   -5.3766 H         1 <0>         0.1292
     54 H23         4.3594   -1.9866   -3.8762 H         1 <0>         0.1254
     55 H24         5.5356   -1.8996   -1.6894 H         1 <0>         0.0828
     56 H25         5.1043   -2.4863   -0.0652 H         1 <0>         0.0954
     57 H26         4.5643   -3.3800   -1.5067 H         1 <0>         0.0960
@<TRIPOS>BOND
     1    1    2 1
     2    1   34 1
     3    1   35 1
     4    1   36 1
     5    2    3 1
     6    2   13 1
     7    2    4 1
     8    4    5 1
     9    4   37 1
    10    4   38 1
    11    5    6 1
    12    5    7 1
    13    5   24 1
    14    7   12 ar
    15    7    8 ar
    16    8    9 ar
    17    8   39 1
    18    9   10 ar
    19    9   40 1
    20   10   11 ar
    21   10   41 1
    22   11   12 ar
    23   11   42 1
    24   12   13 1
    25   13   14 am
    26   14   15 2
    27   14   16 1
    28   16   21 ar
    29   16   17 ar
    30   17   18 ar
    31   17   43 1
    32   18   19 ar
    33   18   44 1
    34   19   20 ar
    35   19   22 1
    36   20   21 ar
    37   20   45 1
    38   21   46 1
    39   22   23 1
    40   23   47 1
    41   23   48 1
    42   23   49 1
    43   24   25 1
    44   24   31 am
    45   25   30 ar
    46   25   26 ar
    47   26   27 ar
    48   26   50 1
    49   27   28 ar
    50   27   51 1
    51   28   29 ar
    52   28   52 1
    53   29   30 ar
    54   29   53 1
    55   30   54 1
    56   31   32 2
    57   31   33 1
    58   33   55 1
    59   33   56 1
    60   33   57 1
@<TRIPOS>MOLECULE
ZINC00869159
   57    60     0     0     0
SMALL
USER_CHARGES
N-[1-(4-methoxybenzoyl)-2-methyl-3,4-dihydro-2H-quinolin-4-yl]-N-phenyl-acetamide
@<TRIPOS>ATOM
      1 C1         -0.6118    5.7964   -0.2804 C.3       1 <0>        -0.1516
      2 C2         -0.0729    4.8109   -1.3194 C.3       1 <0>         0.1182
      3 H1          0.1581    5.3386   -2.2447 H         1 <0>         0.1059
      4 C3         -1.1164    3.7193   -1.5904 C.3       1 <0>        -0.1408
      5 C4         -0.5847    2.7885   -2.6808 C.3       1 <0>         0.1837
      6 H2         -1.2498    1.9302   -2.7763 H         1 <0>         0.1201
      7 C5          0.7998    2.3082   -2.3341 C.ar      1 <0>        -0.1365
      8 C6          1.2801    1.1568   -2.9356 C.ar      1 <0>        -0.0752
      9 C7          2.5492    0.6957   -2.6447 C.ar      1 <0>        -0.1442
     10 C8          3.3494    1.3818   -1.7493 C.ar      1 <0>        -0.0805
     11 C9          2.8780    2.5294   -1.1443 C.ar      1 <0>        -0.1880
     12 C10         1.6002    2.9947   -1.4348 C.ar      1 <0>         0.1828
     13 N1          1.1376    4.1569   -0.8039 N.am      1 <0>        -0.5465
     14 C11         1.7923    4.6669    0.2580 C.2       1 <0>         0.5721
     15 O1          1.5113    5.7757    0.6704 O.2       1 <0>        -0.5004
     16 C12         2.8503    3.8796    0.9203 C.ar      1 <0>        -0.1924
     17 C13         2.6760    2.5090    1.1305 C.ar      1 <0>        -0.0127
     18 C14         3.6681    1.7769    1.7436 C.ar      1 <0>        -0.2240
     19 C15         4.8367    2.4013    2.1636 C.ar      1 <0>         0.1618
     20 C16         5.0115    3.7654    1.9615 C.ar      1 <0>        -0.1659
     21 C17         4.0267    4.5036    1.3440 C.ar      1 <0>        -0.0240
     22 O2          5.8095    1.6774    2.7729 O.3       1 <0>        -0.3106
     23 C18         5.5647    0.2805    2.9489 C.3       1 <0>         0.0235
     24 N2         -0.5413    3.5098   -3.9551 N.am      1 <0>        -0.5633
     25 C19         0.2959    4.6213   -4.1018 C.ar      1 <0>         0.1356
     26 C20        -0.2506    5.8887   -4.2557 C.ar      1 <0>        -0.1287
     27 C21         0.5786    6.9845   -4.3940 C.ar      1 <0>        -0.1054
     28 C22         1.9515    6.8193   -4.3912 C.ar      1 <0>        -0.1151
     29 C23         2.4988    5.5579   -4.2443 C.ar      1 <0>        -0.1039
     30 C24         1.6751    4.4587   -4.0994 C.ar      1 <0>        -0.1157
     31 C25        -1.3078    3.1029   -4.9863 C.2       1 <0>         0.5223
     32 O3         -2.0837    2.1823   -4.8389 O.2       1 <0>        -0.5331
     33 C26        -1.2010    3.7916   -6.3224 C.3       1 <0>        -0.1771
     34 H3          0.0709    6.6416   -0.1929 H         1 <0>         0.0919
     35 H4         -1.5934    6.1529   -0.5927 H         1 <0>         0.0575
     36 H5         -0.6969    5.2966    0.6845 H         1 <0>         0.0572
     37 H6         -1.2948    3.1501   -0.6781 H         1 <0>         0.0855
     38 H7         -2.0469    4.1784   -1.9244 H         1 <0>         0.0905
     39 H8          0.6592    0.6167   -3.6351 H         1 <0>         0.1253
     40 H9          2.9174   -0.2029   -3.1174 H         1 <0>         0.1248
     41 H10         4.3416    1.0199   -1.5234 H         1 <0>         0.1256
     42 H11         3.5018    3.0661   -0.4449 H         1 <0>         0.1638
     43 H12         1.7664    2.0239    0.8085 H         1 <0>         0.1313
     44 H13         3.5359    0.7169    1.9028 H         1 <0>         0.1368
     45 H14         5.9209    4.2470    2.2895 H         1 <0>         0.1405
     46 H15         4.1632    5.5635    1.1876 H         1 <0>         0.1405
     47 H16         4.6715    0.1421    3.5581 H         1 <0>         0.0591
     48 H17         5.4171   -0.1879    1.9758 H         1 <0>         0.0596
     49 H18         6.4189   -0.1781    3.4471 H         1 <0>         0.1042
     50 H19        -1.3228    6.0178   -4.2627 H         1 <0>         0.1276
     51 H20         0.1543    7.9710   -4.5089 H         1 <0>         0.1299
     52 H21         2.5978    7.6772   -4.5043 H         1 <0>         0.1266
     53 H22         3.5714    5.4321   -4.2426 H         1 <0>         0.1261
     54 H23         2.1031    3.4739   -3.9840 H         1 <0>         0.1284
     55 H24        -0.3957    4.5254   -6.2896 H         1 <0>         0.0822
     56 H25        -0.9886    3.0534   -7.0958 H         1 <0>         0.0971
     57 H26        -2.1415    4.2942   -6.5484 H         1 <0>         0.0977
@<TRIPOS>BOND
     1    1    2 1
     2    1   34 1
     3    1   35 1
     4    1   36 1
     5    2    3 1
     6    2   13 1
     7    2    4 1
     8    4    5 1
     9    4   37 1
    10    4   38 1
    11    5    6 1
    12    5    7 1
    13    5   24 1
    14    7   12 ar
    15    7    8 ar
    16    8    9 ar
    17    8   39 1
    18    9   10 ar
    19    9   40 1
    20   10   11 ar
    21   10   41 1
    22   11   12 ar
    23   11   42 1
    24   12   13 1
    25   13   14 am
    26   14   15 2
    27   14   16 1
    28   16   21 ar
    29   16   17 ar
    30   17   18 ar
    31   17   43 1
    32   18   19 ar
    33   18   44 1
    34   19   20 ar
    35   19   22 1
    36   20   21 ar
    37   20   45 1
    38   21   46 1
    39   22   23 1
    40   23   47 1
    41   23   48 1
    42   23   49 1
    43   24   25 1
    44   24   31 am
    45   25   30 ar
    46   25   26 ar
    47   26   27 ar
    48   26   50 1
    49   27   28 ar
    50   27   51 1
    51   28   29 ar
    52   28   52 1
    53   29   30 ar
    54   29   53 1
    55   30   54 1
    56   31   32 2
    57   31   33 1
    58   33   55 1
    59   33   56 1
    60   33   57 1
@<TRIPOS>MOLECULE
ZINC00869160
   57    60     0     0     0
SMALL
USER_CHARGES
N-[1-(4-methoxybenzoyl)-2-methyl-3,4-dihydro-2H-quinolin-4-yl]-N-phenyl-acetamide
@<TRIPOS>ATOM
      1 C1          3.1603   -2.8203    7.5481 C.3       1 <0>        -0.1788
      2 C2          3.2806   -1.3002    7.4226 C.3       1 <0>         0.1057
      3 H1          2.7864   -0.8192    8.2667 H         1 <0>         0.1284
      4 C3          4.7579   -0.9020    7.3925 C.3       1 <0>        -0.1503
      5 C4          5.4475   -1.6365    6.2430 C.3       1 <0>         0.1984
      6 H2          5.4990   -2.7002    6.4752 H         1 <0>         0.1021
      7 C5          4.6826   -1.4442    4.9601 C.ar      1 <0>        -0.1195
      8 C6          5.3334   -1.6492    3.7548 C.ar      1 <0>        -0.0888
      9 C7          4.6568   -1.4894    2.5613 C.ar      1 <0>        -0.1417
     10 C8          3.3230   -1.1235    2.5624 C.ar      1 <0>        -0.0962
     11 C9          2.6673   -0.9156    3.7592 C.ar      1 <0>        -0.1593
     12 C10         3.3471   -1.0742    4.9618 C.ar      1 <0>         0.1751
     13 N1          2.6645   -0.8544    6.1654 N.am      1 <0>        -0.5393
     14 C11         1.4653   -0.2393    6.1705 C.2       1 <0>         0.5681
     15 O1          0.9368    0.0711    5.1203 O.2       1 <0>        -0.5103
     16 C12         0.7937    0.0575    7.4505 C.ar      1 <0>        -0.1743
     17 C13        -0.0304    1.1802    7.5655 C.ar      1 <0>        -0.0168
     18 C14        -0.6549    1.4539    8.7618 C.ar      1 <0>        -0.1568
     19 C15        -0.4666    0.6152    9.8542 C.ar      1 <0>         0.1570
     20 C16         0.3568   -0.4994    9.7456 C.ar      1 <0>        -0.2164
     21 C17         0.9805   -0.7832    8.5511 C.ar      1 <0>        -0.0710
     22 O2         -1.0839    0.8884   11.0315 O.3       1 <0>        -0.3113
     23 C18        -0.8467   -0.0148   12.1132 C.3       1 <0>         0.0235
     24 N2          6.8053   -1.1110    6.0798 N.am      1 <0>        -0.5651
     25 C19         7.9036   -1.9746    6.1567 C.ar      1 <0>         0.1383
     26 C20         8.7926   -2.0661    5.0937 C.ar      1 <0>        -0.1302
     27 C21         9.8784   -2.9158    5.1747 C.ar      1 <0>        -0.1005
     28 C22        10.0752   -3.6824    6.3086 C.ar      1 <0>        -0.1221
     29 C23         9.1889   -3.5975    7.3666 C.ar      1 <0>        -0.1006
     30 C24         8.1038   -2.7462    7.2938 C.ar      1 <0>        -0.1280
     31 C25         6.9965    0.2041    5.8556 C.2       1 <0>         0.5171
     32 O3          6.0434    0.9362    5.6918 O.2       1 <0>        -0.5119
     33 C26         8.3944    0.7650    5.8084 C.3       1 <0>        -0.1827
     34 H3          3.6689   -3.2955    6.7092 H         1 <0>         0.0716
     35 H4          3.6188   -3.1451    8.4821 H         1 <0>         0.0808
     36 H5          2.1077   -3.1032    7.5424 H         1 <0>         0.0695
     37 H6          5.2299   -1.1757    8.3361 H         1 <0>         0.0862
     38 H7          4.8418    0.1741    7.2408 H         1 <0>         0.1000
     39 H8          6.3749   -1.9350    3.7481 H         1 <0>         0.1180
     40 H9          5.1705   -1.6502    1.6251 H         1 <0>         0.1199
     41 H10         2.7953   -1.0002    1.6282 H         1 <0>         0.1247
     42 H11         1.6258   -0.6300    3.7615 H         1 <0>         0.1764
     43 H12        -0.1776    1.8321    6.7172 H         1 <0>         0.1428
     44 H13        -1.2917    2.3216    8.8516 H         1 <0>         0.1414
     45 H14         0.5041   -1.1461   10.5979 H         1 <0>         0.1372
     46 H15         1.6166   -1.6519    8.4663 H         1 <0>         0.1525
     47 H16         0.2192   -0.0382   12.3399 H         1 <0>         0.0591
     48 H17        -1.1805   -1.0137   11.8324 H         1 <0>         0.0593
     49 H18        -1.3979    0.3187   12.9924 H         1 <0>         0.1044
     50 H19         8.6369   -1.4708    4.2061 H         1 <0>         0.1265
     51 H20        10.5720   -2.9849    4.3498 H         1 <0>         0.1294
     52 H21        10.9227   -4.3492    6.3678 H         1 <0>         0.1268
     53 H22         9.3452   -4.1978    8.2507 H         1 <0>         0.1285
     54 H23         7.4119   -2.6803    8.1205 H         1 <0>         0.1259
     55 H24         9.1152   -0.0480    5.8952 H         1 <0>         0.0851
     56 H25         8.5455    1.2851    4.8625 H         1 <0>         0.0963
     57 H26         8.5336    1.4636    6.6334 H         1 <0>         0.0958
@<TRIPOS>BOND
     1    1    2 1
     2    1   34 1
     3    1   35 1
     4    1   36 1
     5    2    3 1
     6    2   13 1
     7    2    4 1
     8    4    5 1
     9    4   37 1
    10    4   38 1
    11    5    6 1
    12    5    7 1
    13    5   24 1
    14    7   12 ar
    15    7    8 ar
    16    8    9 ar
    17    8   39 1
    18    9   10 ar
    19    9   40 1
    20   10   11 ar
    21   10   41 1
    22   11   12 ar
    23   11   42 1
    24   12   13 1
    25   13   14 am
    26   14   15 2
    27   14   16 1
    28   16   21 ar
    29   16   17 ar
    30   17   18 ar
    31   17   43 1
    32   18   19 ar
    33   18   44 1
    34   19   20 ar
    35   19   22 1
    36   20   21 ar
    37   20   45 1
    38   21   46 1
    39   22   23 1
    40   23   47 1
    41   23   48 1
    42   23   49 1
    43   24   25 1
    44   24   31 am
    45   25   30 ar
    46   25   26 ar
    47   26   27 ar
    48   26   50 1
    49   27   28 ar
    50   27   51 1
    51   28   29 ar
    52   28   52 1
    53   29   30 ar
    54   29   53 1
    55   30   54 1
    56   31   32 2
    57   31   33 1
    58   33   55 1
    59   33   56 1
    60   33   57 1
@<TRIPOS>MOLECULE
ZINC00869161
   57    60     0     0     0
SMALL
USER_CHARGES
N-[1-(4-methoxybenzoyl)-2-methyl-3,4-dihydro-2H-quinolin-4-yl]-N-phenyl-acetamide
@<TRIPOS>ATOM
      1 C1         -1.4865    9.8456    2.1838 C.3       1 <0>        -0.1470
      2 C2         -0.5422    9.3682    1.0786 C.3       1 <0>         0.1444
      3 H1          0.4654    9.2521    1.4777 H         1 <0>         0.0823
      4 C3         -0.5283   10.3851   -0.0652 C.3       1 <0>        -0.1516
      5 C4          0.4691    9.9236   -1.1277 C.3       1 <0>         0.1979
      6 H2          1.4812   10.0062   -0.7317 H         1 <0>         0.1009
      7 C5          0.2016    8.4933   -1.5158 C.ar      1 <0>        -0.1184
      8 C6          0.6844    8.0264   -2.7271 C.ar      1 <0>        -0.0818
      9 C7          0.4618    6.7176   -3.1082 C.ar      1 <0>        -0.1414
     10 C8         -0.2456    5.8639   -2.2814 C.ar      1 <0>        -0.0858
     11 C9         -0.7316    6.3217   -1.0733 C.ar      1 <0>        -0.1882
     12 C10        -0.5100    7.6393   -0.6882 C.ar      1 <0>         0.1796
     13 N1         -1.0149    8.0855    0.5401 N.am      1 <0>        -0.5492
     14 C11        -1.9236    7.3529    1.2139 C.2       1 <0>         0.5741
     15 O1         -2.2317    7.6607    2.3492 O.2       1 <0>        -0.5037
     16 C12        -2.5446    6.1771    0.5739 C.ar      1 <0>        -0.1971
     17 C13        -2.7234    4.9967    1.3003 C.ar      1 <0>        -0.0231
     18 C14        -3.3029    3.9017    0.6993 C.ar      1 <0>        -0.1693
     19 C15        -3.7098    3.9693   -0.6281 C.ar      1 <0>         0.1628
     20 C16        -3.5286    5.1396   -1.3558 C.ar      1 <0>        -0.2279
     21 C17        -2.9551    6.2409   -0.7604 C.ar      1 <0>        -0.0053
     22 O2         -4.2805    2.8879   -1.2168 O.3       1 <0>        -0.3108
     23 C18        -4.6754    3.0260   -2.5832 C.3       1 <0>         0.0236
     24 N2          0.3405   10.7785   -2.3104 N.am      1 <0>        -0.5651
     25 C19         1.4256   11.5532   -2.7349 C.ar      1 <0>         0.1340
     26 C20         1.9648   11.3615   -4.0003 C.ar      1 <0>        -0.1270
     27 C21         3.0322   12.1319   -4.4184 C.ar      1 <0>        -0.1024
     28 C22         3.5710   13.0857   -3.5745 C.ar      1 <0>        -0.1200
     29 C23         3.0403   13.2748   -2.3116 C.ar      1 <0>        -0.1017
     30 C24         1.9693   12.5116   -1.8896 C.ar      1 <0>        -0.1245
     31 C25        -0.8229   10.8187   -2.9896 C.2       1 <0>         0.5200
     32 O3         -1.7863   10.2071   -2.5789 O.2       1 <0>        -0.5161
     33 C26        -0.9266   11.6235   -4.2595 C.3       1 <0>        -0.1776
     34 H3         -1.3564    9.2212    3.0677 H         1 <0>         0.0890
     35 H4         -1.2584   10.8817    2.4340 H         1 <0>         0.0581
     36 H5         -2.5173    9.7741    1.8369 H         1 <0>         0.0615
     37 H6         -0.2294   11.3612    0.3167 H         1 <0>         0.0855
     38 H7         -1.5241   10.4515   -0.5034 H         1 <0>         0.1002
     39 H8          1.2378    8.6886   -3.3765 H         1 <0>         0.1200
     40 H9          0.8413    6.3599   -4.0540 H         1 <0>         0.1222
     41 H10        -0.4179    4.8406   -2.5807 H         1 <0>         0.1245
     42 H11        -1.2839    5.6560   -0.4266 H         1 <0>         0.1681
     43 H12        -2.4072    4.9433    2.3316 H         1 <0>         0.1407
     44 H13        -3.4411    2.9890    1.2599 H         1 <0>         0.1404
     45 H14        -3.8421    5.1867   -2.3882 H         1 <0>         0.1366
     46 H15        -2.8187    7.1513   -1.3252 H         1 <0>         0.1360
     47 H16        -5.1161    2.0914   -2.9303 H         1 <0>         0.1038
     48 H17        -3.8026    3.2640   -3.1913 H         1 <0>         0.0592
     49 H18        -5.4085    3.8278   -2.6703 H         1 <0>         0.0591
     50 H19         1.5473   10.6137   -4.6582 H         1 <0>         0.1258
     51 H20         3.4493   11.9861   -5.4039 H         1 <0>         0.1291
     52 H21         4.4082   13.6839   -3.9023 H         1 <0>         0.1269
     53 H22         3.4636   14.0202   -1.6548 H         1 <0>         0.1288
     54 H23         1.5553   12.6598   -0.9032 H         1 <0>         0.1263
     55 H24        -0.7253   10.9793   -5.1154 H         1 <0>         0.0956
     56 H25        -1.9307   12.0388   -4.3455 H         1 <0>         0.0939
     57 H26        -0.1988   12.4346   -4.2361 H         1 <0>         0.0839
@<TRIPOS>BOND
     1    1    2 1
     2    1   34 1
     3    1   35 1
     4    1   36 1
     5    2    3 1
     6    2   13 1
     7    2    4 1
     8    4    5 1
     9    4   37 1
    10    4   38 1
    11    5    6 1
    12    5    7 1
    13    5   24 1
    14    7   12 ar
    15    7    8 ar
    16    8    9 ar
    17    8   39 1
    18    9   10 ar
    19    9   40 1
    20   10   11 ar
    21   10   41 1
    22   11   12 ar
    23   11   42 1
    24   12   13 1
    25   13   14 am
    26   14   15 2
    27   14   16 1
    28   16   21 ar
    29   16   17 ar
    30   17   18 ar
    31   17   43 1
    32   18   19 ar
    33   18   44 1
    34   19   20 ar
    35   19   22 1
    36   20   21 ar
    37   20   45 1
    38   21   46 1
    39   22   23 1
    40   23   47 1
    41   23   48 1
    42   23   49 1
    43   24   25 1
    44   24   31 am
    45   25   30 ar
    46   25   26 ar
    47   26   27 ar
    48   26   50 1
    49   27   28 ar
    50   27   51 1
    51   28   29 ar
    52   28   52 1
    53   29   30 ar
    54   29   53 1
    55   30   54 1
    56   31   32 2
    57   31   33 1
    58   33   55 1
    59   33   56 1
    60   33   57 1
@<TRIPOS>MOLECULE
ZINC02836010
   65    68     0     0     0
SMALL
USER_CHARGES
N-[2-methyl-1-(4-tert-butylbenzoyl)-3,4-dihydro-2H-quinolin-4-yl]-N-phenyl-acetamide
@<TRIPOS>ATOM
      1 C1          0.6607    2.4265    0.9816 C.3       1 <0>        -0.1463
      2 C2          0.7919    1.7431   -0.3809 C.3       1 <0>         0.1445
      3 H1          0.7114    2.4845   -1.1759 H         1 <0>         0.0833
      4 C3          2.1451    1.0259   -0.4745 C.3       1 <0>        -0.1463
      5 C4          2.2826    0.4108   -1.8670 C.3       1 <0>         0.1968
      6 H2          2.3879    1.2071   -2.6038 H         1 <0>         0.1009
      7 C5          1.0698   -0.4178   -2.1993 C.ar      1 <0>        -0.1107
      8 C6          1.1680   -1.3826   -3.1881 C.ar      1 <0>        -0.0808
      9 C7          0.0716   -2.1541   -3.5205 C.ar      1 <0>        -0.1393
     10 C8         -1.1331   -1.9672   -2.8673 C.ar      1 <0>        -0.0871
     11 C9         -1.2393   -1.0086   -1.8800 C.ar      1 <0>        -0.1841
     12 C10        -0.1363   -0.2321   -1.5424 C.ar      1 <0>         0.1748
     13 N1         -0.2635    0.7325   -0.5344 N.am      1 <0>        -0.5491
     14 C11        -1.3392    0.7368    0.2777 C.2       1 <0>         0.5699
     15 O1         -1.5274    1.6711    1.0323 O.2       1 <0>        -0.5039
     16 C12        -2.2901   -0.3945    0.2507 C.ar      1 <0>        -0.1596
     17 C13        -1.8178   -1.7055    0.1682 C.ar      1 <0>        -0.0458
     18 C14        -2.7105   -2.7570    0.1487 C.ar      1 <0>        -0.1408
     19 C15        -4.0717   -2.5140    0.1997 C.ar      1 <0>        -0.0349
     20 C16        -4.5467   -1.2167    0.2763 C.ar      1 <0>        -0.1315
     21 C17        -3.6646   -0.1563    0.3018 C.ar      1 <0>        -0.0612
     22 C18        -5.0412   -3.6673    0.1712 C.3       1 <0>        -0.0335
     23 C19        -5.9566   -3.5342   -1.0475 C.3       1 <0>        -0.1396
     24 C20        -4.2658   -4.9835    0.0852 C.3       1 <0>        -0.1466
     25 C21        -5.8857   -3.6554    1.4470 C.3       1 <0>        -0.1403
     26 N2          3.4751   -0.4393   -1.9052 N.am      1 <0>        -0.5657
     27 C22         4.5434   -0.1086   -2.7462 C.ar      1 <0>         0.1352
     28 C23         5.2008    1.1048   -2.5917 C.ar      1 <0>        -0.1251
     29 C24         6.2589    1.4256   -3.4195 C.ar      1 <0>        -0.1017
     30 C25         6.6561    0.5451   -4.4089 C.ar      1 <0>        -0.1201
     31 C26         5.9996   -0.6613   -4.5694 C.ar      1 <0>        -0.1021
     32 C27         4.9448   -0.9907   -3.7409 C.ar      1 <0>        -0.1267
     33 C28         3.5432   -1.5399   -1.1303 C.2       1 <0>         0.5182
     34 O2          2.5835   -1.8767   -0.4696 O.2       1 <0>        -0.5135
     35 C29         4.8118   -2.3521   -1.0848 C.3       1 <0>        -0.1795
     36 H3          0.5290    1.6708    1.7560 H         1 <0>         0.0617
     37 H4          1.5623    3.0037    1.1869 H         1 <0>         0.0584
     38 H5         -0.2025    3.0919    0.9728 H         1 <0>         0.0879
     39 H6          2.1945    0.2395    0.2787 H         1 <0>         0.0912
     40 H7          2.9515    1.7406   -0.3096 H         1 <0>         0.0867
     41 H8          2.1064   -1.5327   -3.7014 H         1 <0>         0.1180
     42 H9          0.1553   -2.9053   -4.2920 H         1 <0>         0.1213
     43 H10        -1.9898   -2.5703   -3.1298 H         1 <0>         0.1244
     44 H11        -2.1794   -0.8617   -1.3691 H         1 <0>         0.1675
     45 H12        -0.7557   -1.8963    0.1234 H         1 <0>         0.1334
     46 H13        -2.3463   -3.7720    0.0887 H         1 <0>         0.1345
     47 H14        -5.6104   -1.0338    0.3157 H         1 <0>         0.1298
     48 H15        -4.0367    0.8558    0.3615 H         1 <0>         0.1320
     49 H16        -5.3550   -3.5427   -1.9564 H         1 <0>         0.0576
     50 H17        -6.6578   -4.3684   -1.0681 H         1 <0>         0.0610
     51 H18        -6.5090   -2.5965   -0.9862 H         1 <0>         0.0584
     52 H19        -3.6136   -5.0783    0.9535 H         1 <0>         0.0599
     53 H20        -4.9670   -5.8177    0.0646 H         1 <0>         0.0604
     54 H21        -3.6642   -4.9920   -0.8237 H         1 <0>         0.0602
     55 H22        -6.4381   -2.7178    1.5083 H         1 <0>         0.0585
     56 H23        -6.5869   -4.4896    1.4264 H         1 <0>         0.0610
     57 H24        -5.2335   -3.7503    2.3153 H         1 <0>         0.0576
     58 H25         4.8879    1.7950   -1.8222 H         1 <0>         0.1263
     59 H26         6.7736    2.3670   -3.2967 H         1 <0>         0.1288
     60 H27         7.4812    0.8000   -5.0576 H         1 <0>         0.1269
     61 H28         6.3123   -1.3469   -5.3431 H         1 <0>         0.1292
     62 H29         4.4329   -1.9334   -3.8662 H         1 <0>         0.1255
     63 H30         5.5853   -1.8507   -1.6666 H         1 <0>         0.0827
     64 H31         5.1423   -2.4521   -0.0509 H         1 <0>         0.0954
     65 H32         4.6255   -3.3409   -1.5039 H         1 <0>         0.0961
@<TRIPOS>BOND
     1    1    2 1
     2    1   36 1
     3    1   37 1
     4    1   38 1
     5    2    3 1
     6    2   13 1
     7    2    4 1
     8    4    5 1
     9    4   39 1
    10    4   40 1
    11    5    6 1
    12    5    7 1
    13    5   26 1
    14    7   12 ar
    15    7    8 ar
    16    8    9 ar
    17    8   41 1
    18    9   10 ar
    19    9   42 1
    20   10   11 ar
    21   10   43 1
    22   11   12 ar
    23   11   44 1
    24   12   13 1
    25   13   14 am
    26   14   15 2
    27   14   16 1
    28   16   21 ar
    29   16   17 ar
    30   17   18 ar
    31   17   45 1
    32   18   19 ar
    33   18   46 1
    34   19   20 ar
    35   19   22 1
    36   20   21 ar
    37   20   47 1
    38   21   48 1
    39   22   23 1
    40   22   24 1
    41   22   25 1
    42   23   49 1
    43   23   50 1
    44   23   51 1
    45   24   52 1
    46   24   53 1
    47   24   54 1
    48   25   55 1
    49   25   56 1
    50   25   57 1
    51   26   27 1
    52   26   33 am
    53   27   32 ar
    54   27   28 ar
    55   28   29 ar
    56   28   58 1
    57   29   30 ar
    58   29   59 1
    59   30   31 ar
    60   30   60 1
    61   31   32 ar
    62   31   61 1
    63   32   62 1
    64   33   34 2
    65   33   35 1
    66   35   63 1
    67   35   64 1
    68   35   65 1
@<TRIPOS>MOLECULE
ZINC02836011
   65    68     0     0     0
SMALL
USER_CHARGES
N-[2-methyl-1-(4-tert-butylbenzoyl)-3,4-dihydro-2H-quinolin-4-yl]-N-phenyl-acetamide
@<TRIPOS>ATOM
      1 C1         -1.1576    6.2150   -0.9131 C.3       1 <0>        -0.1504
      2 C2         -0.3909    5.1472   -1.6961 C.3       1 <0>         0.1166
      3 H1         -0.0475    5.5595   -2.6449 H         1 <0>         0.1074
      4 C3         -1.3002    3.9385   -1.9534 C.3       1 <0>        -0.1435
      5 C4         -0.5358    2.9169   -2.7960 C.3       1 <0>         0.1776
      6 H2         -1.1170    1.9970   -2.8600 H         1 <0>         0.1185
      7 C5          0.8025    2.6170   -2.1740 C.ar      1 <0>        -0.1407
      8 C6          1.4510    1.4412   -2.5135 C.ar      1 <0>        -0.0778
      9 C7          2.6835    1.1421   -1.9664 C.ar      1 <0>        -0.1429
     10 C8          3.2786    2.0161   -1.0749 C.ar      1 <0>        -0.0791
     11 C9          2.6385    3.1893   -0.7301 C.ar      1 <0>        -0.1835
     12 C10         1.3969    3.4917   -1.2784 C.ar      1 <0>         0.1842
     13 N1          0.7601    4.6838   -0.9093 N.am      1 <0>        -0.5459
     14 C11         1.1965    5.3940    0.1498 C.2       1 <0>         0.5678
     15 O1          0.7774    6.5188    0.3417 O.2       1 <0>        -0.4985
     16 C12         2.1846    4.8051    1.0781 C.ar      1 <0>        -0.1537
     17 C13         2.0722    3.4690    1.4665 C.ar      1 <0>        -0.0552
     18 C14         3.0008    2.9241    2.3289 C.ar      1 <0>        -0.1359
     19 C15         4.0356    3.7019    2.8175 C.ar      1 <0>        -0.0363
     20 C16         4.1499    5.0283    2.4407 C.ar      1 <0>        -0.1268
     21 C17         3.2310    5.5841    1.5748 C.ar      1 <0>        -0.0625
     22 C18         5.0425    3.1017    3.7647 C.3       1 <0>        -0.0336
     23 C19         5.0168    3.8678    5.0888 C.3       1 <0>        -0.1407
     24 C20         4.6928    1.6339    4.0178 C.3       1 <0>        -0.1465
     25 C21         6.4401    3.1942    3.1490 C.3       1 <0>        -0.1401
     26 N2         -0.3330    3.4545   -4.1437 N.am      1 <0>        -0.5661
     27 C22         0.4295    4.6133   -4.3272 C.ar      1 <0>         0.1469
     28 C23        -0.1771    5.7835   -4.7642 C.ar      1 <0>        -0.1149
     29 C24         0.5773    6.9272   -4.9385 C.ar      1 <0>        -0.1090
     30 C25         1.9373    6.9047   -4.6896 C.ar      1 <0>        -0.1172
     31 C26         2.5455    5.7394   -4.2602 C.ar      1 <0>        -0.1086
     32 C27         1.7956    4.5940   -4.0782 C.ar      1 <0>        -0.1154
     33 C28        -0.8810    2.8330   -5.2066 C.2       1 <0>         0.5144
     34 O2         -0.6267    3.2143   -6.3296 O.2       1 <0>        -0.5228
     35 C29        -1.8098    1.6644   -5.0000 C.3       1 <0>        -0.1786
     36 H3         -0.5632    7.1274   -0.8655 H         1 <0>         0.0902
     37 H4         -2.1034    6.4232   -1.4133 H         1 <0>         0.0580
     38 H5         -1.3523    5.8550    0.0971 H         1 <0>         0.0577
     39 H6         -1.5868    3.4882   -1.0030 H         1 <0>         0.0878
     40 H7         -2.1922    4.2604   -2.4908 H         1 <0>         0.0923
     41 H8          0.9908    0.7549   -3.2089 H         1 <0>         0.1242
     42 H9          3.1836    0.2233   -2.2352 H         1 <0>         0.1253
     43 H10         4.2427    1.7807   -0.6488 H         1 <0>         0.1265
     44 H11         3.1021    3.8727   -0.0341 H         1 <0>         0.1633
     45 H12         1.2624    2.8621    1.0893 H         1 <0>         0.1277
     46 H13         2.9172    1.8895    2.6273 H         1 <0>         0.1349
     47 H14         4.9599    5.6299    2.8257 H         1 <0>         0.1302
     48 H15         3.3209    6.6198    1.2820 H         1 <0>         0.1322
     49 H16         4.0212    3.8019    5.5274 H         1 <0>         0.0576
     50 H17         5.7451    3.4337    5.7739 H         1 <0>         0.0615
     51 H18         5.2659    4.9135    4.9085 H         1 <0>         0.0586
     52 H19         4.7111    1.0881    3.0744 H         1 <0>         0.0603
     53 H20         5.4211    1.1998    4.7028 H         1 <0>         0.0608
     54 H21         3.6971    1.5680    4.4564 H         1 <0>         0.0597
     55 H22         6.6892    4.2399    2.9687 H         1 <0>         0.0585
     56 H23         7.1684    2.7601    3.8340 H         1 <0>         0.0614
     57 H24         6.4584    2.6484    2.2056 H         1 <0>         0.0577
     58 H25        -1.2385    5.8005   -4.9633 H         1 <0>         0.1224
     59 H26         0.1052    7.8389   -5.2737 H         1 <0>         0.1276
     60 H27         2.5259    7.7991   -4.8312 H         1 <0>         0.1248
     61 H28         3.6079    5.7251   -4.0667 H         1 <0>         0.1239
     62 H29         2.2710    3.6843   -3.7421 H         1 <0>         0.1255
     63 H30        -2.8358    2.0245   -4.9254 H         1 <0>         0.0995
     64 H31        -1.7254    0.9796   -5.8438 H         1 <0>         0.0982
     65 H32        -1.5398    1.1438   -4.0811 H         1 <0>         0.0845
@<TRIPOS>BOND
     1    1    2 1
     2    1   36 1
     3    1   37 1
     4    1   38 1
     5    2    3 1
     6    2   13 1
     7    2    4 1
     8    4    5 1
     9    4   39 1
    10    4   40 1
    11    5    6 1
    12    5    7 1
    13    5   26 1
    14    7   12 ar
    15    7    8 ar
    16    8    9 ar
    17    8   41 1
    18    9   10 ar
    19    9   42 1
    20   10   11 ar
    21   10   43 1
    22   11   12 ar
    23   11   44 1
    24   12   13 1
    25   13   14 am
    26   14   15 2
    27   14   16 1
    28   16   21 ar
    29   16   17 ar
    30   17   18 ar
    31   17   45 1
    32   18   19 ar
    33   18   46 1
    34   19   20 ar
    35   19   22 1
    36   20   21 ar
    37   20   47 1
    38   21   48 1
    39   22   23 1
    40   22   24 1
    41   22   25 1
    42   23   49 1
    43   23   50 1
    44   23   51 1
    45   24   52 1
    46   24   53 1
    47   24   54 1
    48   25   55 1
    49   25   56 1
    50   25   57 1
    51   26   27 1
    52   26   33 am
    53   27   32 ar
    54   27   28 ar
    55   28   29 ar
    56   28   58 1
    57   29   30 ar
    58   29   59 1
    59   30   31 ar
    60   30   60 1
    61   31   32 ar
    62   31   61 1
    63   32   62 1
    64   33   34 2
    65   33   35 1
    66   35   63 1
    67   35   64 1
    68   35   65 1
@<TRIPOS>MOLECULE
ZINC02836012
   65    68     0     0     0
SMALL
USER_CHARGES
N-[2-methyl-1-(4-tert-butylbenzoyl)-3,4-dihydro-2H-quinolin-4-yl]-N-phenyl-acetamide
@<TRIPOS>ATOM
      1 C1          1.2970   -1.0264    9.5079 C.3       1 <0>        -0.1781
      2 C2          1.9663   -1.6003    8.2574 C.3       1 <0>         0.1050
      3 H1          3.0245   -1.3390    8.2513 H         1 <0>         0.1305
      4 C3          1.8090   -3.1226    8.2429 C.3       1 <0>        -0.1501
      5 C4          0.3223   -3.4693    8.3181 C.3       1 <0>         0.1982
      6 H2         -0.0591   -3.2061    9.3047 H         1 <0>         0.1023
      7 C5         -0.4492   -2.7130    7.2690 C.ar      1 <0>        -0.1191
      8 C6         -1.6938   -3.1830    6.8836 C.ar      1 <0>        -0.0889
      9 C7         -2.4298   -2.5063    5.9306 C.ar      1 <0>        -0.1415
     10 C8         -1.9276   -1.3538    5.3540 C.ar      1 <0>        -0.0963
     11 C9         -0.6871   -0.8801    5.7304 C.ar      1 <0>        -0.1596
     12 C10         0.0562   -1.5604    6.6887 C.ar      1 <0>         0.1749
     13 N1          1.3147   -1.0651    7.0542 N.am      1 <0>        -0.5383
     14 C11         1.9201   -0.1174    6.3113 C.2       1 <0>         0.5641
     15 O1          1.3465    0.3620    5.3528 O.2       1 <0>        -0.5094
     16 C12         3.2816    0.3388    6.6620 C.ar      1 <0>        -0.1382
     17 C13         4.1568    0.7669    5.6623 C.ar      1 <0>        -0.0550
     18 C14         5.4262    1.1911    5.9965 C.ar      1 <0>        -0.1201
     19 C15         5.8328    1.1924    7.3190 C.ar      1 <0>        -0.0412
     20 C16         4.9722    0.7641    8.3142 C.ar      1 <0>        -0.1276
     21 C17         3.6980    0.3432    7.9944 C.ar      1 <0>        -0.1106
     22 C18         7.2212    1.6567    7.6765 C.3       1 <0>        -0.0344
     23 C19         7.4043    3.1086    7.2299 C.3       1 <0>        -0.1405
     24 C20         8.2519    0.7725    6.9717 C.3       1 <0>        -0.1404
     25 C21         7.4171    1.5603    9.1909 C.3       1 <0>        -0.1465
     26 N2          0.1504   -4.9080    8.1014 N.am      1 <0>        -0.5650
     27 C22        -0.4919   -5.6893    9.0683 C.ar      1 <0>         0.1382
     28 C23        -1.6077   -6.4419    8.7259 C.ar      1 <0>        -0.1300
     29 C24        -2.2365   -7.2159    9.6814 C.ar      1 <0>        -0.0997
     30 C25        -1.7623   -7.2340   10.9803 C.ar      1 <0>        -0.1226
     31 C26        -0.6546   -6.4816   11.3256 C.ar      1 <0>        -0.1004
     32 C27        -0.0184   -5.7094   10.3736 C.ar      1 <0>        -0.1285
     33 C28         0.6109   -5.4789    6.9707 C.2       1 <0>         0.5167
     34 O2          1.0850   -4.7893    6.0928 O.2       1 <0>        -0.5117
     35 C29         0.5368   -6.9740    6.7973 C.3       1 <0>        -0.1756
     36 H3          0.2429   -1.3035    9.5154 H         1 <0>         0.0707
     37 H4          1.7843   -1.4267   10.3969 H         1 <0>         0.0810
     38 H5          1.3872    0.0599    9.5021 H         1 <0>         0.0695
     39 H6          2.3279   -3.5522    9.0998 H         1 <0>         0.0864
     40 H7          2.2314   -3.5238    7.3216 H         1 <0>         0.0995
     41 H8         -2.0907   -4.0824    7.3305 H         1 <0>         0.1180
     42 H9         -3.3997   -2.8782    5.6348 H         1 <0>         0.1200
     43 H10        -2.5052   -0.8254    4.6099 H         1 <0>         0.1247
     44 H11        -0.2936    0.0196    5.2808 H         1 <0>         0.1759
     45 H12         3.8407    0.7663    4.6296 H         1 <0>         0.1341
     46 H13         6.1044    1.5225    5.2240 H         1 <0>         0.1306
     47 H14         5.2974    0.7631    9.3441 H         1 <0>         0.1354
     48 H15         3.0256    0.0136    8.7726 H         1 <0>         0.1491
     49 H16         6.6700    3.7385    7.7321 H         1 <0>         0.0578
     50 H17         7.2648    3.1772    6.1511 H         1 <0>         0.0587
     51 H18         8.4085    3.4444    7.4885 H         1 <0>         0.0617
     52 H19         9.2561    1.1083    7.2303 H         1 <0>         0.0617
     53 H20         8.1215   -0.2619    7.2899 H         1 <0>         0.0576
     54 H21         8.1124    0.8411    5.8929 H         1 <0>         0.0586
     55 H22         6.6828    2.1903    9.6930 H         1 <0>         0.0601
     56 H23         7.2866    0.5260    9.5090 H         1 <0>         0.0599
     57 H24         8.4213    1.8961    9.4495 H         1 <0>         0.0613
     58 H25        -1.9812   -6.4247    7.7127 H         1 <0>         0.1254
     59 H26        -3.1022   -7.8040    9.4150 H         1 <0>         0.1289
     60 H27        -2.2582   -7.8369   11.7266 H         1 <0>         0.1266
     61 H28        -0.2869   -6.4977   12.3409 H         1 <0>         0.1284
     62 H29         0.8466   -5.1220   10.6440 H         1 <0>         0.1259
     63 H30        -0.3716   -7.2321    6.2528 H         1 <0>         0.0952
     64 H31         1.4062   -7.3184    6.2374 H         1 <0>         0.0943
     65 H32         0.5220   -7.4531    7.7763 H         1 <0>         0.0828
@<TRIPOS>BOND
     1    1    2 1
     2    1   36 1
     3    1   37 1
     4    1   38 1
     5    2    3 1
     6    2   13 1
     7    2    4 1
     8    4    5 1
     9    4   39 1
    10    4   40 1
    11    5    6 1
    12    5    7 1
    13    5   26 1
    14    7   12 ar
    15    7    8 ar
    16    8    9 ar
    17    8   41 1
    18    9   10 ar
    19    9   42 1
    20   10   11 ar
    21   10   43 1
    22   11   12 ar
    23   11   44 1
    24   12   13 1
    25   13   14 am
    26   14   15 2
    27   14   16 1
    28   16   21 ar
    29   16   17 ar
    30   17   18 ar
    31   17   45 1
    32   18   19 ar
    33   18   46 1
    34   19   20 ar
    35   19   22 1
    36   20   21 ar
    37   20   47 1
    38   21   48 1
    39   22   23 1
    40   22   24 1
    41   22   25 1
    42   23   49 1
    43   23   50 1
    44   23   51 1
    45   24   52 1
    46   24   53 1
    47   24   54 1
    48   25   55 1
    49   25   56 1
    50   25   57 1
    51   26   27 1
    52   26   33 am
    53   27   32 ar
    54   27   28 ar
    55   28   29 ar
    56   28   58 1
    57   29   30 ar
    58   29   59 1
    59   30   31 ar
    60   30   60 1
    61   31   32 ar
    62   31   61 1
    63   32   62 1
    64   33   34 2
    65   33   35 1
    66   35   63 1
    67   35   64 1
    68   35   65 1
@<TRIPOS>MOLECULE
ZINC02836013
   65    68     0     0     0
SMALL
USER_CHARGES
N-[2-methyl-1-(4-tert-butylbenzoyl)-3,4-dihydro-2H-quinolin-4-yl]-N-phenyl-acetamide
@<TRIPOS>ATOM
      1 C1         -8.2388   -0.8098    2.0248 C.3       1 <0>        -0.1477
      2 C2         -8.2640    0.7191    1.9723 C.3       1 <0>         0.1441
      3 H1         -8.2059    1.1248    2.9823 H         1 <0>         0.0824
      4 C3         -9.5555    1.1925    1.3020 C.3       1 <0>        -0.1483
      5 C4         -9.5923    2.7205    1.3180 C.3       1 <0>         0.1991
      6 H2         -9.7230    3.0670    2.3432 H         1 <0>         0.0998
      7 C5         -8.3116    3.2845    0.7615 C.ar      1 <0>        -0.1141
      8 C6         -8.3011    4.5880    0.2936 C.ar      1 <0>        -0.0837
      9 C7         -7.1403    5.1363   -0.2162 C.ar      1 <0>        -0.1397
     10 C8         -5.9795    4.3858   -0.2625 C.ar      1 <0>        -0.0866
     11 C9         -5.9816    3.0855    0.2006 C.ar      1 <0>        -0.1834
     12 C10        -7.1495    2.5310    0.7127 C.ar      1 <0>         0.1766
     13 N1         -7.1317    1.2082    1.1738 N.am      1 <0>        -0.5485
     14 C11        -6.0957    0.3959    0.8849 C.2       1 <0>         0.5700
     15 O1         -6.0057   -0.6897    1.4245 O.2       1 <0>        -0.5034
     16 C12        -5.0690    0.8252   -0.0879 C.ar      1 <0>        -0.1585
     17 C13        -3.7174    0.5887    0.1691 C.ar      1 <0>        -0.0617
     18 C14        -2.7642    0.9923   -0.7428 C.ar      1 <0>        -0.1308
     19 C15        -3.1452    1.6306   -1.9098 C.ar      1 <0>        -0.0354
     20 C16        -4.4827    1.8731   -2.1680 C.ar      1 <0>        -0.1399
     21 C17        -5.4465    1.4692   -1.2674 C.ar      1 <0>        -0.0471
     22 C18        -2.0983    2.0691   -2.9011 C.3       1 <0>        -0.0334
     23 C19        -1.3111    0.8495   -3.3846 C.3       1 <0>        -0.1403
     24 C20        -1.1439    3.0592   -2.2305 C.3       1 <0>        -0.1396
     25 C21        -2.7772    2.7439   -4.0948 C.3       1 <0>        -0.1466
     26 N2        -10.7190    3.1824    0.5035 N.am      1 <0>        -0.5692
     27 C22       -11.7953    3.8415    1.1076 C.ar      1 <0>         0.1291
     28 C23       -11.9640    5.2081    0.9276 C.ar      1 <0>        -0.1202
     29 C24       -13.0307    5.8547    1.5206 C.ar      1 <0>        -0.1065
     30 C25       -13.9239    5.1448    2.3019 C.ar      1 <0>        -0.1146
     31 C26       -13.7551    3.7850    2.4881 C.ar      1 <0>        -0.1058
     32 C27       -12.6938    3.1314    1.8932 C.ar      1 <0>        -0.1174
     33 C28       -10.7188    2.9723   -0.8278 C.2       1 <0>         0.5210
     34 O2         -9.8359    2.3156   -1.3381 O.2       1 <0>        -0.5168
     35 C29       -11.8156    3.5534   -1.6824 C.3       1 <0>        -0.1802
     36 H3         -7.4114   -1.1382    2.6538 H         1 <0>         0.0894
     37 H4         -9.1782   -1.1746    2.4403 H         1 <0>         0.0584
     38 H5         -8.1090   -1.2059    1.0176 H         1 <0>         0.0609
     39 H6        -10.4150    0.8008    1.8460 H         1 <0>         0.0855
     40 H7         -9.5803    0.8375    0.2717 H         1 <0>         0.0954
     41 H8         -9.2047    5.1787    0.3277 H         1 <0>         0.1188
     42 H9         -7.1391    6.1534   -0.5791 H         1 <0>         0.1218
     43 H10        -5.0725    4.8167   -0.6600 H         1 <0>         0.1247
     44 H11        -5.0758    2.4984    0.1650 H         1 <0>         0.1670
     45 H12        -3.4187    0.0912    1.0799 H         1 <0>         0.1321
     46 H13        -1.7182    0.8100   -0.5453 H         1 <0>         0.1298
     47 H14        -4.7731    2.3761   -3.0786 H         1 <0>         0.1345
     48 H15        -6.4905    1.6555   -1.4720 H         1 <0>         0.1329
     49 H16        -0.8275    0.3688   -2.5342 H         1 <0>         0.0585
     50 H17        -0.5539    1.1667   -4.1016 H         1 <0>         0.0611
     51 H18        -1.9911    0.1442   -3.8623 H         1 <0>         0.0576
     52 H19        -0.3867    3.3764   -2.9476 H         1 <0>         0.0610
     53 H20        -1.7047    3.9281   -1.8861 H         1 <0>         0.0576
     54 H21        -0.6603    2.5785   -1.3802 H         1 <0>         0.0584
     55 H22        -3.4571    2.0386   -4.5725 H         1 <0>         0.0599
     56 H23        -3.3380    3.6128   -3.7504 H         1 <0>         0.0602
     57 H24        -2.0200    3.0611   -4.8118 H         1 <0>         0.0604
     58 H25       -11.2642    5.7640    0.3212 H         1 <0>         0.1261
     59 H26       -13.1648    6.9168    1.3777 H         1 <0>         0.1293
     60 H27       -14.7548    5.6534    2.7679 H         1 <0>         0.1273
     61 H28       -14.4542    3.2333    3.0991 H         1 <0>         0.1289
     62 H29       -12.5625    2.0694    2.0390 H         1 <0>         0.1263
     63 H30       -12.4991    4.1268   -1.0561 H         1 <0>         0.0823
     64 H31       -11.3798    4.2073   -2.4378 H         1 <0>         0.0963
     65 H32       -12.3613    2.7465   -2.1715 H         1 <0>         0.0949
@<TRIPOS>BOND
     1    1    2 1
     2    1   36 1
     3    1   37 1
     4    1   38 1
     5    2    3 1
     6    2   13 1
     7    2    4 1
     8    4    5 1
     9    4   39 1
    10    4   40 1
    11    5    6 1
    12    5    7 1
    13    5   26 1
    14    7   12 ar
    15    7    8 ar
    16    8    9 ar
    17    8   41 1
    18    9   10 ar
    19    9   42 1
    20   10   11 ar
    21   10   43 1
    22   11   12 ar
    23   11   44 1
    24   12   13 1
    25   13   14 am
    26   14   15 2
    27   14   16 1
    28   16   21 ar
    29   16   17 ar
    30   17   18 ar
    31   17   45 1
    32   18   19 ar
    33   18   46 1
    34   19   20 ar
    35   19   22 1
    36   20   21 ar
    37   20   47 1
    38   21   48 1
    39   22   23 1
    40   22   24 1
    41   22   25 1
    42   23   49 1
    43   23   50 1
    44   23   51 1
    45   24   52 1
    46   24   53 1
    47   24   54 1
    48   25   55 1
    49   25   56 1
    50   25   57 1
    51   26   27 1
    52   26   33 am
    53   27   32 ar
    54   27   28 ar
    55   28   29 ar
    56   28   58 1
    57   29   30 ar
    58   29   59 1
    59   30   31 ar
    60   30   60 1
    61   31   32 ar
    62   31   61 1
    63   32   62 1
    64   33   34 2
    65   33   35 1
    66   35   63 1
    67   35   64 1
    68   35   65 1
@<TRIPOS>MOLECULE
ZINC00825994
   53    56     0     0     0
SMALL
USER_CHARGES

@<TRIPOS>ATOM
      1 C1          0.1110    0.7801   -0.7154 C.3       1 <0>        -0.1570
      2 C2         -0.6105   -0.2552    0.1497 C.3       1 <0>         0.1447
      3 H1         -1.6183    0.0920    0.3774 H         1 <0>         0.0881
      4 C3         -0.6783   -1.5962   -0.5928 C.3       1 <0>        -0.1550
      5 C4         -1.4630   -2.5934    0.2594 C.3       1 <0>         0.1735
      6 H2         -2.5097   -2.2912    0.2947 H         1 <0>         0.1201
      7 C5         -0.9114   -2.6388    1.6600 C.ar      1 <0>        -0.1356
      8 C6         -1.1733   -3.7475    2.4478 C.ar      1 <0>        -0.0729
      9 C7         -0.6837   -3.8174    3.7374 C.ar      1 <0>        -0.1348
     10 C8          0.0715   -2.7789    4.2513 C.ar      1 <0>        -0.0813
     11 C9          0.3380   -1.6709    3.4725 C.ar      1 <0>        -0.1750
     12 C10        -0.1522   -1.5991    2.1733 C.ar      1 <0>         0.1681
     13 N1          0.1361   -0.4686    1.3970 N.am      1 <0>        -0.5553
     14 C11         1.0830    0.4075    1.7871 C.2       1 <0>         0.5701
     15 O1          1.1543    1.5003    1.2595 O.2       1 <0>        -0.4963
     16 C12         2.0347    0.0396    2.8566 C.ar      1 <0>        -0.1521
     17 C13         2.5275   -1.2638    2.9385 C.ar      1 <0>        -0.0596
     18 C14         3.4159   -1.6004    3.9388 C.ar      1 <0>        -0.1340
     19 C15         3.8186   -0.6494    4.8595 C.ar      1 <0>        -0.0858
     20 C16         3.3336    0.6443    4.7843 C.ar      1 <0>        -0.1303
     21 C17         2.4492    0.9956    3.7855 C.ar      1 <0>        -0.0637
     22 N2         -1.3645   -3.9258   -0.3417 N.am      1 <0>        -0.5442
     23 C18        -0.1127   -4.5298   -0.5029 C.ar      1 <0>         0.1530
     24 C19         1.0202   -3.9391    0.0414 C.ar      1 <0>        -0.1586
     25 C20         2.2543   -4.5381   -0.1190 C.ar      1 <0>        -0.1009
     26 C21         2.3626   -5.7247   -0.8207 C.ar      1 <0>        -0.1413
     27 C22         1.2364   -6.3155   -1.3638 C.ar      1 <0>        -0.0992
     28 C23        -0.0013   -5.7243   -1.2024 C.ar      1 <0>        -0.1608
     29 C24        -2.4797   -4.5697   -0.7396 C.2       1 <0>         0.5120
     30 O2         -2.4098   -5.7122   -1.1406 O.2       1 <0>        -0.5124
     31 C25        -3.8134   -3.8701   -0.6861 C.3       1 <0>        -0.1810
     32 H3          1.1586    0.4983   -0.8216 H         1 <0>         0.0593
     33 H4         -0.3560    0.8203   -1.6995 H         1 <0>         0.0640
     34 H5          0.0445    1.7594   -0.2414 H         1 <0>         0.0965
     35 H6         -1.1814   -1.4586   -1.5499 H         1 <0>         0.0957
     36 H7          0.3309   -1.9729   -0.7594 H         1 <0>         0.0927
     37 H8         -1.7634   -4.5608    2.0520 H         1 <0>         0.1215
     38 H9         -0.8914   -4.6850    4.3462 H         1 <0>         0.1257
     39 H10         0.4525   -2.8351    5.2603 H         1 <0>         0.1287
     40 H11         0.9274   -0.8591    3.8726 H         1 <0>         0.1597
     41 H12         2.2137   -2.0072    2.2206 H         1 <0>         0.1274
     42 H13         3.7977   -2.6086    4.0036 H         1 <0>         0.1310
     43 H14         4.5143   -0.9181    5.6407 H         1 <0>         0.1297
     44 H15         3.6514    1.3817    5.5065 H         1 <0>         0.1325
     45 H16         2.0751    2.0069    3.7250 H         1 <0>         0.1340
     46 H17         0.9363   -3.0121    0.5891 H         1 <0>         0.1296
     47 H18         3.1358   -4.0790    0.3036 H         1 <0>         0.1204
     48 H19         3.3288   -6.1910   -0.9450 H         1 <0>         0.1200
     49 H20         1.3243   -7.2423   -1.9112 H         1 <0>         0.1239
     50 H21        -0.8811   -6.1883   -1.6233 H         1 <0>         0.1743
     51 H22        -4.0066   -3.3828   -1.6418 H         1 <0>         0.1026
     52 H23        -4.5982   -4.5991   -0.4846 H         1 <0>         0.1019
     53 H24        -3.7999   -3.1223    0.1069 H         1 <0>         0.0862
@<TRIPOS>BOND
     1    1    2 1
     2    1   32 1
     3    1   33 1
     4    1   34 1
     5    2    3 1
     6    2   13 1
     7    2    4 1
     8    4    5 1
     9    4   35 1
    10    4   36 1
    11    5    6 1
    12    5    7 1
    13    5   22 1
    14    7   12 ar
    15    7    8 ar
    16    8    9 ar
    17    8   37 1
    18    9   10 ar
    19    9   38 1
    20   10   11 ar
    21   10   39 1
    22   11   12 ar
    23   11   40 1
    24   12   13 1
    25   13   14 am
    26   14   15 2
    27   14   16 1
    28   16   21 ar
    29   16   17 ar
    30   17   18 ar
    31   17   41 1
    32   18   19 ar
    33   18   42 1
    34   19   20 ar
    35   19   43 1
    36   20   21 ar
    37   20   44 1
    38   21   45 1
    39   22   23 1
    40   22   29 am
    41   23   28 ar
    42   23   24 ar
    43   24   25 ar
    44   24   46 1
    45   25   26 ar
    46   25   47 1
    47   26   27 ar
    48   26   48 1
    49   27   28 ar
    50   27   49 1
    51   28   50 1
    52   29   30 2
    53   29   31 1
    54   31   51 1
    55   31   52 1
    56   31   53 1
@<TRIPOS>MOLECULE
ZINC00825997
   53    56     0     0     0
SMALL
USER_CHARGES

@<TRIPOS>ATOM
      1 C1         -0.8114    1.0744   -0.2661 C.3       1 <0>        -0.1497
      2 C2          0.2546    0.0248   -0.5867 C.3       1 <0>         0.1434
      3 H1          0.8339    0.3402   -1.4544 H         1 <0>         0.0880
      4 C3         -0.4152   -1.3258   -0.8720 C.3       1 <0>        -0.1589
      5 C4          0.6619   -2.3396   -1.2574 C.3       1 <0>         0.1902
      6 H2          1.0759   -2.0726   -2.2297 H         1 <0>         0.1093
      7 C5          1.7659   -2.3509   -0.2332 C.ar      1 <0>        -0.1343
      8 C6          2.5927   -3.4591   -0.1514 C.ar      1 <0>        -0.0813
      9 C7          3.6159   -3.4983    0.7756 C.ar      1 <0>        -0.1344
     10 C8          3.8222   -2.4293    1.6286 C.ar      1 <0>        -0.0821
     11 C9          3.0022   -1.3215    1.5543 C.ar      1 <0>        -0.1846
     12 C10         1.9702   -1.2806    0.6231 C.ar      1 <0>         0.1662
     13 N1          1.1447   -0.1496    0.5693 N.am      1 <0>        -0.5521
     14 C11         1.1656    0.7624    1.5614 C.2       1 <0>         0.5690
     15 O1          0.5707    1.8146    1.4325 O.2       1 <0>        -0.4963
     16 C12         1.9120    0.4830    2.8063 C.ar      1 <0>        -0.1543
     17 C13         1.8470   -0.7815    3.3939 C.ar      1 <0>        -0.0559
     18 C14         2.5463   -1.0357    4.5556 C.ar      1 <0>        -0.1378
     19 C15         3.3110   -0.0406    5.1382 C.ar      1 <0>        -0.0852
     20 C16         3.3794    1.2151    4.5612 C.ar      1 <0>        -0.1308
     21 C17         2.6895    1.4809    3.3964 C.ar      1 <0>        -0.0642
     22 N2          0.0633   -3.6743   -1.3368 N.am      1 <0>        -0.5641
     23 C18         0.0076   -4.3442   -2.5641 C.ar      1 <0>         0.1387
     24 C19        -0.6378   -3.7609   -3.6465 C.ar      1 <0>        -0.1277
     25 C20        -0.6906   -4.4245   -4.8567 C.ar      1 <0>        -0.1068
     26 C21        -0.1016   -5.6683   -4.9911 C.ar      1 <0>        -0.1214
     27 C22         0.5419   -6.2518   -3.9151 C.ar      1 <0>        -0.1060
     28 C23         0.6027   -5.5912   -2.7038 C.ar      1 <0>        -0.1054
     29 C24        -0.4338   -4.2571   -0.2279 C.2       1 <0>         0.5235
     30 O2         -0.8643   -5.3898   -0.2791 O.2       1 <0>        -0.5225
     31 C25        -0.4548   -3.5012    1.0757 C.3       1 <0>        -0.1929
     32 H3         -0.3508    2.0618   -0.2332 H         1 <0>         0.0907
     33 H4         -1.5810    1.0581   -1.0378 H         1 <0>         0.0612
     34 H5         -1.2619    0.8512    0.7010 H         1 <0>         0.0619
     35 H6         -0.9381   -1.6699    0.0203 H         1 <0>         0.0898
     36 H7         -1.1236   -1.2158   -1.6931 H         1 <0>         0.0957
     37 H8          2.4365   -4.2965   -0.8152 H         1 <0>         0.1253
     38 H9          4.2567   -4.3657    0.8343 H         1 <0>         0.1266
     39 H10         4.6235   -2.4614    2.3520 H         1 <0>         0.1293
     40 H11         3.1623   -0.4859    2.2195 H         1 <0>         0.1703
     41 H12         1.2502   -1.5590    2.9404 H         1 <0>         0.1286
     42 H13         2.4966   -2.0135    5.0114 H         1 <0>         0.1321
     43 H14         3.8566   -0.2448    6.0476 H         1 <0>         0.1302
     44 H15         3.9775    1.9877    5.0214 H         1 <0>         0.1328
     45 H16         2.7476    2.4600    2.9444 H         1 <0>         0.1338
     46 H17        -1.0983   -2.7896   -3.5421 H         1 <0>         0.1239
     47 H18        -1.1927   -3.9716   -5.6988 H         1 <0>         0.1273
     48 H19        -0.1446   -6.1853   -5.9383 H         1 <0>         0.1254
     49 H20         1.0009   -7.2234   -4.0233 H         1 <0>         0.1270
     50 H21         1.1090   -6.0456   -1.8650 H         1 <0>         0.1227
     51 H22        -1.4127   -2.9929    1.1855 H         1 <0>         0.0952
     52 H23        -0.3165   -4.1983    1.9021 H         1 <0>         0.0945
     53 H24         0.3497   -2.7658    1.0822 H         1 <0>         0.0963
@<TRIPOS>BOND
     1    1    2 1
     2    1   32 1
     3    1   33 1
     4    1   34 1
     5    2    3 1
     6    2   13 1
     7    2    4 1
     8    4    5 1
     9    4   35 1
    10    4   36 1
    11    5    6 1
    12    5    7 1
    13    5   22 1
    14    7   12 ar
    15    7    8 ar
    16    8    9 ar
    17    8   37 1
    18    9   10 ar
    19    9   38 1
    20   10   11 ar
    21   10   39 1
    22   11   12 ar
    23   11   40 1
    24   12   13 1
    25   13   14 am
    26   14   15 2
    27   14   16 1
    28   16   21 ar
    29   16   17 ar
    30   17   18 ar
    31   17   41 1
    32   18   19 ar
    33   18   42 1
    34   19   20 ar
    35   19   43 1
    36   20   21 ar
    37   20   44 1
    38   21   45 1
    39   22   23 1
    40   22   29 am
    41   23   28 ar
    42   23   24 ar
    43   24   25 ar
    44   24   46 1
    45   25   26 ar
    46   25   47 1
    47   26   27 ar
    48   26   48 1
    49   27   28 ar
    50   27   49 1
    51   28   50 1
    52   29   30 2
    53   29   31 1
    54   31   51 1
    55   31   52 1
    56   31   53 1
@<TRIPOS>MOLECULE
ZINC04091154
   57    60     0     0     0
SMALL
USER_CHARGES
N-[1-(3-methoxybenzoyl)-2-methyl-3,4-dihydro-2H-quinolin-4-yl]-N-phenyl-acetamide
@<TRIPOS>ATOM
      1 C1          1.8698   -3.2902    0.8780 C.3       1 <0>        -0.1489
      2 C2          1.7631   -2.5778   -0.4718 C.3       1 <0>         0.1442
      3 H1          1.6568   -3.3129   -1.2696 H         1 <0>         0.0842
      4 C3          3.0180   -1.7284   -0.7116 C.3       1 <0>        -0.1484
      5 C4          2.9206   -1.0818   -2.0932 C.3       1 <0>         0.1975
      6 H2          3.0098   -1.8529   -2.8584 H         1 <0>         0.1010
      7 C5          1.6011   -0.3738   -2.2524 C.ar      1 <0>        -0.1126
      8 C6          1.4814    0.6113   -3.2186 C.ar      1 <0>        -0.0839
      9 C7          0.2819    1.2733   -3.3942 C.ar      1 <0>        -0.1380
     10 C8         -0.8089    0.9558   -2.6053 C.ar      1 <0>        -0.0879
     11 C9         -0.6977   -0.0236   -1.6392 C.ar      1 <0>        -0.1800
     12 C10         0.5094   -0.6900   -1.4593 C.ar      1 <0>         0.1740
     13 N1          0.6039   -1.6750   -0.4676 N.am      1 <0>        -0.5464
     14 C11        -0.3525   -1.7923    0.4748 C.2       1 <0>         0.5704
     15 O1         -0.3413   -2.7387    1.2376 O.2       1 <0>        -0.4982
     16 C12        -1.4150   -0.7700    0.5808 C.ar      1 <0>        -0.1089
     17 C13        -1.0950    0.5856    0.4850 C.ar      1 <0>        -0.0919
     18 C14        -2.0891    1.5370    0.5845 C.ar      1 <0>        -0.0964
     19 C15        -3.4032    1.1525    0.7790 C.ar      1 <0>        -0.1799
     20 C16        -3.7311   -0.1929    0.8750 C.ar      1 <0>         0.1178
     21 C17        -2.7418   -1.1565    0.7713 C.ar      1 <0>        -0.0988
     22 O2         -5.0243   -0.5649    1.0658 O.3       1 <0>        -0.3136
     23 C18        -5.9934    0.4812    1.1582 C.3       1 <0>         0.0257
     24 N2          4.0101   -0.1152   -2.2517 N.am      1 <0>        -0.5662
     25 C19         5.0131   -0.3411   -3.2008 C.ar      1 <0>         0.1338
     26 C20         5.1940    0.5527   -4.2482 C.ar      1 <0>        -0.1266
     27 C21         6.1890    0.3302   -5.1799 C.ar      1 <0>        -0.1035
     28 C22         6.9969   -0.7874   -5.0773 C.ar      1 <0>        -0.1191
     29 C23         6.8153   -1.6825   -4.0390 C.ar      1 <0>        -0.1023
     30 C24         5.8261   -1.4625   -3.1006 C.ar      1 <0>        -0.1233
     31 C25         4.0462    0.9915   -1.4834 C.2       1 <0>         0.5201
     32 O3          3.2279    1.1443   -0.6013 O.2       1 <0>        -0.5150
     33 C26         5.1032    2.0391   -1.7204 C.3       1 <0>        -0.1856
     34 H3          1.8080   -2.5567    1.6819 H         1 <0>         0.0615
     35 H4          1.0541   -4.0065    0.9763 H         1 <0>         0.0908
     36 H5          2.8233   -3.8150    0.9375 H         1 <0>         0.0587
     37 H6          3.9028   -2.3635   -0.6673 H         1 <0>         0.0859
     38 H7          3.0870   -0.9523    0.0507 H         1 <0>         0.0960
     39 H8          2.3298    0.8630   -3.8376 H         1 <0>         0.1193
     40 H9          0.1955    2.0406   -4.1493 H         1 <0>         0.1223
     41 H10        -1.7476    1.4705   -2.7481 H         1 <0>         0.1252
     42 H11        -1.5486   -0.2724   -1.0223 H         1 <0>         0.1647
     43 H12        -0.0697    0.8893    0.3335 H         1 <0>         0.1365
     44 H13        -1.8404    2.5853    0.5099 H         1 <0>         0.1342
     45 H14        -4.1772    1.9018    0.8561 H         1 <0>         0.1346
     46 H15        -2.9962   -2.2038    0.8413 H         1 <0>         0.1418
     47 H16        -5.7483    1.1303    1.9989 H         1 <0>         0.0574
     48 H17        -5.9889    1.0631    0.2366 H         1 <0>         0.0573
     49 H18        -6.9821    0.0482    1.3097 H         1 <0>         0.1030
     50 H19         4.5603    1.4232   -4.3316 H         1 <0>         0.1271
     51 H20         6.3334    1.0274   -5.9919 H         1 <0>         0.1295
     52 H21         7.7711   -0.9617   -5.8098 H         1 <0>         0.1270
     53 H22         7.4479   -2.5545   -3.9617 H         1 <0>         0.1289
     54 H23         5.6848   -2.1620   -2.2900 H         1 <0>         0.1264
     55 H24         5.7021    1.7613   -2.5878 H         1 <0>         0.0867
     56 H25         4.6261    3.0022   -1.9018 H         1 <0>         0.0967
     57 H26         5.7461    2.1116   -0.8432 H         1 <0>         0.0951
@<TRIPOS>BOND
     1    1    2 1
     2    1   34 1
     3    1   35 1
     4    1   36 1
     5    2    3 1
     6    2   13 1
     7    2    4 1
     8    4    5 1
     9    4   37 1
    10    4   38 1
    11    5    6 1
    12    5    7 1
    13    5   24 1
    14    7   12 ar
    15    7    8 ar
    16    8    9 ar
    17    8   39 1
    18    9   10 ar
    19    9   40 1
    20   10   11 ar
    21   10   41 1
    22   11   12 ar
    23   11   42 1
    24   12   13 1
    25   13   14 am
    26   14   15 2
    27   14   16 1
    28   16   21 ar
    29   16   17 ar
    30   17   18 ar
    31   17   43 1
    32   18   19 ar
    33   18   44 1
    34   19   20 ar
    35   19   45 1
    36   20   21 ar
    37   20   22 1
    38   21   46 1
    39   22   23 1
    40   23   47 1
    41   23   48 1
    42   23   49 1
    43   24   25 1
    44   24   31 am
    45   25   30 ar
    46   25   26 ar
    47   26   27 ar
    48   26   50 1
    49   27   28 ar
    50   27   51 1
    51   28   29 ar
    52   28   52 1
    53   29   30 ar
    54   29   53 1
    55   30   54 1
    56   31   32 2
    57   31   33 1
    58   33   55 1
    59   33   56 1
    60   33   57 1
@<TRIPOS>MOLECULE
ZINC04671767
   55    57     0     0     0
SMALL
USER_CHARGES
N-(2-methyl-1-pentanoyl-3,4-dihydro-2H-quinolin-4-yl)-N-phenyl-acetamide
@<TRIPOS>ATOM
      1 C1         -3.4833    7.5094   -2.0313 C.3       1 <0>        -0.1540
      2 C2         -3.6894    6.1546   -1.3511 C.3       1 <0>        -0.1235
      3 C3         -2.4451    5.2876   -1.5538 C.3       1 <0>        -0.1139
      4 C4         -2.6511    3.9327   -0.8735 C.3       1 <0>        -0.1635
      5 C5         -1.4255    3.0789   -1.0732 C.2       1 <0>         0.5174
      6 O1         -0.5546    3.4374   -1.8374 O.2       1 <0>        -0.5107
      7 N1         -1.2973    1.9168   -0.4026 N.am      1 <0>        -0.5554
      8 C6         -0.0711    1.2378   -0.3815 C.ar      1 <0>         0.1770
      9 C7          1.0750    1.8963   -0.8126 C.ar      1 <0>        -0.1479
     10 C8          2.2906    1.2423   -0.8078 C.ar      1 <0>        -0.0948
     11 C9          2.3665   -0.0687   -0.3739 C.ar      1 <0>        -0.1426
     12 C10         1.2294   -0.7242    0.0561 C.ar      1 <0>        -0.0873
     13 C11         0.0061   -0.0746    0.0563 C.ar      1 <0>        -0.1199
     14 C12        -1.2124   -0.8156    0.5401 C.3       1 <0>         0.2001
     15 H1         -1.2314   -0.8039    1.6298 H         1 <0>         0.0993
     16 C13        -2.4854   -0.1593    0.0063 C.3       1 <0>        -0.1488
     17 C14        -2.4395    1.3415    0.3212 C.3       1 <0>         0.1406
     18 H2         -2.3108    1.4900    1.3934 H         1 <0>         0.0867
     19 C15        -3.7358    2.0083   -0.1433 C.3       1 <0>        -0.1973
     20 N2         -1.1515   -2.2030    0.0733 N.am      1 <0>        -0.5679
     21 C16        -1.1096   -3.2514    0.9991 C.ar      1 <0>         0.1327
     22 C17         0.0276   -4.0414    1.1046 C.ar      1 <0>        -0.1233
     23 C18         0.0681   -5.0715    2.0237 C.ar      1 <0>        -0.1037
     24 C19        -1.0265   -5.3241    2.8300 C.ar      1 <0>        -0.1174
     25 C20        -2.1627   -4.5432    2.7231 C.ar      1 <0>        -0.1044
     26 C21        -2.2072   -3.5077    1.8103 C.ar      1 <0>        -0.1215
     27 C22        -1.1358   -2.4695   -1.2477 C.2       1 <0>         0.5176
     28 O2         -1.0907   -1.5603   -2.0493 O.2       1 <0>        -0.5131
     29 C23        -1.1744   -3.8970   -1.7290 C.3       1 <0>        -0.1776
     30 H3         -2.6182    8.0077   -1.5939 H         1 <0>         0.0544
     31 H4         -3.3152    7.3588   -3.0977 H         1 <0>         0.0551
     32 H5         -4.3698    8.1270   -1.8869 H         1 <0>         0.0547
     33 H6         -4.5545    5.6563   -1.7884 H         1 <0>         0.0625
     34 H7         -3.8575    6.3052   -0.2847 H         1 <0>         0.0615
     35 H8         -1.5799    5.7859   -1.1164 H         1 <0>         0.0662
     36 H9         -2.2770    5.1370   -2.6201 H         1 <0>         0.0723
     37 H10        -3.5163    3.4345   -1.3109 H         1 <0>         0.1253
     38 H11        -2.8192    4.0834    0.1928 H         1 <0>         0.1012
     39 H12         1.0142    2.9200   -1.1513 H         1 <0>         0.1579
     40 H13         3.1810    1.7535   -1.1428 H         1 <0>         0.1246
     41 H14         3.3172   -0.5812   -0.3715 H         1 <0>         0.1204
     42 H15         1.2944   -1.7479    0.3941 H         1 <0>         0.1178
     43 H16        -2.5462   -0.3043   -1.0723 H         1 <0>         0.0972
     44 H17        -3.3557   -0.6067    0.4863 H         1 <0>         0.0858
     45 H18        -4.5894    1.4392    0.2250 H         1 <0>         0.0762
     46 H19        -3.7815    3.0251    0.2469 H         1 <0>         0.0988
     47 H20        -3.7602    2.0358   -1.2327 H         1 <0>         0.0756
     48 H21         0.8811   -3.8476    0.4719 H         1 <0>         0.1257
     49 H22         0.9540   -5.6833    2.1097 H         1 <0>         0.1293
     50 H23        -0.9942   -6.1333    3.5446 H         1 <0>         0.1271
     51 H24        -3.0160   -4.7430    3.3542 H         1 <0>         0.1287
     52 H25        -3.0946   -2.8976    1.7277 H         1 <0>         0.1262
     53 H26        -1.3103   -4.5639   -0.8775 H         1 <0>         0.0813
     54 H27        -2.0033   -4.0234   -2.4254 H         1 <0>         0.0954
     55 H28        -0.2375   -4.1363   -2.2320 H         1 <0>         0.0959
@<TRIPOS>BOND
     1    1    2 1
     2    1   30 1
     3    1   31 1
     4    1   32 1
     5    2    3 1
     6    2   33 1
     7    2   34 1
     8    3    4 1
     9    3   35 1
    10    3   36 1
    11    4    5 1
    12    4   37 1
    13    4   38 1
    14    5    6 2
    15    5    7 am
    16    7   17 1
    17    7    8 1
    18    8   13 ar
    19    8    9 ar
    20    9   10 ar
    21    9   39 1
    22   10   11 ar
    23   10   40 1
    24   11   12 ar
    25   11   41 1
    26   12   13 ar
    27   12   42 1
    28   13   14 1
    29   14   15 1
    30   14   16 1
    31   14   20 1
    32   16   17 1
    33   16   43 1
    34   16   44 1
    35   17   18 1
    36   17   19 1
    37   19   45 1
    38   19   46 1
    39   19   47 1
    40   20   21 1
    41   20   27 am
    42   21   26 ar
    43   21   22 ar
    44   22   23 ar
    45   22   48 1
    46   23   24 ar
    47   23   49 1
    48   24   25 ar
    49   24   50 1
    50   25   26 ar
    51   25   51 1
    52   26   52 1
    53   27   28 2
    54   27   29 1
    55   29   53 1
    56   29   54 1
    57   29   55 1
@<TRIPOS>MOLECULE
ZINC04671769
   55    57     0     0     0
SMALL
USER_CHARGES
N-(2-methyl-1-pentanoyl-3,4-dihydro-2H-quinolin-4-yl)-N-phenyl-acetamide
@<TRIPOS>ATOM
      1 C1         -2.8592   -2.9303    2.2401 C.3       1 <0>        -0.1538
      2 C2         -2.1106   -3.6822    1.1378 C.3       1 <0>        -0.1244
      3 C3         -1.2468   -2.6987    0.3457 C.3       1 <0>        -0.1066
      4 C4         -0.4982   -3.4507   -0.7566 C.3       1 <0>        -0.1391
      5 C5          0.3526   -2.4820   -1.5369 C.2       1 <0>         0.5165
      6 O1          0.2938   -1.2943   -1.2978 O.2       1 <0>        -0.5123
      7 N1          1.1788   -2.9353   -2.5004 N.am      1 <0>        -0.5485
      8 C6          2.0316   -2.0547   -3.1801 C.ar      1 <0>         0.1751
      9 C7          1.8375   -0.6855   -3.0485 C.ar      1 <0>        -0.1606
     10 C8          2.6725    0.1975   -3.7030 C.ar      1 <0>        -0.0969
     11 C9          3.7067   -0.2829   -4.4857 C.ar      1 <0>        -0.1421
     12 C10         3.9046   -1.6437   -4.6150 C.ar      1 <0>        -0.0911
     13 C11         3.0705   -2.5364   -3.9625 C.ar      1 <0>        -0.1188
     14 C12         3.3125   -4.0136   -4.1277 C.3       1 <0>         0.2011
     15 H1          2.8880   -4.3438   -5.0758 H         1 <0>         0.1004
     16 C13         2.6627   -4.7936   -2.9850 C.3       1 <0>        -0.1476
     17 C14         1.1963   -4.3598   -2.8599 C.3       1 <0>         0.1315
     18 H2          0.7039   -4.9431   -2.0818 H         1 <0>         0.1065
     19 C15         0.4778   -4.5662   -4.1949 C.3       1 <0>        -0.1697
     20 N2          4.7549   -4.2700   -4.1292 N.am      1 <0>        -0.5701
     21 C16         5.3441   -4.9468   -5.2028 C.ar      1 <0>         0.1306
     22 C17         6.1590   -4.2616   -6.0944 C.ar      1 <0>        -0.1213
     23 C18         6.7441   -4.9339   -7.1496 C.ar      1 <0>        -0.1057
     24 C19         6.5095   -6.2853   -7.3255 C.ar      1 <0>        -0.1155
     25 C20         5.6936   -6.9691   -6.4430 C.ar      1 <0>        -0.1057
     26 C21         5.1106   -6.3039   -5.3823 C.ar      1 <0>        -0.1186
     27 C22         5.5144   -3.8540   -3.0964 C.2       1 <0>         0.5195
     28 O2          4.9928   -3.3488   -2.1249 O.2       1 <0>        -0.5146
     29 C23         7.0117   -4.0165   -3.1487 C.3       1 <0>        -0.1807
     30 H3         -2.1409   -2.4569    2.9094 H         1 <0>         0.0551
     31 H4         -3.4956   -2.1673    1.7918 H         1 <0>         0.0551
     32 H5         -3.4746   -3.6309    2.8045 H         1 <0>         0.0550
     33 H6         -2.8290   -4.1556    0.4686 H         1 <0>         0.0622
     34 H7         -1.4743   -4.4452    1.5862 H         1 <0>         0.0620
     35 H8         -1.8832   -1.9357   -0.1027 H         1 <0>         0.0726
     36 H9         -0.5285   -2.2253    1.0150 H         1 <0>         0.0705
     37 H10         0.1381   -4.2137   -0.3083 H         1 <0>         0.0955
     38 H11        -1.2166   -3.9241   -1.4259 H         1 <0>         0.0978
     39 H12         1.0296   -0.3118   -2.4369 H         1 <0>         0.1763
     40 H13         2.5188    1.2619   -3.6037 H         1 <0>         0.1239
     41 H14         4.3611    0.4077   -4.9968 H         1 <0>         0.1195
     42 H15         4.7133   -2.0133   -5.2280 H         1 <0>         0.1166
     43 H16         3.1871   -4.5812   -2.0534 H         1 <0>         0.0962
     44 H17         2.7108   -5.8619   -3.1959 H         1 <0>         0.0852
     45 H18         0.9828   -3.9922   -4.9718 H         1 <0>         0.0651
     46 H19         0.4939   -5.6243   -4.4564 H         1 <0>         0.0772
     47 H20        -0.5551   -4.2292   -4.1075 H         1 <0>         0.0652
     48 H21         6.3387   -3.2051   -5.9603 H         1 <0>         0.1262
     49 H22         7.3818   -4.4026   -7.8406 H         1 <0>         0.1293
     50 H23         6.9643   -6.8077   -8.1542 H         1 <0>         0.1272
     51 H24         5.5124   -8.0245   -6.5832 H         1 <0>         0.1288
     52 H25         4.4734   -6.8386   -4.6934 H         1 <0>         0.1261
     53 H26         7.2995   -4.4222   -4.1186 H         1 <0>         0.0827
     54 H27         7.4877   -3.0465   -3.0049 H         1 <0>         0.0961
     55 H28         7.3309   -4.6983   -2.3605 H         1 <0>         0.0950
@<TRIPOS>BOND
     1    1    2 1
     2    1   30 1
     3    1   31 1
     4    1   32 1
     5    2    3 1
     6    2   33 1
     7    2   34 1
     8    3    4 1
     9    3   35 1
    10    3   36 1
    11    4    5 1
    12    4   37 1
    13    4   38 1
    14    5    6 2
    15    5    7 am
    16    7   17 1
    17    7    8 1
    18    8   13 ar
    19    8    9 ar
    20    9   10 ar
    21    9   39 1
    22   10   11 ar
    23   10   40 1
    24   11   12 ar
    25   11   41 1
    26   12   13 ar
    27   12   42 1
    28   13   14 1
    29   14   15 1
    30   14   16 1
    31   14   20 1
    32   16   17 1
    33   16   43 1
    34   16   44 1
    35   17   18 1
    36   17   19 1
    37   19   45 1
    38   19   46 1
    39   19   47 1
    40   20   21 1
    41   20   27 am
    42   21   26 ar
    43   21   22 ar
    44   22   23 ar
    45   22   48 1
    46   23   24 ar
    47   23   49 1
    48   24   25 ar
    49   24   50 1
    50   25   26 ar
    51   25   51 1
    52   26   52 1
    53   27   28 2
    54   27   29 1
    55   29   53 1
    56   29   54 1
    57   29   55 1
@<TRIPOS>MOLECULE
ZINC04671771
   55    57     0     0     0
SMALL
USER_CHARGES
N-(2-methyl-1-pentanoyl-3,4-dihydro-2H-quinolin-4-yl)-N-phenyl-acetamide
@<TRIPOS>ATOM
      1 C1         -5.6681   -7.0766    1.1036 C.3       1 <0>        -0.1542
      2 C2         -4.8093   -5.8482    1.4107 C.3       1 <0>        -0.1240
      3 C3         -4.3055   -5.2379    0.1013 C.3       1 <0>        -0.1139
      4 C4         -3.4467   -4.0095    0.4085 C.3       1 <0>        -0.1686
      5 C5         -2.9505   -3.4082   -0.8813 C.2       1 <0>         0.5184
      6 O1         -3.3877   -3.8023   -1.9418 O.2       1 <0>        -0.5039
      7 N1         -2.0209   -2.4327   -0.8563 N.am      1 <0>        -0.5606
      8 C6         -1.4141   -1.9961   -2.0421 C.ar      1 <0>         0.1850
      9 C7         -1.5651   -2.7530   -3.1985 C.ar      1 <0>        -0.1602
     10 C8         -0.9775   -2.3389   -4.3769 C.ar      1 <0>        -0.0821
     11 C9         -0.2396   -1.1695   -4.4058 C.ar      1 <0>        -0.1420
     12 C10        -0.0876   -0.4165   -3.2579 C.ar      1 <0>        -0.0887
     13 C11        -0.6722   -0.8260   -2.0709 C.ar      1 <0>        -0.1456
     14 C12        -0.4833    0.0166   -0.8372 C.3       1 <0>         0.1814
     15 H1         -0.5355    1.0705   -1.1105 H         1 <0>         0.1130
     16 C13        -1.5694   -0.2916    0.1932 C.3       1 <0>        -0.1451
     17 C14        -1.6268   -1.8088    0.4143 C.3       1 <0>         0.1251
     18 H2         -0.6459   -2.1752    0.7169 H         1 <0>         0.0888
     19 C15        -2.6595   -2.1363    1.4947 C.3       1 <0>        -0.1970
     20 N2          0.8305   -0.2671   -0.2544 N.am      1 <0>        -0.5466
     21 C16         1.4955    0.7175    0.4846 C.ar      1 <0>         0.1501
     22 C17         0.9943    2.0119    0.5285 C.ar      1 <0>        -0.1634
     23 C18         1.6502    2.9802    1.2631 C.ar      1 <0>        -0.0956
     24 C19         2.8107    2.6646    1.9456 C.ar      1 <0>        -0.1448
     25 C20         3.3155    1.3780    1.8993 C.ar      1 <0>        -0.0963
     26 C21         2.6612    0.4038    1.1712 C.ar      1 <0>        -0.1666
     27 C22         1.3986   -1.4766   -0.4301 C.2       1 <0>         0.5215
     28 O2          2.4649   -1.7272    0.0908 O.2       1 <0>        -0.5160
     29 C23         0.7090   -2.5176   -1.2737 C.3       1 <0>        -0.2370
     30 H3         -5.0704   -7.8127    0.5659 H         1 <0>         0.0547
     31 H4         -6.0270   -7.5115    2.0364 H         1 <0>         0.0552
     32 H5         -6.5188   -6.7809    0.4896 H         1 <0>         0.0551
     33 H6         -3.9586   -6.1440    2.0247 H         1 <0>         0.0621
     34 H7         -5.4070   -5.1122    1.9484 H         1 <0>         0.0628
     35 H8         -5.1562   -4.9421   -0.5126 H         1 <0>         0.0728
     36 H9         -3.7078   -5.9739   -0.4364 H         1 <0>         0.0670
     37 H10        -2.5960   -4.3052    1.0224 H         1 <0>         0.1047
     38 H11        -4.0444   -3.2734    0.9461 H         1 <0>         0.1291
     39 H12        -2.1419   -3.6657   -3.1746 H         1 <0>         0.1682
     40 H13        -1.0941   -2.9272   -5.2751 H         1 <0>         0.1314
     41 H14         0.2190   -0.8445   -5.3280 H         1 <0>         0.1287
     42 H15         0.4901    0.4955   -3.2860 H         1 <0>         0.1288
     43 H16        -1.3323    0.2058    1.1337 H         1 <0>         0.0980
     44 H17        -2.5325    0.0625   -0.1744 H         1 <0>         0.0948
     45 H18        -3.6629   -2.0292    1.0827 H         1 <0>         0.0844
     46 H19        -2.5147   -3.1611    1.8369 H         1 <0>         0.0951
     47 H20        -2.5365   -1.4521    2.3342 H         1 <0>         0.0791
     48 H21         0.0902    2.2600   -0.0076 H         1 <0>         0.1234
     49 H22         1.2585    3.9860    1.3013 H         1 <0>         0.1246
     50 H23         3.3238    3.4245    2.5163 H         1 <0>         0.1208
     51 H24         4.2220    1.1347    2.4334 H         1 <0>         0.1242
     52 H25         3.0555   -0.6011    1.1360 H         1 <0>         0.1795
     53 H26         0.5234   -2.1140   -2.2691 H         1 <0>         0.1241
     54 H27         1.3436   -3.4004   -1.3522 H         1 <0>         0.0850
     55 H28        -0.2387   -2.7915   -0.8102 H         1 <0>         0.1155
@<TRIPOS>BOND
     1    1    2 1
     2    1   30 1
     3    1   31 1
     4    1   32 1
     5    2    3 1
     6    2   33 1
     7    2   34 1
     8    3    4 1
     9    3   35 1
    10    3   36 1
    11    4    5 1
    12    4   37 1
    13    4   38 1
    14    5    6 2
    15    5    7 am
    16    7   17 1
    17    7    8 1
    18    8   13 ar
    19    8    9 ar
    20    9   10 ar
    21    9   39 1
    22   10   11 ar
    23   10   40 1
    24   11   12 ar
    25   11   41 1
    26   12   13 ar
    27   12   42 1
    28   13   14 1
    29   14   15 1
    30   14   16 1
    31   14   20 1
    32   16   17 1
    33   16   43 1
    34   16   44 1
    35   17   18 1
    36   17   19 1
    37   19   45 1
    38   19   46 1
    39   19   47 1
    40   20   21 1
    41   20   27 am
    42   21   26 ar
    43   21   22 ar
    44   22   23 ar
    45   22   48 1
    46   23   24 ar
    47   23   49 1
    48   24   25 ar
    49   24   50 1
    50   25   26 ar
    51   25   51 1
    52   26   52 1
    53   27   28 2
    54   27   29 1
    55   29   53 1
    56   29   54 1
    57   29   55 1
@<TRIPOS>MOLECULE
ZINC04671774
   55    57     0     0     0
SMALL
USER_CHARGES
N-(2-methyl-1-pentanoyl-3,4-dihydro-2H-quinolin-4-yl)-N-phenyl-acetamide
@<TRIPOS>ATOM
      1 C1         -1.0248   -8.9160   -4.5600 C.3       1 <0>        -0.1540
      2 C2         -1.3488   -7.9506   -3.4181 C.3       1 <0>        -0.1236
      3 C3         -0.1189   -7.0945   -3.1095 C.3       1 <0>        -0.1142
      4 C4         -0.4429   -6.1291   -1.9676 C.3       1 <0>        -0.1655
      5 C5          0.7686   -5.2859   -1.6637 C.2       1 <0>         0.5171
      6 O1          1.7440   -5.3445   -2.3822 O.2       1 <0>        -0.5117
      7 N1          0.7682   -4.4668   -0.5934 N.am      1 <0>        -0.5538
      8 C6          1.9462   -3.8248   -0.1870 C.ar      1 <0>         0.1768
      9 C7          3.1625   -4.2451   -0.7132 C.ar      1 <0>        -0.1494
     10 C8          4.3330   -3.6207   -0.3318 C.ar      1 <0>        -0.0951
     11 C9          4.2939   -2.5767    0.5744 C.ar      1 <0>        -0.1418
     12 C10         3.0868   -2.1586    1.0996 C.ar      1 <0>        -0.0887
     13 C11         1.9079   -2.7806    0.7232 C.ar      1 <0>        -0.1198
     14 C12         0.6097   -2.3025    1.3181 C.3       1 <0>         0.2006
     15 H1          0.4902   -2.7317    2.3129 H         1 <0>         0.0988
     16 C13        -0.5684   -2.7260    0.4412 C.3       1 <0>        -0.1477
     17 C14        -0.4668   -4.2320    0.1671 C.3       1 <0>         0.1396
     18 H2         -0.4295   -4.7784    1.1096 H         1 <0>         0.0867
     19 C15        -1.6748   -4.6926   -0.6511 C.3       1 <0>        -0.2001
     20 N2          0.6345   -0.8414    1.4218 N.am      1 <0>        -0.5694
     21 C16         0.3955   -0.2233    2.6542 C.ar      1 <0>         0.1315
     22 C17         1.4191    0.4555    3.3023 C.ar      1 <0>        -0.1217
     23 C18         1.1788    1.0682    4.5166 C.ar      1 <0>        -0.1044
     24 C19        -0.0767    0.9976    5.0918 C.ar      1 <0>        -0.1170
     25 C20        -1.0967    0.3184    4.4513 C.ar      1 <0>        -0.1050
     26 C21        -0.8642   -0.2923    3.2346 C.ar      1 <0>        -0.1205
     27 C22         0.8876   -0.0925    0.3302 C.2       1 <0>         0.5184
     28 O2          0.9988   -0.6215   -0.7556 O.2       1 <0>        -0.5122
     29 C23         1.0323    1.4020    0.4587 C.3       1 <0>        -0.1747
     30 H3         -0.7454   -8.3483   -5.4475 H         1 <0>         0.0550
     31 H4         -0.1972   -9.5616   -4.2661 H         1 <0>         0.0545
     32 H5         -1.9011   -9.5259   -4.7798 H         1 <0>         0.0547
     33 H6         -1.6283   -8.5184   -2.5306 H         1 <0>         0.0615
     34 H7         -2.1765   -7.3050   -3.7119 H         1 <0>         0.0624
     35 H8          0.1606   -6.5268   -3.9970 H         1 <0>         0.0718
     36 H9          0.7087   -7.7402   -2.8157 H         1 <0>         0.0665
     37 H10        -0.7223   -6.6969   -1.0801 H         1 <0>         0.1030
     38 H11        -1.2705   -5.4835   -2.2615 H         1 <0>         0.1269
     39 H12         3.1916   -5.0607   -1.4205 H         1 <0>         0.1620
     40 H13         5.2780   -3.9472   -0.7402 H         1 <0>         0.1247
     41 H14         5.2094   -2.0871    0.8721 H         1 <0>         0.1204
     42 H15         3.0621   -1.3430    1.8072 H         1 <0>         0.1170
     43 H16        -1.5039   -2.5118    0.9581 H         1 <0>         0.0851
     44 H17        -0.5367   -2.1799   -0.5015 H         1 <0>         0.0962
     45 H18        -1.6874   -5.7815   -0.6990 H         1 <0>         0.1008
     46 H19        -2.5906   -4.3391   -0.1775 H         1 <0>         0.0759
     47 H20        -1.6069   -4.2854   -1.6599 H         1 <0>         0.0768
     48 H21         2.4010    0.5075    2.8555 H         1 <0>         0.1253
     49 H22         1.9735    1.5994    5.0193 H         1 <0>         0.1290
     50 H23        -0.2608    1.4738    6.0436 H         1 <0>         0.1269
     51 H24        -2.0762    0.2651    4.9032 H         1 <0>         0.1286
     52 H25        -1.6613   -0.8227    2.7349 H         1 <0>         0.1258
     53 H26         2.0560    1.6447    0.7436 H         1 <0>         0.0938
     54 H27         0.7995    1.8730   -0.4963 H         1 <0>         0.0932
     55 H28         0.3461    1.7692    1.2218 H         1 <0>         0.0831
@<TRIPOS>BOND
     1    1    2 1
     2    1   30 1
     3    1   31 1
     4    1   32 1
     5    2    3 1
     6    2   33 1
     7    2   34 1
     8    3    4 1
     9    3   35 1
    10    3   36 1
    11    4    5 1
    12    4   37 1
    13    4   38 1
    14    5    6 2
    15    5    7 am
    16    7   17 1
    17    7    8 1
    18    8   13 ar
    19    8    9 ar
    20    9   10 ar
    21    9   39 1
    22   10   11 ar
    23   10   40 1
    24   11   12 ar
    25   11   41 1
    26   12   13 ar
    27   12   42 1
    28   13   14 1
    29   14   15 1
    30   14   16 1
    31   14   20 1
    32   16   17 1
    33   16   43 1
    34   16   44 1
    35   17   18 1
    36   17   19 1
    37   19   45 1
    38   19   46 1
    39   19   47 1
    40   20   21 1
    41   20   27 am
    42   21   26 ar
    43   21   22 ar
    44   22   23 ar
    45   22   48 1
    46   23   24 ar
    47   23   49 1
    48   24   25 ar
    49   24   50 1
    50   25   26 ar
    51   25   51 1
    52   26   52 1
    53   27   28 2
    54   27   29 1
    55   29   53 1
    56   29   54 1
    57   29   55 1
@<TRIPOS>MOLECULE
ZINC02273348
   62    65     0     0     0
SMALL
USER_CHARGES
N-(1-benzoyl-2-methyl-3,4-dihydro-2H-quinolin-4-yl)-N-phenyl-pentanamide
@<TRIPOS>ATOM
      1 C1         -2.3360    3.3309    2.6893 C.3       1 <0>        -0.1532
      2 C2         -1.4672    4.5784    2.5169 C.3       1 <0>        -0.1241
      3 C3         -0.0697    4.1660    2.0500 C.3       1 <0>        -0.1044
      4 C4          0.7992    5.4135    1.8775 C.3       1 <0>        -0.1398
      5 C5          2.1756    5.0074    1.4176 C.2       1 <0>         0.5201
      6 O1          2.4692    3.8327    1.3466 O.2       1 <0>        -0.5065
      7 N1          3.0803    5.9494    1.0853 N.am      1 <0>        -0.5673
      8 C6          2.7818    7.3035    1.2734 C.ar      1 <0>         0.1354
      9 C7          2.4908    7.7819    2.5442 C.ar      1 <0>        -0.1278
     10 C8          2.2007    9.1197    2.7271 C.ar      1 <0>        -0.1011
     11 C9          2.1900    9.9806    1.6451 C.ar      1 <0>        -0.1201
     12 C10         2.4746    9.5065    0.3776 C.ar      1 <0>        -0.1017
     13 C11         2.7701    8.1706    0.1887 C.ar      1 <0>        -0.1250
     14 C12         4.3764    5.5558    0.5272 C.3       1 <0>         0.1975
     15 H1          4.9903    6.4446    0.3817 H         1 <0>         0.1008
     16 C13         4.1576    4.8686   -0.8205 C.3       1 <0>        -0.1461
     17 C14         5.4902    4.2764   -1.2973 C.3       1 <0>         0.1456
     18 H2          6.2462    5.0602   -1.3450 H         1 <0>         0.0836
     19 N2          5.8979    3.2500   -0.3283 N.am      1 <0>        -0.5525
     20 C15         5.7943    3.5316    1.0401 C.ar      1 <0>         0.1753
     21 C16         5.0690    4.6251    1.4873 C.ar      1 <0>        -0.1104
     22 C17         4.9760    4.8737    2.8463 C.ar      1 <0>        -0.0796
     23 C18         5.6028    4.0398    3.7521 C.ar      1 <0>        -0.1388
     24 C19         6.3281    2.9501    3.3066 C.ar      1 <0>        -0.0880
     25 C20         6.4250    2.6945    1.9533 C.ar      1 <0>        -0.1742
     26 C21         6.3643    2.0575   -0.7490 C.2       1 <0>         0.5707
     27 O2          6.7128    1.9146   -1.9048 O.2       1 <0>        -0.5023
     28 C22         6.4522    0.9235    0.1951 C.ar      1 <0>        -0.1573
     29 C23         5.5022    0.7792    1.2076 C.ar      1 <0>        -0.0511
     30 C24         5.5864   -0.2850    2.0815 C.ar      1 <0>        -0.1390
     31 C25         6.6164   -1.2013    1.9634 C.ar      1 <0>        -0.0848
     32 C26         7.5648   -1.0606    0.9659 C.ar      1 <0>        -0.1359
     33 C27         7.4887   -0.0045    0.0815 C.ar      1 <0>        -0.0618
     34 C28         5.3112    3.6431   -2.6785 C.3       1 <0>        -0.1519
     35 H3         -3.3316    3.6247    3.0220 H         1 <0>         0.0548
     36 H4         -2.4112    2.8060    1.7370 H         1 <0>         0.0543
     37 H5         -1.8841    2.6733    3.4320 H         1 <0>         0.0547
     38 H6         -1.3919    5.1033    3.4692 H         1 <0>         0.0617
     39 H7         -1.9190    5.2360    1.7743 H         1 <0>         0.0613
     40 H8         -0.1449    3.6412    1.0976 H         1 <0>         0.0672
     41 H9          0.3822    3.5084    2.7926 H         1 <0>         0.0707
     42 H10         0.3473    6.0712    1.1349 H         1 <0>         0.0915
     43 H11         0.8744    5.9384    2.8298 H         1 <0>         0.0952
     44 H12         2.4950    7.1092    3.3891 H         1 <0>         0.1247
     45 H13         1.9780    9.4931    3.7158 H         1 <0>         0.1288
     46 H14         1.9592   11.0257    1.7902 H         1 <0>         0.1267
     47 H15         2.4654   10.1814   -0.4655 H         1 <0>         0.1284
     48 H16         2.9916    7.8008   -0.8015 H         1 <0>         0.1259
     49 H17         3.4228    4.0713   -0.7087 H         1 <0>         0.0916
     50 H18         3.8006    5.5973   -1.5483 H         1 <0>         0.0865
     51 H19         4.4105    5.7232    3.1998 H         1 <0>         0.1181
     52 H20         5.5259    4.2393    4.8107 H         1 <0>         0.1218
     53 H21         6.8177    2.2997    4.0163 H         1 <0>         0.1255
     54 H22         6.9914    1.8438    1.6039 H         1 <0>         0.1563
     55 H23         4.7005    1.4964    1.3039 H         1 <0>         0.1361
     56 H24         4.8496   -0.4003    2.8626 H         1 <0>         0.1295
     57 H25         6.6805   -2.0298    2.6532 H         1 <0>         0.1282
     58 H26         8.3662   -1.7793    0.8791 H         1 <0>         0.1310
     59 H27         8.2296    0.1042   -0.6967 H         1 <0>         0.1330
     60 H28         4.7055    2.7413   -2.5890 H         1 <0>         0.0594
     61 H29         4.8132    4.3510   -3.3411 H         1 <0>         0.0617
     62 H30         6.2874    3.3858   -3.0895 H         1 <0>         0.0911
@<TRIPOS>BOND
     1    1    2 1
     2    1   35 1
     3    1   36 1
     4    1   37 1
     5    2    3 1
     6    2   38 1
     7    2   39 1
     8    3    4 1
     9    3   40 1
    10    3   41 1
    11    4    5 1
    12    4   42 1
    13    4   43 1
    14    5    6 2
    15    5    7 am
    16    7    8 1
    17    7   14 1
    18    8   13 ar
    19    8    9 ar
    20    9   10 ar
    21    9   44 1
    22   10   11 ar
    23   10   45 1
    24   11   12 ar
    25   11   46 1
    26   12   13 ar
    27   12   47 1
    28   13   48 1
    29   14   15 1
    30   14   21 1
    31   14   16 1
    32   16   17 1
    33   16   49 1
    34   16   50 1
    35   17   18 1
    36   17   19 1
    37   17   34 1
    38   19   20 1
    39   19   26 am
    40   20   25 ar
    41   20   21 ar
    42   21   22 ar
    43   22   23 ar
    44   22   51 1
    45   23   24 ar
    46   23   52 1
    47   24   25 ar
    48   24   53 1
    49   25   54 1
    50   26   27 2
    51   26   28 1
    52   28   33 ar
    53   28   29 ar
    54   29   30 ar
    55   29   55 1
    56   30   31 ar
    57   30   56 1
    58   31   32 ar
    59   31   57 1
    60   32   33 ar
    61   32   58 1
    62   33   59 1
    63   34   60 1
    64   34   61 1
    65   34   62 1
@<TRIPOS>MOLECULE
ZINC03123706
   62    65     0     0     0
SMALL
USER_CHARGES
N-(1-benzoyl-2-methyl-3,4-dihydro-2H-quinolin-4-yl)-N-phenyl-pentanamide
@<TRIPOS>ATOM
      1 C1          2.4919    9.2111   -3.4893 C.3       1 <0>        -0.1533
      2 C2          1.3602    8.2974   -3.9638 C.3       1 <0>        -0.1236
      3 C3          1.1309    7.1914   -2.9318 C.3       1 <0>        -0.1055
      4 C4         -0.0009    6.2777   -3.4064 C.3       1 <0>        -0.1412
      5 C5         -0.2268    5.1883   -2.3899 C.2       1 <0>         0.5190
      6 O1          0.3852    5.1995   -1.3428 O.2       1 <0>        -0.5036
      7 N1         -1.1088    4.2015   -2.6445 N.am      1 <0>        -0.5664
      8 C6         -1.7392    4.1311   -3.8916 C.ar      1 <0>         0.1387
      9 C7         -2.4584    5.2185   -4.3702 C.ar      1 <0>        -0.1328
     10 C8         -3.0747    5.1479   -5.6041 C.ar      1 <0>        -0.0995
     11 C9         -2.9862    3.9918   -6.3577 C.ar      1 <0>        -0.1233
     12 C10        -2.2752    2.9054   -5.8817 C.ar      1 <0>        -0.0999
     13 C11        -1.6519    2.9717   -4.6510 C.ar      1 <0>        -0.1286
     14 C12        -1.4074    3.2025   -1.6153 C.3       1 <0>         0.1983
     15 H1         -2.2072    2.5511   -1.9677 H         1 <0>         0.0996
     16 C13        -0.1563    2.3643   -1.3477 C.3       1 <0>        -0.1481
     17 C14        -0.4128    1.4676   -0.1294 C.3       1 <0>         0.1447
     18 H2         -1.2975    0.8547   -0.3019 H         1 <0>         0.0828
     19 N2         -0.6303    2.3392    1.0332 N.am      1 <0>        -0.5617
     20 C15        -1.4653    3.4557    0.8954 C.ar      1 <0>         0.1908
     21 C16        -1.8534    3.9019   -0.3584 C.ar      1 <0>        -0.1193
     22 C17        -2.6746    5.0117   -0.4646 C.ar      1 <0>        -0.0782
     23 C18        -3.1074    5.6698    0.6705 C.ar      1 <0>        -0.1461
     24 C19        -2.7239    5.2229    1.9215 C.ar      1 <0>        -0.0805
     25 C20        -1.9042    4.1177    2.0362 C.ar      1 <0>        -0.2097
     26 C21        -0.0362    2.0694    2.2125 C.2       1 <0>         0.5735
     27 O2          1.0393    1.5032    2.2358 O.2       1 <0>        -0.4879
     28 C22        -0.6923    2.4619    3.4775 C.ar      1 <0>        -0.1374
     29 C23        -2.0539    2.2184    3.6660 C.ar      1 <0>        -0.0696
     30 C24        -2.6590    2.5829    4.8510 C.ar      1 <0>        -0.1306
     31 C25        -1.9219    3.1985    5.8470 C.ar      1 <0>        -0.0921
     32 C26        -0.5731    3.4471    5.6647 C.ar      1 <0>        -0.1243
     33 C27         0.0456    3.0829    4.4867 C.ar      1 <0>        -0.0713
     34 C28         0.8004    0.5684    0.1168 C.3       1 <0>        -0.1473
     35 H3          2.2215    9.6574   -2.5323 H         1 <0>         0.0547
     36 H4          3.4053    8.6277   -3.3729 H         1 <0>         0.0544
     37 H5          2.6553    9.9990   -4.2245 H         1 <0>         0.0549
     38 H6          1.6306    7.8510   -4.9208 H         1 <0>         0.0614
     39 H7          0.4468    8.8808   -4.0802 H         1 <0>         0.0616
     40 H8          0.8604    7.6377   -1.9749 H         1 <0>         0.0706
     41 H9          2.0442    6.6080   -2.8155 H         1 <0>         0.0675
     42 H10         0.2695    5.8313   -4.3634 H         1 <0>         0.0922
     43 H11        -0.9143    6.8611   -3.5228 H         1 <0>         0.0966
     44 H12        -2.5321    6.1199   -3.7798 H         1 <0>         0.1266
     45 H13        -3.6301    5.9949   -5.9790 H         1 <0>         0.1287
     46 H14        -3.4731    3.9373   -7.3202 H         1 <0>         0.1263
     47 H15        -2.2077    2.0040   -6.4728 H         1 <0>         0.1282
     48 H16        -1.0974    2.1226   -4.2795 H         1 <0>         0.1256
     49 H17         0.6877    3.0235   -1.1447 H         1 <0>         0.0967
     50 H18         0.0629    1.7448   -2.2173 H         1 <0>         0.0842
     51 H19        -2.9774    5.3650   -1.4392 H         1 <0>         0.1181
     52 H20        -3.7472    6.5353    0.5805 H         1 <0>         0.1210
     53 H21        -3.0647    5.7377    2.8076 H         1 <0>         0.1239
     54 H22        -1.6037    3.7677    3.0127 H         1 <0>         0.1733
     55 H23        -2.6313    1.7419    2.8876 H         1 <0>         0.1299
     56 H24        -3.7114    2.3913    4.9997 H         1 <0>         0.1329
     57 H25        -2.4015    3.4859    6.7710 H         1 <0>         0.1306
     58 H26        -0.0033    3.9277    6.4463 H         1 <0>         0.1331
     59 H27         1.0985    3.2775    4.3457 H         1 <0>         0.1332
     60 H28         0.6537    0.0046    1.0381 H         1 <0>         0.0746
     61 H29         0.9156   -0.1229   -0.7179 H         1 <0>         0.0601
     62 H30         1.6961    1.1831    0.2058 H         1 <0>         0.0734
@<TRIPOS>BOND
     1    1    2 1
     2    1   35 1
     3    1   36 1
     4    1   37 1
     5    2    3 1
     6    2   38 1
     7    2   39 1
     8    3    4 1
     9    3   40 1
    10    3   41 1
    11    4    5 1
    12    4   42 1
    13    4   43 1
    14    5    6 2
    15    5    7 am
    16    7    8 1
    17    7   14 1
    18    8   13 ar
    19    8    9 ar
    20    9   10 ar
    21    9   44 1
    22   10   11 ar
    23   10   45 1
    24   11   12 ar
    25   11   46 1
    26   12   13 ar
    27   12   47 1
    28   13   48 1
    29   14   15 1
    30   14   21 1
    31   14   16 1
    32   16   17 1
    33   16   49 1
    34   16   50 1
    35   17   18 1
    36   17   19 1
    37   17   34 1
    38   19   20 1
    39   19   26 am
    40   20   25 ar
    41   20   21 ar
    42   21   22 ar
    43   22   23 ar
    44   22   51 1
    45   23   24 ar
    46   23   52 1
    47   24   25 ar
    48   24   53 1
    49   25   54 1
    50   26   27 2
    51   26   28 1
    52   28   33 ar
    53   28   29 ar
    54   29   30 ar
    55   29   55 1
    56   30   31 ar
    57   30   56 1
    58   31   32 ar
    59   31   57 1
    60   32   33 ar
    61   32   58 1
    62   33   59 1
    63   34   60 1
    64   34   61 1
    65   34   62 1
@<TRIPOS>MOLECULE
ZINC03123707
   62    65     0     0     0
SMALL
USER_CHARGES
N-(1-benzoyl-2-methyl-3,4-dihydro-2H-quinolin-4-yl)-N-phenyl-pentanamide
@<TRIPOS>ATOM
      1 C1          4.9548    8.8429    5.3421 C.3       1 <0>        -0.1539
      2 C2          4.8316    7.3744    4.9307 C.3       1 <0>        -0.1246
      3 C3          3.8848    7.2576    3.7345 C.3       1 <0>        -0.1058
      4 C4          3.7616    5.7891    3.3231 C.3       1 <0>        -0.1413
      5 C5          2.8290    5.6740    2.1449 C.2       1 <0>         0.5168
      6 O1          2.2434    6.6547    1.7370 O.2       1 <0>        -0.5158
      7 N1          2.6459    4.4814    1.5444 N.am      1 <0>        -0.5671
      8 C6          1.8645    4.3936    0.3870 C.ar      1 <0>         0.1513
      9 C7          2.2800    5.0174   -0.7821 C.ar      1 <0>        -0.1144
     10 C8          1.5091    4.9244   -1.9243 C.ar      1 <0>        -0.1078
     11 C9          0.3193    4.2202   -1.9016 C.ar      1 <0>        -0.1190
     12 C10        -0.0999    3.6022   -0.7377 C.ar      1 <0>        -0.1124
     13 C11         0.6691    3.6871    0.4064 C.ar      1 <0>        -0.1212
     14 C12         3.2649    3.2770    2.1035 C.3       1 <0>         0.1826
     15 H1          3.8775    3.5528    2.9618 H         1 <0>         0.1139
     16 C13         4.1501    2.6254    1.0414 C.3       1 <0>        -0.1428
     17 C14         3.2564    2.0530   -0.0665 C.3       1 <0>         0.1162
     18 H2          2.6246    2.8414   -0.4754 H         1 <0>         0.1081
     19 N2          2.4189    1.0032    0.5296 N.am      1 <0>        -0.5574
     20 C15         1.8019    1.2486    1.7633 C.ar      1 <0>         0.1946
     21 C16         2.1864    2.3247    2.5481 C.ar      1 <0>        -0.1454
     22 C17         1.5656    2.5373    3.7673 C.ar      1 <0>        -0.0730
     23 C18         0.5671    1.6856    4.1992 C.ar      1 <0>        -0.1488
     24 C19         0.1769    0.6174    3.4128 C.ar      1 <0>        -0.0732
     25 C20         0.7958    0.3940    2.1989 C.ar      1 <0>        -0.2170
     26 C21         2.2474   -0.1762   -0.0996 C.2       1 <0>         0.5739
     27 O2          3.1222   -0.6125   -0.8222 O.2       1 <0>        -0.4874
     28 C22         0.9956   -0.9394    0.0889 C.ar      1 <0>        -0.1384
     29 C23        -0.2382   -0.2899    0.0222 C.ar      1 <0>        -0.0705
     30 C24        -1.4029   -1.0090    0.1938 C.ar      1 <0>        -0.1304
     31 C25        -1.3496   -2.3689    0.4431 C.ar      1 <0>        -0.0911
     32 C26        -0.1297   -3.0179    0.5158 C.ar      1 <0>        -0.1239
     33 C27         1.0423   -2.3117    0.3403 C.ar      1 <0>        -0.0721
     34 C28         4.1246    1.4570   -1.1764 C.3       1 <0>        -0.1486
     35 H3          3.9725    9.2268    5.6173 H         1 <0>         0.0550
     36 H4          5.6293    8.9261    6.1943 H         1 <0>         0.0551
     37 H5          5.3505    9.4219    4.5077 H         1 <0>         0.0548
     38 H6          4.4359    6.7953    5.7651 H         1 <0>         0.0623
     39 H7          5.8139    6.9905    4.6555 H         1 <0>         0.0622
     40 H8          4.2805    7.8366    2.9001 H         1 <0>         0.0696
     41 H9          2.9025    7.6415    4.0098 H         1 <0>         0.0718
     42 H10         3.3659    5.2100    4.1575 H         1 <0>         0.0956
     43 H11         4.7439    5.4052    3.0479 H         1 <0>         0.0955
     44 H12         3.2068    5.5716   -0.7991 H         1 <0>         0.1229
     45 H13         1.8337    5.4059   -2.8349 H         1 <0>         0.1278
     46 H14        -0.2842    4.1529   -2.7948 H         1 <0>         0.1253
     47 H15        -1.0296    3.0530   -0.7233 H         1 <0>         0.1241
     48 H16         0.3408    3.2049    1.3153 H         1 <0>         0.1272
     49 H17         4.8228    3.3717    0.6188 H         1 <0>         0.0915
     50 H18         4.7328    1.8231    1.4940 H         1 <0>         0.0897
     51 H19         1.8634    3.3727    4.3837 H         1 <0>         0.1231
     52 H20         0.0874    1.8570    5.1516 H         1 <0>         0.1247
     53 H21        -0.6079   -0.0437    3.7494 H         1 <0>         0.1261
     54 H22         0.4949   -0.4424    1.5855 H         1 <0>         0.1762
     55 H23        -0.2810    0.7725   -0.1676 H         1 <0>         0.1302
     56 H24        -2.3583   -0.5086    0.1377 H         1 <0>         0.1329
     57 H25        -2.2642   -2.9264    0.5813 H         1 <0>         0.1309
     58 H26        -0.0950   -4.0796    0.7107 H         1 <0>         0.1334
     59 H27         1.9938   -2.8195    0.3969 H         1 <0>         0.1332
     60 H28         4.6819    0.6062   -0.7844 H         1 <0>         0.0814
     61 H29         3.4884    1.1272   -1.9978 H         1 <0>         0.0645
     62 H30         4.8219    2.2128   -1.5377 H         1 <0>         0.0590
@<TRIPOS>BOND
     1    1    2 1
     2    1   35 1
     3    1   36 1
     4    1   37 1
     5    2    3 1
     6    2   38 1
     7    2   39 1
     8    3    4 1
     9    3   40 1
    10    3   41 1
    11    4    5 1
    12    4   42 1
    13    4   43 1
    14    5    6 2
    15    5    7 am
    16    7    8 1
    17    7   14 1
    18    8   13 ar
    19    8    9 ar
    20    9   10 ar
    21    9   44 1
    22   10   11 ar
    23   10   45 1
    24   11   12 ar
    25   11   46 1
    26   12   13 ar
    27   12   47 1
    28   13   48 1
    29   14   15 1
    30   14   21 1
    31   14   16 1
    32   16   17 1
    33   16   49 1
    34   16   50 1
    35   17   18 1
    36   17   19 1
    37   17   34 1
    38   19   20 1
    39   19   26 am
    40   20   25 ar
    41   20   21 ar
    42   21   22 ar
    43   22   23 ar
    44   22   51 1
    45   23   24 ar
    46   23   52 1
    47   24   25 ar
    48   24   53 1
    49   25   54 1
    50   26   27 2
    51   26   28 1
    52   28   33 ar
    53   28   29 ar
    54   29   30 ar
    55   29   55 1
    56   30   31 ar
    57   30   56 1
    58   31   32 ar
    59   31   57 1
    60   32   33 ar
    61   32   58 1
    62   33   59 1
    63   34   60 1
    64   34   61 1
    65   34   62 1
@<TRIPOS>MOLECULE
ZINC03123708
   62    65     0     0     0
SMALL
USER_CHARGES
N-(1-benzoyl-2-methyl-3,4-dihydro-2H-quinolin-4-yl)-N-phenyl-pentanamide
@<TRIPOS>ATOM
      1 C1          6.9280    2.0193    8.1036 C.3       1 <0>        -0.1533
      2 C2          7.7804    2.4264    6.9000 C.3       1 <0>        -0.1237
      3 C3          7.1112    1.9395    5.6131 C.3       1 <0>        -0.1053
      4 C4          7.9636    2.3466    4.4095 C.3       1 <0>        -0.1404
      5 C5          7.3044    1.8671    3.1420 C.2       1 <0>         0.5189
      6 O1          6.2102    1.3458    3.1872 O.2       1 <0>        -0.5051
      7 N1          7.9309    2.0174    1.9581 N.am      1 <0>        -0.5665
      8 C6          9.1457    2.7086    1.8923 C.ar      1 <0>         0.1386
      9 C7          9.2273    4.0174    2.3495 C.ar      1 <0>        -0.1314
     10 C8         10.4295    4.6946    2.2893 C.ar      1 <0>        -0.0992
     11 C9         11.5480    4.0753    1.7625 C.ar      1 <0>        -0.1223
     12 C10        11.4685    2.7743    1.3006 C.ar      1 <0>        -0.1003
     13 C11        10.2709    2.0893    1.3642 C.ar      1 <0>        -0.1281
     14 C12         7.3399    1.4572    0.7403 C.3       1 <0>         0.1988
     15 H1          8.0195    1.6186   -0.0964 H         1 <0>         0.1017
     16 C13         7.1209   -0.0436    0.9301 C.3       1 <0>        -0.1501
     17 C14         6.3142   -0.5811   -0.2592 C.3       1 <0>         0.1043
     18 H2          6.1920   -1.6603   -0.1660 H         1 <0>         0.1303
     19 N2          4.9983    0.0721   -0.2409 N.am      1 <0>        -0.5377
     20 C15         4.9313    1.4537   -0.0190 C.ar      1 <0>         0.1741
     21 C16         6.0323    2.1494    0.4593 C.ar      1 <0>        -0.1183
     22 C17         5.9354    3.5130    0.6794 C.ar      1 <0>        -0.0888
     23 C18         4.7501    4.1772    0.4283 C.ar      1 <0>        -0.1412
     24 C19         3.6519    3.4834   -0.0454 C.ar      1 <0>        -0.0961
     25 C20         3.7398    2.1233   -0.2665 C.ar      1 <0>        -0.1600
     26 C21         3.8746   -0.6451   -0.4397 C.2       1 <0>         0.5633
     27 O2          2.7969   -0.0850   -0.4895 O.2       1 <0>        -0.5084
     28 C22         3.9527   -2.1128   -0.5972 C.ar      1 <0>        -0.1328
     29 C23         2.9012   -2.9214   -0.1624 C.ar      1 <0>        -0.0593
     30 C24         2.9804   -4.2904   -0.3128 C.ar      1 <0>        -0.1232
     31 C25         4.0985   -4.8622   -0.8934 C.ar      1 <0>        -0.0925
     32 C26         5.1442   -4.0665   -1.3266 C.ar      1 <0>        -0.1253
     33 C27         5.0781   -2.6962   -1.1817 C.ar      1 <0>        -0.1150
     34 C28         7.0376   -0.2527   -1.5668 C.3       1 <0>        -0.1781
     35 H3          7.4047    2.3662    9.0204 H         1 <0>         0.0549
     36 H4          5.9384    2.4680    8.0164 H         1 <0>         0.0548
     37 H5          6.8335    0.9338    8.1314 H         1 <0>         0.0543
     38 H6          8.7699    1.9777    6.9871 H         1 <0>         0.0614
     39 H7          7.8748    3.5119    6.8721 H         1 <0>         0.0617
     40 H8          6.1216    2.3882    5.5259 H         1 <0>         0.0707
     41 H9          7.0167    0.8540    5.6409 H         1 <0>         0.0674
     42 H10         8.9531    1.8979    4.4967 H         1 <0>         0.0922
     43 H11         8.0580    3.4321    4.3817 H         1 <0>         0.0959
     44 H12         8.3529    4.5034    2.7563 H         1 <0>         0.1254
     45 H13        10.4948    5.7108    2.6491 H         1 <0>         0.1287
     46 H14        12.4858    4.6086    1.7120 H         1 <0>         0.1265
     47 H15        12.3440    2.2932    0.8901 H         1 <0>         0.1282
     48 H16        10.2097    1.0730    1.0040 H         1 <0>         0.1257
     49 H17         6.5696   -0.2183    1.8541 H         1 <0>         0.1012
     50 H18         8.0839   -0.5520    0.9778 H         1 <0>         0.0859
     51 H19         6.7902    4.0600    1.0488 H         1 <0>         0.1180
     52 H20         4.6812    5.2407    0.6028 H         1 <0>         0.1199
     53 H21         2.7266    4.0045   -0.2418 H         1 <0>         0.1246
     54 H22         2.8829    1.5803   -0.6368 H         1 <0>         0.1761
     55 H23         2.0279   -2.4763    0.2910 H         1 <0>         0.1346
     56 H24         2.1675   -4.9172    0.0232 H         1 <0>         0.1326
     57 H25         4.1572   -5.9349   -1.0050 H         1 <0>         0.1296
     58 H26         6.0143   -4.5191   -1.7787 H         1 <0>         0.1316
     59 H27         5.8952   -2.0761   -1.5199 H         1 <0>         0.1494
     60 H28         7.1696    0.8262   -1.6479 H         1 <0>         0.0708
     61 H29         8.0127   -0.7397   -1.5747 H         1 <0>         0.0812
     62 H30         6.4458   -0.6107   -2.4092 H         1 <0>         0.0694
@<TRIPOS>BOND
     1    1    2 1
     2    1   35 1
     3    1   36 1
     4    1   37 1
     5    2    3 1
     6    2   38 1
     7    2   39 1
     8    3    4 1
     9    3   40 1
    10    3   41 1
    11    4    5 1
    12    4   42 1
    13    4   43 1
    14    5    6 2
    15    5    7 am
    16    7    8 1
    17    7   14 1
    18    8   13 ar
    19    8    9 ar
    20    9   10 ar
    21    9   44 1
    22   10   11 ar
    23   10   45 1
    24   11   12 ar
    25   11   46 1
    26   12   13 ar
    27   12   47 1
    28   13   48 1
    29   14   15 1
    30   14   21 1
    31   14   16 1
    32   16   17 1
    33   16   49 1
    34   16   50 1
    35   17   18 1
    36   17   19 1
    37   17   34 1
    38   19   20 1
    39   19   26 am
    40   20   25 ar
    41   20   21 ar
    42   21   22 ar
    43   22   23 ar
    44   22   51 1
    45   23   24 ar
    46   23   52 1
    47   24   25 ar
    48   24   53 1
    49   25   54 1
    50   26   27 2
    51   26   28 1
    52   28   33 ar
    53   28   29 ar
    54   29   30 ar
    55   29   55 1
    56   30   31 ar
    57   30   56 1
    58   31   32 ar
    59   31   57 1
    60   32   33 ar
    61   32   58 1
    62   33   59 1
    63   34   60 1
    64   34   61 1
    65   34   62 1
@<TRIPOS>MOLECULE
ZINC04091160
   57    60     0     0     0
SMALL
USER_CHARGES
N-[1-(3-methoxybenzoyl)-2-methyl-3,4-dihydro-2H-quinolin-4-yl]-N-phenyl-acetamide
@<TRIPOS>ATOM
      1 C1         -1.1857   -3.6092    1.9052 C.3       1 <0>        -0.1560
      2 C2         -2.1621   -3.0252    0.8823 C.3       1 <0>         0.1456
      3 H1         -3.1547   -2.9405    1.3248 H         1 <0>         0.0893
      4 C3         -1.6753   -1.6423    0.4297 C.3       1 <0>        -0.1597
      5 C4         -2.7008   -1.0496   -0.5364 C.3       1 <0>         0.1894
      6 H2         -3.6132   -0.8102    0.0099 H         1 <0>         0.1100
      7 C5         -3.0216   -2.0311   -1.6325 C.ar      1 <0>        -0.1347
      8 C6         -3.5727   -1.5607   -2.8130 C.ar      1 <0>        -0.0808
      9 C7         -3.8808   -2.4362   -3.8358 C.ar      1 <0>        -0.1341
     10 C8         -3.6413   -3.7903   -3.6872 C.ar      1 <0>        -0.0848
     11 C9         -3.0909   -4.2672   -2.5147 C.ar      1 <0>        -0.1656
     12 C10        -2.7787   -3.3874   -1.4841 C.ar      1 <0>         0.1654
     13 N1         -2.2181   -3.8914   -0.3032 N.am      1 <0>        -0.5565
     14 C11        -1.7376   -5.1497   -0.2556 C.2       1 <0>         0.5716
     15 O1         -1.5395   -5.6844    0.8180 O.2       1 <0>        -0.4908
     16 C12        -1.4515   -5.8796   -1.5088 C.ar      1 <0>        -0.1151
     17 C13        -1.0340   -5.1840   -2.6450 C.ar      1 <0>        -0.0992
     18 C14        -0.7628   -5.8690   -3.8115 C.ar      1 <0>        -0.0944
     19 C15        -0.9138   -7.2427   -3.8628 C.ar      1 <0>        -0.1767
     20 C16        -1.3340   -7.9423   -2.7399 C.ar      1 <0>         0.1184
     21 C17        -1.6034   -7.2653   -1.5621 C.ar      1 <0>        -0.0912
     22 O2         -1.4806   -9.2923   -2.7961 O.3       1 <0>        -0.3131
     23 C18        -1.1853   -9.9255   -4.0427 C.3       1 <0>         0.0253
     24 N2         -2.1562    0.1750   -1.1281 N.am      1 <0>        -0.5637
     25 C19        -2.8245    1.3923   -0.9561 C.ar      1 <0>         0.1420
     26 C20        -3.0920    1.8647    0.3221 C.ar      1 <0>        -0.1283
     27 C21        -3.7472    3.0691    0.4885 C.ar      1 <0>        -0.1053
     28 C22        -4.1464    3.7990   -0.6160 C.ar      1 <0>        -0.1224
     29 C23        -3.8866    3.3286   -1.8901 C.ar      1 <0>        -0.1044
     30 C24        -3.2267    2.1277   -2.0633 C.ar      1 <0>        -0.1098
     31 C25        -1.0116    0.1291   -1.8381 C.2       1 <0>         0.5231
     32 O3         -0.5063    1.1555   -2.2410 O.2       1 <0>        -0.5221
     33 C26        -0.3594   -1.1975   -2.1313 C.3       1 <0>        -0.1923
     34 H3         -0.9888   -2.8707    2.6824 H         1 <0>         0.0658
     35 H4         -1.6207   -4.5020    2.3542 H         1 <0>         0.0931
     36 H5         -0.2518   -3.8709    1.4077 H         1 <0>         0.0603
     37 H6         -0.7135   -1.7406   -0.0738 H         1 <0>         0.0912
     38 H7         -1.5691   -0.9890    1.2957 H         1 <0>         0.0968
     39 H8         -3.7620   -0.5044   -2.9343 H         1 <0>         0.1253
     40 H9         -4.3101   -2.0626   -4.7538 H         1 <0>         0.1262
     41 H10        -3.8840   -4.4734   -4.4877 H         1 <0>         0.1288
     42 H11        -2.9030   -5.3243   -2.3975 H         1 <0>         0.1556
     43 H12        -0.9190   -4.1107   -2.6096 H         1 <0>         0.1328
     44 H13        -0.4360   -5.3303   -4.6886 H         1 <0>         0.1345
     45 H14        -0.7044   -7.7731   -4.7800 H         1 <0>         0.1351
     46 H15        -1.9303   -7.8085   -0.6877 H         1 <0>         0.1436
     47 H16        -0.1468   -9.7322   -4.3114 H         1 <0>         0.0578
     48 H17        -1.3429  -11.0001   -3.9506 H         1 <0>         0.1037
     49 H18        -1.8411   -9.5272   -4.8169 H         1 <0>         0.0578
     50 H19        -2.7841    1.2930    1.1852 H         1 <0>         0.1241
     51 H20        -3.9516    3.4391    1.4823 H         1 <0>         0.1273
     52 H21        -4.6619    4.7387   -0.4832 H         1 <0>         0.1254
     53 H22        -4.1996    3.9011   -2.7507 H         1 <0>         0.1270
     54 H23        -3.0235    1.7612   -3.0586 H         1 <0>         0.1215
     55 H24        -0.9834   -2.0027   -1.7436 H         1 <0>         0.0943
     56 H25        -0.2429   -1.3148   -3.2087 H         1 <0>         0.0969
     57 H26         0.6197   -1.2345   -1.6538 H         1 <0>         0.0955
@<TRIPOS>BOND
     1    1    2 1
     2    1   34 1
     3    1   35 1
     4    1   36 1
     5    2    3 1
     6    2   13 1
     7    2    4 1
     8    4    5 1
     9    4   37 1
    10    4   38 1
    11    5    6 1
    12    5    7 1
    13    5   24 1
    14    7   12 ar
    15    7    8 ar
    16    8    9 ar
    17    8   39 1
    18    9   10 ar
    19    9   40 1
    20   10   11 ar
    21   10   41 1
    22   11   12 ar
    23   11   42 1
    24   12   13 1
    25   13   14 am
    26   14   15 2
    27   14   16 1
    28   16   21 ar
    29   16   17 ar
    30   17   18 ar
    31   17   43 1
    32   18   19 ar
    33   18   44 1
    34   19   20 ar
    35   19   45 1
    36   20   21 ar
    37   20   22 1
    38   21   46 1
    39   22   23 1
    40   23   47 1
    41   23   48 1
    42   23   49 1
    43   24   25 1
    44   24   31 am
    45   25   30 ar
    46   25   26 ar
    47   26   27 ar
    48   26   50 1
    49   27   28 ar
    50   27   51 1
    51   28   29 ar
    52   28   52 1
    53   29   30 ar
    54   29   53 1
    55   30   54 1
    56   31   32 2
    57   31   33 1
    58   33   55 1
    59   33   56 1
    60   33   57 1
@<TRIPOS>MOLECULE
ZINC13608926
   49    52     0     0     0
SMALL
USER_CHARGES

@<TRIPOS>ATOM
      1 C1         -0.0178    1.4608    0.0101 C.3       1 <0>         0.0794
      2 N1          0.0021   -0.0041    0.0020 N.pl3     1 <0>        -0.9916
      3 C2          0.0241   -0.7433    1.2666 C.3       1 <0>         0.1446
      4 H1          0.0368   -1.8139    1.0620 H         1 <0>         0.1075
      5 C3         -1.2224   -0.3940    2.0846 C.3       1 <0>        -0.1128
      6 C4         -1.3285   -1.3441    3.2824 C.3       1 <0>        -0.0585
      7 C5          0.0006   -1.3647    4.0002 C.2       1 <0>         0.1015
      8 C6          1.1549   -0.9250    3.4542 C.2       1 <0>        -0.2007
      9 C7          2.1929   -1.1081    4.4473 C.ar      1 <0>        -0.0964
     10 C8          3.5647   -0.8377    4.4471 C.ar      1 <0>        -0.0780
     11 C9          4.2583   -1.1461    5.5911 C.ar      1 <0>        -0.1586
     12 C10         3.6400   -1.7001    6.7001 C.ar      1 <0>        -0.1160
     13 C11         2.2845   -1.9785    6.7277 C.ar      1 <0>        -0.1167
     14 C12         1.5545   -1.6753    5.5802 C.ar      1 <0>         0.1130
     15 N2          0.2319   -1.8165    5.2731 N.pl3     1 <0>        -0.4281
     16 C13        -0.7870   -2.3681    6.1696 C.3       1 <0>         0.0295
     17 C14        -0.8793   -3.8587    5.9683 C.2       1 <0>         0.4824
     18 O1         -0.1606   -4.4093    5.1517 O.co2     1 <0>        -0.6695
     19 O2         -1.6727   -4.5142    6.6221 O.co2     1 <0>        -0.6918
     20 C15         1.2775   -0.3595    2.0619 C.3       1 <0>        -0.0366
     21 S1         -0.0004   -0.8243   -1.4366 S.o2      1 <0>         2.6895
     22 O3         -0.5312   -2.1147   -1.1675 O.2       1 <0>        -0.9459
     23 O4         -0.5723    0.0488   -2.4009 O.2       1 <0>        -0.9564
     24 C16         1.6818   -1.0594   -1.9051 C.ar      1 <0>        -0.6907
     25 C17         2.3232   -0.1086   -2.6770 C.ar      1 <0>         0.0087
     26 C18         3.6427   -0.2917   -3.0447 C.ar      1 <0>        -0.1772
     27 C19         4.3224   -1.4280   -2.6397 C.ar      1 <0>         0.1540
     28 C20         3.6790   -2.3796   -1.8666 C.ar      1 <0>        -0.1722
     29 C21         2.3610   -2.1918   -1.4957 C.ar      1 <0>         0.0140
     30 F1          5.6122   -1.6082   -2.9990 F         1 <0>        -0.1308
     31 H2          1.0048    1.8381    0.0023 H         1 <0>         0.0560
     32 H3         -0.5450    1.8219   -0.8730 H         1 <0>         0.0823
     33 H4         -0.5280    1.8123    0.9069 H         1 <0>         0.0829
     34 H5         -1.1472    0.6333    2.4410 H         1 <0>         0.0736
     35 H6         -2.1088   -0.4978    1.4587 H         1 <0>         0.0768
     36 H7         -2.1055   -0.9921    3.9610 H         1 <0>         0.0791
     37 H8         -1.5713   -2.3477    2.9331 H         1 <0>         0.0908
     38 H9          4.0558   -0.4067    3.5871 H         1 <0>         0.1187
     39 H10         5.3199   -0.9509    5.6275 H         1 <0>         0.1080
     40 H11         4.2360   -1.9227    7.5728 H         1 <0>         0.1121
     41 H12         1.8143   -2.4110    7.5985 H         1 <0>         0.1207
     42 H13        -0.5138   -2.1573    7.2035 H         1 <0>         0.0839
     43 H14        -1.7515   -1.9111    5.9482 H         1 <0>         0.0855
     44 H15         2.1607   -0.7729    1.5749 H         1 <0>         0.0678
     45 H16         1.3596    0.7261    2.1142 H         1 <0>         0.0712
     46 H17         1.7927    0.7774   -2.9931 H         1 <0>         0.1493
     47 H18         4.1434    0.4510   -3.6481 H         1 <0>         0.1449
     48 H19         4.2081   -3.2664   -1.5504 H         1 <0>         0.1478
     49 H20         1.8603   -2.9317   -0.8890 H         1 <0>         0.1533
@<TRIPOS>BOND
     1    1    2 1
     2    1   31 1
     3    1   32 1
     4    1   33 1
     5    2    3 1
     6    2   21 1
     7    3    4 1
     8    3   20 1
     9    3    5 1
    10    5    6 1
    11    5   34 1
    12    5   35 1
    13    6    7 1
    14    6   36 1
    15    6   37 1
    16    7   15 1
    17    7    8 2
    18    8    9 1
    19    8   20 1
    20    9   14 ar
    21    9   10 ar
    22   10   11 ar
    23   10   38 1
    24   11   12 ar
    25   11   39 1
    26   12   13 ar
    27   12   40 1
    28   13   14 ar
    29   13   41 1
    30   14   15 1
    31   15   16 1
    32   16   17 1
    33   16   42 1
    34   16   43 1
    35   17   18 2
    36   17   19 1
    37   20   44 1
    38   20   45 1
    39   21   22 2
    40   21   23 2
    41   21   24 1
    42   24   29 ar
    43   24   25 ar
    44   25   26 ar
    45   25   46 1
    46   26   27 ar
    47   26   47 1
    48   27   28 ar
    49   27   30 1
    50   28   29 ar
    51   28   48 1
    52   29   49 1
@<TRIPOS>MOLECULE
ZINC13608929
   49    52     0     0     0
SMALL
USER_CHARGES

@<TRIPOS>ATOM
      1 C1         -0.0178    1.4608    0.0101 C.3       1 <0>         0.0770
      2 N1          0.0021   -0.0041    0.0020 N.pl3     1 <0>        -0.9909
      3 C2          0.0241   -0.7433    1.2666 C.3       1 <0>         0.1475
      4 H1          0.0368   -1.8139    1.0620 H         1 <0>         0.1040
      5 C3          1.2760   -0.3600    2.0609 C.3       1 <0>        -0.1186
      6 C4          1.4306   -1.3066    3.2563 C.3       1 <0>        -0.0571
      7 C5          0.1164   -1.3631    3.9991 C.2       1 <0>         0.0969
      8 C6         -1.0596   -0.9552    3.4752 C.2       1 <0>        -0.1950
      9 C7         -2.0733   -1.1665    4.4876 C.ar      1 <0>        -0.0975
     10 C8         -3.4518   -0.9334    4.5135 C.ar      1 <0>        -0.0762
     11 C9         -4.1149   -1.2604    5.6704 C.ar      1 <0>        -0.1590
     12 C10        -3.4607   -1.7964    6.7675 C.ar      1 <0>        -0.1150
     13 C11        -2.0980   -2.0382    6.7692 C.ar      1 <0>        -0.1181
     14 C12        -1.3984   -1.7160    5.6080 C.ar      1 <0>         0.1137
     15 N2         -0.0785   -1.8210    5.2759 N.pl3     1 <0>        -0.4287
     16 C13         0.9718   -2.3449    6.1526 C.3       1 <0>         0.0301
     17 C14         1.5633   -1.2166    6.9576 C.2       1 <0>         0.4823
     18 O1          1.1463   -0.0802    6.8125 O.co2     1 <0>        -0.6702
     19 O2          2.4590   -1.4402    7.7540 O.co2     1 <0>        -0.6924
     20 C15        -1.2240   -0.3936    2.0856 C.3       1 <0>        -0.0370
     21 S1         -0.0004   -0.8243   -1.4366 S.o2      1 <0>         2.6911
     22 O3         -0.5312   -2.1147   -1.1675 O.2       1 <0>        -0.9491
     23 O4         -0.5723    0.0488   -2.4009 O.2       1 <0>        -0.9550
     24 C16         1.6818   -1.0594   -1.9051 C.ar      1 <0>        -0.6910
     25 C17         2.3232   -0.1086   -2.6770 C.ar      1 <0>         0.0098
     26 C18         3.6427   -0.2917   -3.0447 C.ar      1 <0>        -0.1759
     27 C19         4.3224   -1.4280   -2.6397 C.ar      1 <0>         0.1542
     28 C20         3.6790   -2.3796   -1.8666 C.ar      1 <0>        -0.1737
     29 C21         2.3610   -2.1918   -1.4957 C.ar      1 <0>         0.0115
     30 F1          5.6122   -1.6082   -2.9990 F         1 <0>        -0.1304
     31 H2          1.0048    1.8381    0.0023 H         1 <0>         0.0565
     32 H3         -0.5450    1.8219   -0.8730 H         1 <0>         0.0829
     33 H4         -0.5280    1.8123    0.9069 H         1 <0>         0.0864
     34 H5          2.1528   -0.4398    1.4183 H         1 <0>         0.0720
     35 H6          1.1796    0.6650    2.4190 H         1 <0>         0.0786
     36 H7          1.6939   -2.3032    2.9021 H         1 <0>         0.0777
     37 H8          2.2104   -0.9334    3.9201 H         1 <0>         0.0866
     38 H9         -3.9704   -0.5155    3.6633 H         1 <0>         0.1207
     39 H10        -5.1805   -1.0941    5.7269 H         1 <0>         0.1087
     40 H11        -4.0337   -2.0340    7.6517 H         1 <0>         0.1122
     41 H12        -1.5997   -2.4571    7.6310 H         1 <0>         0.1203
     42 H13         0.5452   -3.0876    6.8268 H         1 <0>         0.0842
     43 H14         1.7518   -2.8081    5.5484 H         1 <0>         0.0848
     44 H15        -1.3346    0.6895    2.1397 H         1 <0>         0.0742
     45 H16        -2.1047   -0.8310    1.6154 H         1 <0>         0.0723
     46 H17         1.7927    0.7774   -2.9931 H         1 <0>         0.1502
     47 H18         4.1434    0.4510   -3.6481 H         1 <0>         0.1457
     48 H19         4.2081   -3.2664   -1.5504 H         1 <0>         0.1470
     49 H20         1.8603   -2.9317   -0.8890 H         1 <0>         0.1515
@<TRIPOS>BOND
     1    1    2 1
     2    1   31 1
     3    1   32 1
     4    1   33 1
     5    2    3 1
     6    2   21 1
     7    3    4 1
     8    3   20 1
     9    3    5 1
    10    5    6 1
    11    5   34 1
    12    5   35 1
    13    6    7 1
    14    6   36 1
    15    6   37 1
    16    7   15 1
    17    7    8 2
    18    8    9 1
    19    8   20 1
    20    9   14 ar
    21    9   10 ar
    22   10   11 ar
    23   10   38 1
    24   11   12 ar
    25   11   39 1
    26   12   13 ar
    27   12   40 1
    28   13   14 ar
    29   13   41 1
    30   14   15 1
    31   15   16 1
    32   16   17 1
    33   16   42 1
    34   16   43 1
    35   17   18 2
    36   17   19 1
    37   20   44 1
    38   20   45 1
    39   21   22 2
    40   21   23 2
    41   21   24 1
    42   24   29 ar
    43   24   25 ar
    44   25   26 ar
    45   25   46 1
    46   26   27 ar
    47   26   47 1
    48   27   28 ar
    49   27   30 1
    50   28   29 ar
    51   28   48 1
    52   29   49 1
@<TRIPOS>MOLECULE
ZINC71341409
   28    29     0     0     0
SMALL
USER_CHARGES

@<TRIPOS>ATOM
      1 C1         -0.0167    1.3790    0.0096 C.ar      1 <0>        -0.1208
      2 C2          1.1686    2.0921    0.0021 C.ar      1 <0>        -0.1280
      3 C3          2.3774    1.4262   -0.0135 C.ar      1 <0>        -0.1102
      4 C4          2.4023    0.0328   -0.0212 C.ar      1 <0>        -0.0360
      5 C5          1.2050   -0.6804   -0.0131 C.ar      1 <0>        -0.0727
      6 C6          0.0021   -0.0041    0.0020 C.ar      1 <0>        -0.1153
      7 C7          3.6983   -0.6884   -0.0385 C.ar      1 <0>        -0.0795
      8 C8          4.6787   -0.3432   -0.9659 C.ar      1 <0>        -0.0588
      9 C9          5.8837   -1.0178   -0.9779 C.ar      1 <0>        -0.0857
     10 C10         6.1209   -2.0369   -0.0706 C.ar      1 <0>        -0.0649
     11 C11         5.1545   -2.3865    0.8531 C.ar      1 <0>        -0.2059
     12 C12         3.9434   -1.7137    0.8796 C.ar      1 <0>         0.1584
     13 O1          2.9949   -2.0532    1.7912 O.3       1 <0>        -0.2667
     14 C13         3.3154   -3.1104    2.6978 C.3       1 <0>        -0.0120
     15 C14         2.1525   -3.3449    3.6272 C.2       1 <0>         0.5016
     16 O2          1.1429   -2.6694    3.5229 O.co2     1 <0>        -0.6662
     17 O3          2.2214   -4.2102    4.4834 O.co2     1 <0>        -0.6868
     18 Cl1         7.1049   -0.5874   -2.1343 Cl        1 <0>        -0.0835
     19 H1         -0.9603    1.9042    0.0260 H         1 <0>         0.1178
     20 H2          1.1481    3.1719    0.0081 H         1 <0>         0.1186
     21 H3          3.3022    1.9839   -0.0200 H         1 <0>         0.1188
     22 H4          1.2185   -1.7603   -0.0191 H         1 <0>         0.1248
     23 H5         -0.9264   -0.5557    0.0079 H         1 <0>         0.1223
     24 H6          4.4966    0.4509   -1.6749 H         1 <0>         0.1365
     25 H7          7.0651   -2.5609   -0.0853 H         1 <0>         0.1320
     26 H8          5.3451   -3.1821    1.5582 H         1 <0>         0.1398
     27 H9          3.5207   -4.0214    2.1356 H         1 <0>         0.0615
     28 H10         4.1956   -2.8360    3.2792 H         1 <0>         0.0611
@<TRIPOS>BOND
     1    1    6 ar
     2    1    2 ar
     3    1   19 1
     4    2    3 ar
     5    2   20 1
     6    3    4 ar
     7    3   21 1
     8    4    5 ar
     9    4    7 1
    10    5    6 ar
    11    5   22 1
    12    6   23 1
    13    7   12 ar
    14    7    8 ar
    15    8    9 ar
    16    8   24 1
    17    9   10 ar
    18    9   18 1
    19   10   11 ar
    20   10   25 1
    21   11   12 ar
    22   11   26 1
    23   12   13 1
    24   13   14 1
    25   14   15 1
    26   14   27 1
    27   14   28 1
    28   15   16 2
    29   15   17 1
@<TRIPOS>MOLECULE
ZINC01621399
   28    29     0     0     0
SMALL
USER_CHARGES
2-(4-bromo-2-phenyl-phenoxy)acetic acid
@<TRIPOS>ATOM
      1 C1          1.2078   -0.6819   -0.0131 C.ar      1 <0>        -0.1204
      2 C2          0.0021   -0.0041    0.0020 C.ar      1 <0>        -0.1272
      3 C3         -0.0166    1.3759    0.0096 C.ar      1 <0>        -0.1098
      4 C4          1.1823    2.0864    0.0020 C.ar      1 <0>        -0.0364
      5 C5          2.3940    1.3982   -0.0133 C.ar      1 <0>        -0.0748
      6 C6          2.4007    0.0182   -0.0208 C.ar      1 <0>        -0.1155
      7 C7          1.1686    3.5696    0.0096 C.ar      1 <0>        -0.0843
      8 C8          0.3793    4.2666   -0.9024 C.ar      1 <0>        -0.0392
      9 C9          0.3697    5.6474   -0.8909 C.ar      1 <0>        -0.1404
     10 C10         1.1423    6.3421    0.0244 C.ar      1 <0>        -0.0452
     11 C11         1.9289    5.6598    0.9327 C.ar      1 <0>        -0.2107
     12 C12         1.9433    4.2741    0.9357 C.ar      1 <0>         0.1693
     13 O1          2.7121    3.6025    1.8322 O.3       1 <0>        -0.2720
     14 C13         3.4771    4.3885    2.7482 C.3       1 <0>         0.0125
     15 C14         4.2608    3.4783    3.6583 C.2       1 <0>         0.4695
     16 O2          4.1733    2.2795    3.5352 O.co2     1 <0>        -0.6091
     17 Br1        -0.7017    6.5927   -2.1297 Br        1 <0>        -0.0635
     18 H1          1.2177   -1.7619   -0.0187 H         1 <0>         0.1182
     19 H2         -0.9264   -0.5557    0.0076 H         1 <0>         0.1191
     20 H3         -0.9586    1.9042    0.0169 H         1 <0>         0.1191
     21 H4          3.3261    1.9438   -0.0189 H         1 <0>         0.1244
     22 H5          3.3392   -0.5162   -0.0322 H         1 <0>         0.1225
     23 H6         -0.2248    3.7277   -1.6173 H         1 <0>         0.1364
     24 H7          1.1303    7.4220    0.0281 H         1 <0>         0.1323
     25 H8          2.5294    6.2070    1.6443 H         1 <0>         0.1410
     26 H9          4.1644    5.0269    2.1932 H         1 <0>         0.0693
     27 H10         2.8064    5.0079    3.3436 H         1 <0>         0.0690
     28 O3          5.0561    3.9993    4.6058 O.co2     1 <0>        -0.7539
@<TRIPOS>BOND
     1    1    6 ar
     2    1    2 ar
     3    1   18 1
     4    2    3 ar
     5    2   19 1
     6    3    4 ar
     7    3   20 1
     8    4    5 ar
     9    4    7 1
    10    5    6 ar
    11    5   21 1
    12    6   22 1
    13    7   12 ar
    14    7    8 ar
    15    8    9 ar
    16    8   23 1
    17    9   10 ar
    18    9   17 1
    19   10   11 ar
    20   10   24 1
    21   11   12 ar
    22   11   25 1
    23   12   13 1
    24   13   14 1
    25   14   15 1
    26   14   26 1
    27   14   27 1
    28   15   16 2
    29   15   28 1
@<TRIPOS>MOLECULE
ZINC12404515
   40    42     0     0     0
SMALL
USER_CHARGES

@<TRIPOS>ATOM
      1 C1         -0.0439    1.3635   -0.6440 C.3       1 <0>        -0.0874
      2 C2         -0.0025   -0.0397   -0.0960 C.2       1 <0>        -0.1309
      3 C3         -1.0756   -0.7895    0.2220 C.2       1 <0>        -0.0100
      4 C4         -0.6392   -2.0946    0.7226 C.ar      1 <0>        -0.0059
      5 C5         -1.3387   -3.2167    1.1780 C.ar      1 <0>        -0.1272
      6 C6         -0.6462   -4.3331    1.5994 C.ar      1 <0>         0.1014
      7 C7          0.7427   -4.3545    1.5760 C.ar      1 <0>        -0.1658
      8 C8          1.4511   -3.2580    1.1303 C.ar      1 <0>        -0.0710
      9 C9          0.7717   -2.1225    0.7012 C.ar      1 <0>        -0.0956
     10 C10         1.2127   -0.8159    0.1730 C.2       1 <0>        -0.0141
     11 C11         2.5125   -0.4047   -0.0252 C.2       1 <0>        -0.0858
     12 C12         3.6081   -1.3706    0.0692 C.ar      1 <0>        -0.0550
     13 C13         3.4905   -2.6298   -0.5385 C.ar      1 <0>        -0.0770
     14 C14         4.5151   -3.5269   -0.4481 C.ar      1 <0>        -0.1023
     15 C15         5.6770   -3.1939    0.2465 C.ar      1 <0>        -0.0838
     16 C16         5.7986   -1.9440    0.8520 C.ar      1 <0>        -0.1356
     17 C17         4.7817   -1.0381    0.7627 C.ar      1 <0>        -0.0863
     18 S1          6.9960   -4.3567    0.3601 S.3       1 <0>        -0.1220
     19 C18         8.2592   -3.4936    1.3348 C.3       1 <0>        -0.1438
     20 F1         -1.3249   -5.4153    2.0392 F         1 <0>        -0.1428
     21 C19        -2.5106   -0.3507    0.0836 C.3       1 <0>        -0.1489
     22 C20        -3.0571   -0.8291   -1.2368 C.2       1 <0>         0.4994
     23 O1         -2.3472   -1.4673   -1.9952 O.co2     1 <0>        -0.6840
     24 O2         -4.2093   -0.5780   -1.5467 O.co2     1 <0>        -0.7005
     25 H1          0.9730    1.7183   -0.8115 H         1 <0>         0.0583
     26 H2         -0.5907    1.3693   -1.5869 H         1 <0>         0.0728
     27 H3         -0.5440    2.0178    0.0700 H         1 <0>         0.0650
     28 H4         -2.4185   -3.2093    1.2002 H         1 <0>         0.1355
     29 H5          1.2713   -5.2353    1.9092 H         1 <0>         0.1331
     30 H6          2.5308   -3.2809    1.1149 H         1 <0>         0.1382
     31 H7          2.7230    0.6304   -0.2502 H         1 <0>         0.1360
     32 H8          2.5906   -2.8888   -1.0765 H         1 <0>         0.1358
     33 H9          4.4254   -4.4966   -0.9152 H         1 <0>         0.1302
     34 H10         6.7007   -1.6906    1.3890 H         1 <0>         0.1224
     35 H11         4.8786   -0.0685    1.2282 H         1 <0>         0.1283
     36 H12         8.5584   -2.5826    0.8165 H         1 <0>         0.0833
     37 H13         7.8517   -3.2380    2.3129 H         1 <0>         0.0835
     38 H14         9.1266   -4.1416    1.4606 H         1 <0>         0.1074
     39 H15        -3.1003   -0.7750    0.8961 H         1 <0>         0.0703
     40 H16        -2.5635    0.7372    0.1260 H         1 <0>         0.0748
@<TRIPOS>BOND
     1    1    2 1
     2    1   25 1
     3    1   26 1
     4    1   27 1
     5    2   10 1
     6    2    3 2
     7    3    4 1
     8    3   21 1
     9    4    9 ar
    10    4    5 ar
    11    5    6 ar
    12    5   28 1
    13    6    7 ar
    14    6   20 1
    15    7    8 ar
    16    7   29 1
    17    8    9 ar
    18    8   30 1
    19    9   10 1
    20   10   11 2
    21   11   12 1
    22   11   31 1
    23   12   17 ar
    24   12   13 ar
    25   13   14 ar
    26   13   32 1
    27   14   15 ar
    28   14   33 1
    29   15   16 ar
    30   15   18 1
    31   16   17 ar
    32   16   34 1
    33   17   35 1
    34   18   19 1
    35   19   36 1
    36   19   37 1
    37   19   38 1
    38   21   22 1
    39   21   39 1
    40   21   40 1
    41   22   23 2
    42   22   24 1
@<TRIPOS>MOLECULE
ZINC04144845
   44    46     0     0     0
SMALL
USER_CHARGES
2-[2-[[5-(4-methoxyphenyl)-1,2,4-triazin-3-yl]aminoiminomethyl]phenoxy]acetic acid
@<TRIPOS>ATOM
      1 C1         -6.0004   -2.1870    0.0463 C.3       1 <0>         0.0250
      2 O1         -4.7823   -2.9340    0.0311 O.3       1 <0>        -0.3163
      3 C2         -3.6241   -2.2247    0.0238 C.ar      1 <0>         0.1429
      4 C3         -2.4046   -2.8893    0.0091 C.ar      1 <0>        -0.1597
      5 C4         -1.2273   -2.1723    0.0016 C.ar      1 <0>        -0.0310
      6 C5         -1.2617   -0.7780    0.0094 C.ar      1 <0>        -0.0885
      7 C6         -2.4879   -0.1137    0.0301 C.ar      1 <0>        -0.0450
      8 C7         -3.6616   -0.8364    0.0316 C.ar      1 <0>        -0.2124
      9 C8          0.0021   -0.0041    0.0020 C.ar      1 <0>         0.2195
     10 C9         -0.0169    1.3954    0.0097 C.ar      1 <0>        -0.0772
     11 N1          1.1271    2.0540    0.0023 N.ar      1 <0>        -0.1161
     12 N2          2.2473    1.4209   -0.0113 N.ar      1 <0>        -0.2025
     13 C10         2.2948    0.0942   -0.0193 C.ar      1 <0>         0.5008
     14 N3          1.1805   -0.6258   -0.0126 N.ar      1 <0>        -0.5279
     15 N4          3.5223   -0.5459   -0.0345 N.pl3     1 <0>        -0.5451
     16 N5          4.7044    0.2060   -0.0418 N.2       1 <0>        -0.1539
     17 C11         5.8553   -0.3941   -0.0560 C.2       1 <0>         0.0824
     18 C12         7.0989    0.3969   -0.0636 C.ar      1 <0>        -0.0972
     19 C13         8.3393   -0.2448   -0.0730 C.ar      1 <0>        -0.0552
     20 C14         9.4992    0.5013   -0.0850 C.ar      1 <0>        -0.1809
     21 C15         9.4395    1.8844   -0.0770 C.ar      1 <0>        -0.0643
     22 C16         8.2180    2.5312   -0.0623 C.ar      1 <0>        -0.2240
     23 C17         7.0433    1.7972   -0.0555 C.ar      1 <0>         0.1722
     24 O2          5.8426    2.4320   -0.0416 O.3       1 <0>        -0.2428
     25 C18         5.8642    3.8608   -0.0341 C.3       1 <0>         0.0104
     26 C19         4.4512    4.3845   -0.0188 C.2       1 <0>         0.4521
     27 O3          3.5211    3.6133   -0.0149 O.co2     1 <0>        -0.5501
     28 H1         -6.8473   -2.8732    0.0508 H         1 <0>         0.1001
     29 H2         -6.0332   -1.5636    0.9398 H         1 <0>         0.0578
     30 H3         -6.0498   -1.5546   -0.8401 H         1 <0>         0.0578
     31 H4         -2.3786   -3.9690    0.0030 H         1 <0>         0.1349
     32 H5         -0.2794   -2.6896   -0.0099 H         1 <0>         0.1426
     33 H6         -2.5177    0.9658    0.0404 H         1 <0>         0.1372
     34 H7         -4.6115   -0.3225    0.0431 H         1 <0>         0.1347
     35 H8         -0.9555    1.9296    0.0171 H         1 <0>         0.1756
     36 H9          3.5639   -1.5150   -0.0401 H         1 <0>         0.3913
     37 H10         5.9016   -1.4731   -0.0622 H         1 <0>         0.1136
     38 H11         8.3901   -1.3236   -0.0752 H         1 <0>         0.1273
     39 H12        10.4581    0.0045   -0.0964 H         1 <0>         0.1211
     40 H13        10.3525    2.4612   -0.0826 H         1 <0>         0.1206
     41 H14         8.1794    3.6105   -0.0558 H         1 <0>         0.1315
     42 H15         6.3912    4.2116    0.8532 H         1 <0>         0.0572
     43 H16         6.3756    4.2212   -0.9266 H         1 <0>         0.0572
     44 O4          4.2259    5.7077   -0.0097 O.co2     1 <0>        -0.7759
@<TRIPOS>BOND
     1    1    2 1
     2    1   28 1
     3    1   29 1
     4    1   30 1
     5    2    3 1
     6    3    8 ar
     7    3    4 ar
     8    4    5 ar
     9    4   31 1
    10    5    6 ar
    11    5   32 1
    12    6    7 ar
    13    6    9 1
    14    7    8 ar
    15    7   33 1
    16    8   34 1
    17    9   14 ar
    18    9   10 ar
    19   10   11 ar
    20   10   35 1
    21   11   12 ar
    22   12   13 ar
    23   13   14 ar
    24   13   15 1
    25   15   16 1
    26   15   36 1
    27   16   17 2
    28   17   18 1
    29   17   37 1
    30   18   23 ar
    31   18   19 ar
    32   19   20 ar
    33   19   38 1
    34   20   21 ar
    35   20   39 1
    36   21   22 ar
    37   21   40 1
    38   22   23 ar
    39   22   41 1
    40   23   24 1
    41   24   25 1
    42   25   26 1
    43   25   42 1
    44   25   43 1
    45   26   27 2
    46   26   44 1
@<TRIPOS>MOLECULE
ZINC00470785
   22    22     0     0     0
SMALL
USER_CHARGES
2-[4-bromo-2-(hydroxymethyl)phenoxy]acetic acid
@<TRIPOS>ATOM
      1 C1         -1.2181    1.7508    0.0173 C.ar      1 <0>        -0.0486
      2 C2         -0.0126    1.0758    0.0080 C.ar      1 <0>        -0.2108
      3 C3          1.1788    1.7861    0.0004 C.ar      1 <0>         0.1608
      4 C4          1.1572    3.1734    0.0076 C.ar      1 <0>        -0.1267
      5 C5         -0.0500    3.8443    0.0222 C.ar      1 <0>        -0.0301
      6 C6         -1.2373    3.1338    0.0293 C.ar      1 <0>        -0.1428
      7 Br1        -2.8887    4.0550    0.0481 Br        1 <0>        -0.0653
      8 C7          2.4501    3.9477   -0.0001 C.3       1 <0>         0.1286
      9 O1          2.1666    5.3482    0.0095 O.3       1 <0>        -0.5753
     10 O2          2.3657    1.1240   -0.0145 O.3       1 <0>        -0.2815
     11 C8          2.3120   -0.3039   -0.0216 C.3       1 <0>         0.0150
     12 C9          3.7128   -0.8592   -0.0379 C.2       1 <0>         0.4699
     13 O3          4.6600   -0.1091   -0.0430 O.co2     1 <0>        -0.6134
     14 H1         -2.1460    1.1981    0.0187 H         1 <0>         0.1316
     15 H2          0.0021   -0.0041    0.0020 H         1 <0>         0.1406
     16 H3         -0.0673    4.9241    0.0278 H         1 <0>         0.1448
     17 H4          3.0337    3.6890    0.8834 H         1 <0>         0.0664
     18 H5          3.0178    3.6980   -0.8965 H         1 <0>         0.0664
     19 H6          2.9544    5.9090    0.0052 H         1 <0>         0.3825
     20 H7          1.7934   -0.6525    0.8715 H         1 <0>         0.0701
     21 H8          1.7764   -0.6430   -0.9083 H         1 <0>         0.0701
     22 O4          3.9083   -2.1872   -0.0469 O.co2     1 <0>        -0.7524
@<TRIPOS>BOND
     1    1    6 ar
     2    1    2 ar
     3    1   14 1
     4    2    3 ar
     5    2   15 1
     6    3    4 ar
     7    3   10 1
     8    4    5 ar
     9    4    8 1
    10    5    6 ar
    11    5   16 1
    12    6    7 1
    13    8    9 1
    14    8   17 1
    15    8   18 1
    16    9   19 1
    17   10   11 1
    18   11   12 1
    19   11   20 1
    20   11   21 1
    21   12   13 2
    22   12   22 1
@<TRIPOS>MOLECULE
ZINC00437899
   43    44     0     0     0
SMALL
USER_CHARGES
2-[2-[[2-(p-tolylamino)acetyl]aminoiminomethyl]phenoxy]acetic acid
@<TRIPOS>ATOM
      1 C1         -4.9601    3.7341    0.0469 C.3       1 <0>        -0.1030
      2 C2         -3.6449    2.9985    0.0366 C.ar      1 <0>        -0.1556
      3 C3         -3.6279    1.6157    0.0285 C.ar      1 <0>        -0.0697
      4 C4         -2.4244    0.9384    0.0186 C.ar      1 <0>        -0.1889
      5 C5         -1.2300    1.6477    0.0168 C.ar      1 <0>         0.2211
      6 C6         -1.2507    3.0366    0.0303 C.ar      1 <0>        -0.2016
      7 C7         -2.4577    3.7076    0.0348 C.ar      1 <0>        -0.0722
      8 N1         -0.0111    0.9658    0.0074 N.pl3     1 <0>        -0.7329
      9 C8          1.2475    1.7155   -0.0006 C.3       1 <0>         0.1172
     10 C9          2.4061    0.7519   -0.0169 C.2       1 <0>         0.4934
     11 O1          2.2006   -0.4437   -0.0213 O.2       1 <0>        -0.4209
     12 N2          3.6705    1.2184   -0.0264 N.am      1 <0>        -0.5908
     13 N3          4.7476    0.3226   -0.0415 N.2       1 <0>        -0.1674
     14 C10         5.9653    0.7719   -0.0508 C.2       1 <0>         0.0838
     15 C11         7.0983   -0.1705   -0.0666 C.ar      1 <0>        -0.0995
     16 C12         8.4102    0.3088   -0.0824 C.ar      1 <0>        -0.0553
     17 C13         9.4659   -0.5784   -0.0924 C.ar      1 <0>        -0.1802
     18 C14         9.2311   -1.9428   -0.0975 C.ar      1 <0>        -0.0643
     19 C15         7.9376   -2.4296   -0.0873 C.ar      1 <0>        -0.2241
     20 C16         6.8654   -1.5525   -0.0718 C.ar      1 <0>         0.1709
     21 O2          5.5941   -2.0298   -0.0613 O.3       1 <0>        -0.2453
     22 C17         5.4342   -3.4498   -0.0675 C.3       1 <0>         0.0114
     23 C18         3.9661   -3.7901   -0.0542 C.2       1 <0>         0.4572
     24 O3          3.1414   -2.9072   -0.0409 O.co2     1 <0>        -0.5697
     25 H1         -5.2725    3.9056    1.0770 H         1 <0>         0.0608
     26 H2         -4.8450    4.6912   -0.4620 H         1 <0>         0.0587
     27 H3         -5.7140    3.1378   -0.4670 H         1 <0>         0.0595
     28 H4         -4.5569    1.0649    0.0303 H         1 <0>         0.1191
     29 H5         -2.4119   -0.1415    0.0120 H         1 <0>         0.1234
     30 H6         -0.3238    3.5910    0.0334 H         1 <0>         0.1185
     31 H7         -2.4745    4.7875    0.0411 H         1 <0>         0.1169
     32 H8          0.0021   -0.0041    0.0020 H         1 <0>         0.4171
     33 H9          1.2883    2.3477   -0.8877 H         1 <0>         0.0870
     34 H10         1.3053    2.3381    0.8922 H         1 <0>         0.0871
     35 H11         3.8348    2.1744   -0.0229 H         1 <0>         0.3740
     36 H12         6.1482    1.8363   -0.0468 H         1 <0>         0.1126
     37 H13         8.5975    1.3724   -0.0827 H         1 <0>         0.1279
     38 H14        10.4801   -0.2072   -0.1005 H         1 <0>         0.1216
     39 H15        10.0635   -2.6308   -0.1091 H         1 <0>         0.1212
     40 H16         7.7625   -3.4953   -0.0917 H         1 <0>         0.1314
     41 H17         5.8949   -3.8635   -0.9646 H         1 <0>         0.0602
     42 H18         5.9133   -3.8733    0.8153 H         1 <0>         0.0602
     43 O4          3.5747   -5.0741   -0.0572 O.co2     1 <0>        -0.7710
@<TRIPOS>BOND
     1    1    2 1
     2    1   25 1
     3    1   26 1
     4    1   27 1
     5    2    7 ar
     6    2    3 ar
     7    3    4 ar
     8    3   28 1
     9    4    5 ar
    10    4   29 1
    11    5    6 ar
    12    5    8 1
    13    6    7 ar
    14    6   30 1
    15    7   31 1
    16    8    9 1
    17    8   32 1
    18    9   10 1
    19    9   33 1
    20    9   34 1
    21   10   11 2
    22   10   12 am
    23   12   13 1
    24   12   35 1
    25   13   14 2
    26   14   15 1
    27   14   36 1
    28   15   20 ar
    29   15   16 ar
    30   16   17 ar
    31   16   37 1
    32   17   18 ar
    33   17   38 1
    34   18   19 ar
    35   18   39 1
    36   19   20 ar
    37   19   40 1
    38   20   21 1
    39   21   22 1
    40   22   23 1
    41   22   41 1
    42   22   42 1
    43   23   24 2
    44   23   43 1
@<TRIPOS>MOLECULE
ZINC22023403
   40    42     0     0     0
SMALL
USER_CHARGES
2-[4-bromo-2-[(E)-[(5-phenyl-1,2,4-triazin-3-yl)hydrazono]methyl]phenoxy]acetic acid
@<TRIPOS>ATOM
      1 C1          2.3963    0.0329   -0.0206 C.ar      1 <0>        -0.1045
      2 C2          1.2079   -0.6751   -0.0131 C.ar      1 <0>        -0.1290
      3 C3          0.0021   -0.0041    0.0020 C.ar      1 <0>        -0.0725
      4 C4         -0.0168    1.3897    0.0097 C.ar      1 <0>        -0.0506
      5 C5          1.1838    2.0977    0.0020 C.ar      1 <0>        -0.0879
      6 C6          2.3837    1.4161   -0.0131 C.ar      1 <0>        -0.1242
      7 C7         -1.3095    2.1164    0.0197 C.ar      1 <0>         0.2126
      8 C8         -1.3424    3.5150    0.0275 C.ar      1 <0>        -0.0752
      9 N1         -2.5103    4.1308    0.0364 N.ar      1 <0>        -0.1161
     10 N2         -3.6063    3.4564    0.0380 N.ar      1 <0>        -0.2037
     11 C9         -3.6040    2.1289    0.0308 C.ar      1 <0>         0.5018
     12 N3         -2.4636    1.4513    0.0161 N.ar      1 <0>        -0.5247
     13 N4         -4.8067    1.4431    0.0328 N.pl3     1 <0>        -0.5525
     14 N5         -6.0162    2.1501    0.0424 N.2       1 <0>        -0.1455
     15 C10        -7.1439    1.5071    0.0443 C.2       1 <0>         0.0754
     16 C11        -8.4163    2.2509    0.0544 C.ar      1 <0>        -0.0871
     17 C12        -9.6317    1.5629    0.0564 C.ar      1 <0>        -0.0254
     18 C13       -10.8195    2.2654    0.0659 C.ar      1 <0>        -0.1484
     19 C14       -10.8110    3.6505    0.0733 C.ar      1 <0>        -0.0342
     20 C15        -9.6142    4.3420    0.0714 C.ar      1 <0>        -0.2171
     21 C16        -8.4132    3.6522    0.0678 C.ar      1 <0>         0.1870
     22 O1         -7.2367    4.3313    0.0720 O.3       1 <0>        -0.2371
     23 C17        -7.3115    5.7583    0.0857 C.3       1 <0>         0.0061
     24 C18        -5.9189    6.3343    0.0885 C.2       1 <0>         0.4525
     25 O2         -4.9607    5.5983    0.0796 O.co2     1 <0>        -0.5496
     26 O3         -5.7429    7.6649    0.1009 O.co2     1 <0>        -0.7730
     27 Br1       -12.4649    1.3336    0.0680 Br        1 <0>        -0.0634
     28 H1          3.3377   -0.4964   -0.0321 H         1 <0>         0.1239
     29 H2          1.2238   -1.7549   -0.0194 H         1 <0>         0.1256
     30 H3         -0.9252   -0.5578    0.0083 H         1 <0>         0.1345
     31 H4          1.1751    3.1777    0.0083 H         1 <0>         0.1333
     32 H5          3.3145    1.9637   -0.0190 H         1 <0>         0.1287
     33 H6         -0.4243    4.0836    0.0259 H         1 <0>         0.1766
     34 H7         -4.8126    0.3431    0.0269 H         1 <0>         0.4100
     35 H8         -7.1498    0.4071    0.0384 H         1 <0>         0.1198
     36 H9         -9.6421    0.4830    0.0503 H         1 <0>         0.1382
     37 H10       -11.7447    4.1932    0.0810 H         1 <0>         0.1321
     38 H11        -9.6155    5.4220    0.0772 H         1 <0>         0.1418
     39 H12        -7.8503    6.1058   -0.8082 H         1 <0>         0.0610
     40 H13        -7.8468    6.0888    0.9880 H         1 <0>         0.0609
@<TRIPOS>BOND
     1    1    6 ar
     2    1    2 ar
     3    1   28 1
     4    2    3 ar
     5    2   29 1
     6    3    4 ar
     7    3   30 1
     8    4    5 ar
     9    4    7 1
    10    5    6 ar
    11    5   31 1
    12    6   32 1
    13    7   12 ar
    14    7    8 ar
    15    8    9 ar
    16    8   33 1
    17    9   10 ar
    18   10   11 ar
    19   11   12 ar
    20   11   13 1
    21   13   14 1
    22   13   34 1
    23   14   15 2
    24   15   16 1
    25   15   35 1
    26   16   21 ar
    27   16   17 ar
    28   17   18 ar
    29   17   36 1
    30   18   19 ar
    31   18   27 1
    32   19   20 ar
    33   19   37 1
    34   20   21 ar
    35   20   38 1
    36   21   22 1
    37   22   23 1
    38   23   24 1
    39   23   39 1
    40   23   40 1
    41   24   25 2
    42   24   26 1
@<TRIPOS>MOLECULE
ZINC05008844
   38    40     0     0     0
SMALL
USER_CHARGES
2-[4-bromo-2-(8-quinolylaminoiminomethyl)phenoxy]acetic acid
@<TRIPOS>ATOM
      1 C1          0.0359   -0.0044   -0.1116 C.ar      1 <0>        -0.0614
      2 C2          1.2125   -0.6848   -0.2051 C.ar      1 <0>        -0.1634
      3 C3          2.4253    0.0192   -0.2771 C.ar      1 <0>        -0.0609
      4 C4          3.6575   -0.6552   -0.3749 C.ar      1 <0>        -0.0699
      5 C5          4.7981    0.0931   -0.4426 C.ar      1 <0>        -0.1655
      6 C6          4.7197    1.4837   -0.4130 C.ar      1 <0>         0.1137
      7 N1          3.5701    2.1075   -0.3213 N.ar      1 <0>        -0.4680
      8 C7          2.4187    1.4351   -0.2521 C.ar      1 <0>         0.0826
      9 C8          1.1831    2.1136   -0.1545 C.ar      1 <0>         0.2547
     10 C9          0.0130    1.3862   -0.0858 C.ar      1 <0>        -0.1772
     11 N2          1.1469    3.5047   -0.1278 N.pl3     1 <0>        -0.5646
     12 N3         -0.0839    4.1739   -0.1457 N.2       1 <0>        -0.2564
     13 C10        -0.1172    5.4701   -0.2199 C.2       1 <0>         0.1288
     14 C11        -1.4050    6.1805   -0.1270 C.ar      1 <0>        -0.0878
     15 C12        -2.6012    5.4615   -0.0709 C.ar      1 <0>        -0.0134
     16 C13        -3.8035    6.1331    0.0164 C.ar      1 <0>        -0.1464
     17 C14        -3.8289    7.5176    0.0483 C.ar      1 <0>        -0.0308
     18 C15        -2.6514    8.2397   -0.0067 C.ar      1 <0>        -0.2136
     19 C16        -1.4358    7.5812   -0.0887 C.ar      1 <0>         0.1869
     20 O1         -0.2781    8.2903   -0.1374 O.3       1 <0>        -0.2779
     21 C17        -0.3816    9.7105   -0.0173 C.3       1 <0>         0.0134
     22 C18         0.9855   10.3278   -0.1616 C.2       1 <0>         0.4696
     23 O2          1.9348    9.6348   -0.4420 O.co2     1 <0>        -0.6126
     24 Br1        -5.4228    5.1594    0.0924 Br        1 <0>        -0.0592
     25 H1         -0.8929   -0.5528   -0.0570 H         1 <0>         0.1267
     26 H2          1.2124   -1.7646   -0.2235 H         1 <0>         0.1254
     27 H3          3.6995   -1.7341   -0.3967 H         1 <0>         0.1380
     28 H4          5.7597   -0.3927   -0.5187 H         1 <0>         0.1358
     29 H5          5.6296    2.0630   -0.4673 H         1 <0>         0.1584
     30 H6         -0.9328    1.9029   -0.0157 H         1 <0>         0.1392
     31 H7          1.9737    4.0109   -0.0969 H         1 <0>         0.4021
     32 H8          0.7988    6.0273   -0.3496 H         1 <0>         0.1336
     33 H9         -2.5851    4.3820   -0.0962 H         1 <0>         0.1456
     34 H10        -4.7739    8.0360    0.1167 H         1 <0>         0.1351
     35 H11        -2.6792    9.3190    0.0183 H         1 <0>         0.1447
     36 H12        -1.0379   10.0943   -0.7984 H         1 <0>         0.0725
     37 H13        -0.7932    9.9634    0.9598 H         1 <0>         0.0731
     38 O3          1.1487   11.6475    0.0212 O.co2     1 <0>        -0.7508
@<TRIPOS>BOND
     1    1   10 ar
     2    1    2 ar
     3    1   25 1
     4    2    3 ar
     5    2   26 1
     6    3    8 ar
     7    3    4 ar
     8    4    5 ar
     9    4   27 1
    10    5    6 ar
    11    5   28 1
    12    6    7 ar
    13    6   29 1
    14    7    8 ar
    15    8    9 ar
    16    9   10 ar
    17    9   11 1
    18   10   30 1
    19   11   12 1
    20   11   31 1
    21   12   13 2
    22   13   14 1
    23   13   32 1
    24   14   19 ar
    25   14   15 ar
    26   15   16 ar
    27   15   33 1
    28   16   17 ar
    29   16   24 1
    30   17   18 ar
    31   17   34 1
    32   18   19 ar
    33   18   35 1
    34   19   20 1
    35   20   21 1
    36   21   22 1
    37   21   36 1
    38   21   37 1
    39   22   23 2
    40   22   38 1
