@<TRIPOS>MOLECULE
ZINC27191322
   24    24     0     0     0
SMALL
USER_CHARGES
(2S)-2-amino-3-(5-nitro-2,4-dioxo-pyrimidin-1-yl)propanoic acid
@<TRIPOS>ATOM
      1 C1         -4.3360    2.3383   -1.1843 C.2       1 <0>         0.2387
      2 C2         -5.4567    3.0914   -1.1911 C.2       1 <0>        -0.2302
      3 C3         -5.3517    4.4804   -1.4441 C.2       1 <0>         0.5273
      4 O1         -6.3489    5.1792   -1.4603 O.3       1 <0>        -0.5263
      5 N1         -4.1374    5.0223   -1.6673 N.2       1 <0>        -0.6556
      6 C4         -3.0358    4.2491   -1.6496 C.2       1 <0>         0.6225
      7 O2         -1.9474    4.7517   -1.8523 O.2       1 <0>        -0.5910
      8 N2         -3.1220    2.9279   -1.4105 N.am      1 <0>        -0.5508
      9 C5         -1.9054    2.1118   -1.3981 C.3       1 <0>         0.0897
     10 C6         -1.3313    2.0738    0.0196 C.3       1 <0>        -0.0198
     11 H1         -2.0277    1.5801    0.7133 H         1 <0>         0.1315
     12 C7         -0.0161    1.3381    0.0094 C.2       1 <0>         0.4630
     13 O3          1.0219    1.9564    0.0028 O.co2     1 <0>        -0.6099
     14 O4          0.0021   -0.0041    0.0020 O.co2     1 <0>        -0.7075
     15 N3         -1.1210    3.4460    0.4998 N.4       1 <0>        -0.6602
     16 N4         -6.7780    2.4720   -0.9430 N.pl3     1 <0>         0.0579
     17 O5         -6.8589    1.2762   -0.7263 O.2       1 <0>        -0.2238
     18 O6         -7.7842    3.1581   -0.9557 O.3       1 <0>        -0.1303
     19 H2         -4.3969    1.2764   -0.9972 H         1 <0>         0.1796
     20 H3         -2.1466    1.0891   -1.7236 H         1 <0>         0.1277
     21 H4         -1.1636    2.5491   -2.0825 H         1 <0>         0.1251
     22 H5         -0.7083    3.4185    1.5191 H         1 <0>         0.4450
     23 H6         -2.0810    3.9830    0.5073 H         1 <0>         0.4349
     24 H7         -0.4163    3.9640   -0.1674 H         1 <0>         0.4626
@<TRIPOS>BOND
     1    1    8 1
     2    1    2 2
     3    1   19 1
     4    2    3 1
     5    2   16 1
     6    3    4 1
     7    3    5 2
     8    5    6 1
     9    6    7 2
    10    6    8 am
    11    8    9 1
    12    9   10 1
    13    9   20 1
    14    9   21 1
    15   10   11 1
    16   10   12 1
    17   10   15 1
    18   12   13 2
    19   12   14 1
    20   15   22 1
    21   15   23 1
    22   15   24 1
    23   16   17 2
    24   16   18 1
@<TRIPOS>MOLECULE
ZINC13766121
   23    23     0     0     0
SMALL
USER_CHARGES
(2S)-2-amino-3-(5-chloro-2,4-dioxo-pyrimidin-1-yl)propanoic acid
@<TRIPOS>ATOM
      1 C1         -0.0205    3.7009    0.0221 C.2       1 <0>         0.1772
      2 C2         -1.1969    3.0377    0.0298 C.2       1 <0>        -0.2070
      3 C3         -1.1894    1.6212    0.0165 C.2       1 <0>         0.5525
      4 O1         -2.2375    1.0010    0.0177 O.2       1 <0>        -0.4731
      5 N1         -0.0111    0.9658    0.0074 N.am      1 <0>        -0.6528
      6 H1          0.0025   -0.0341    0.0061 H         1 <0>         0.4489
      7 C4          1.1469    1.6517   -0.0000 C.2       1 <0>         0.6839
      8 O2          2.2016    1.0468   -0.0137 O.2       1 <0>        -0.5352
      9 N2          1.1542    2.9971    0.0071 N.am      1 <0>        -0.5430
     10 C5          2.4308    3.7159   -0.0007 C.3       1 <0>         0.1059
     11 C6          2.8619    3.9739   -1.4459 C.3       1 <0>        -0.0338
     12 H2          2.1493    4.6465   -1.9231 H         1 <0>         0.1473
     13 C7          4.2313    4.6029   -1.4568 C.2       1 <0>         0.4581
     14 O3          5.2058    3.9249   -1.6817 O.co2     1 <0>        -0.6000
     15 Cl1        -2.6981    3.9094    0.0488 Cl        1 <0>         0.0116
     16 H3         -0.0061    4.7807    0.0274 H         1 <0>         0.1976
     17 H4          2.3154    4.6669    0.5193 H         1 <0>         0.1500
     18 H5          3.1887    3.1159    0.5030 H         1 <0>         0.1316
     19 H6          3.5555    2.0605   -1.7564 H         1 <0>         0.4438
     20 H7          1.9817    2.2916   -2.2419 H         1 <0>         0.4103
     21 O4          4.3685    5.9164   -1.2168 O.co2     1 <0>        -0.6903
     22 N3          2.9096    2.7100   -2.2021 N.4       1 <0>        -0.6245
     23 H8          3.2325    2.9006   -3.1579 H         1 <0>         0.4411
@<TRIPOS>BOND
     1    1    9 1
     2    1    2 2
     3    1   16 1
     4    2    3 1
     5    2   15 1
     6    3    4 2
     7    3    5 am
     8    5    6 1
     9    5    7 am
    10    7    8 2
    11    7    9 am
    12    9   10 1
    13   10   11 1
    14   10   17 1
    15   10   18 1
    16   11   12 1
    17   11   13 1
    18   11   22 1
    19   13   14 2
    20   13   21 1
    21   19   22 1
    22   20   22 1
    23   22   23 1
@<TRIPOS>MOLECULE
ZINC02047688
   23    23     0     0     0
SMALL
USER_CHARGES

@<TRIPOS>ATOM
      1 C1         -0.0165    1.3646    0.0095 C.2       1 <0>         0.1753
      2 C2          1.1476    2.0491    0.0021 C.2       1 <0>        -0.2699
      3 C3          2.3685    1.3317   -0.0134 C.2       1 <0>         0.5567
      4 O1          3.4310    1.9268   -0.0200 O.2       1 <0>        -0.4759
      5 N1          2.3437   -0.0164   -0.0204 N.am      1 <0>        -0.6504
      6 H1          3.1758   -0.5148   -0.0310 H         1 <0>         0.4406
      7 C4          1.1690   -0.6735   -0.0123 C.2       1 <0>         0.6916
      8 O2          1.1624   -1.8894   -0.0183 O.2       1 <0>        -0.5046
      9 N2          0.0021   -0.0041    0.0020 N.am      1 <0>        -0.5458
     10 C5         -1.2606   -0.7469    0.0106 C.3       1 <0>         0.1025
     11 C6         -1.7145   -0.9978   -1.4289 C.3       1 <0>        -0.0669
     12 H2         -0.9985   -1.6517   -1.9268 H         1 <0>         0.1455
     13 C7         -3.0717   -1.6527   -1.4207 C.2       1 <0>         0.4937
     14 O3         -4.0796   -0.9668   -1.4384 O.co2     1 <0>        -0.6570
     15 O4         -3.1619   -2.8683   -1.3964 O.co2     1 <0>        -0.6182
     16 N3         -1.7921    0.2809   -2.1477 N.4       1 <0>        -0.6174
     17 I1          1.1474    4.1441    0.0127 I         1 <0>         0.0553
     18 H3         -0.9574    1.8944    0.0259 H         1 <0>         0.1869
     19 H4         -1.1174   -1.7010    0.5179 H         1 <0>         0.1493
     20 H5         -2.0199   -0.1669    0.5351 H         1 <0>         0.1280
     21 H6         -2.4548    0.8862   -1.6868 H         1 <0>         0.4338
     22 H7         -0.8833    0.7194   -2.1532 H         1 <0>         0.4070
     23 H8         -2.0914    0.1155   -3.0970 H         1 <0>         0.4398
@<TRIPOS>BOND
     1    1    9 1
     2    1    2 2
     3    1   18 1
     4    2    3 1
     5    2   17 1
     6    3    4 2
     7    3    5 am
     8    5    6 1
     9    5    7 am
    10    7    8 2
    11    7    9 am
    12    9   10 1
    13   10   11 1
    14   10   19 1
    15   10   20 1
    16   11   12 1
    17   11   13 1
    18   11   16 1
    19   13   14 2
    20   13   15 1
    21   16   21 1
    22   16   22 1
    23   16   23 1
@<TRIPOS>MOLECULE
ZINC00901774
   23    23     0     0     0
SMALL
USER_CHARGES

@<TRIPOS>ATOM
      1 C1         -0.0171    1.4115    0.0098 C.2       1 <0>        -0.2604
      2 C2          1.1534    2.0845    0.0022 C.2       1 <0>         0.1248
      3 N1          2.3333    1.3916   -0.0127 N.am      1 <0>        -0.5523
      4 C3          2.3379    0.0462   -0.0205 C.2       1 <0>         0.6906
      5 O1          3.3978   -0.5494   -0.0342 O.2       1 <0>        -0.5159
      6 N2          1.1858   -0.6496   -0.0128 N.am      1 <0>        -0.6576
      7 H1          1.2071   -1.6194   -0.0179 H         1 <0>         0.4356
      8 C4          0.0021   -0.0041    0.0020 C.2       1 <0>         0.5431
      9 O2         -1.0408   -0.6329    0.0090 O.2       1 <0>        -0.4988
     10 C5          3.6034    2.1217   -0.0210 C.3       1 <0>         0.1053
     11 C6          4.0593    2.3681    1.4186 C.3       1 <0>        -0.0659
     12 H2          4.2781    1.4143    1.8987 H         1 <0>         0.1432
     13 C7          5.2998    3.2238    1.4132 C.2       1 <0>         0.4928
     14 O3          5.2025    4.4385    1.4520 O.co2     1 <0>        -0.6594
     15 O4          6.4006    2.7015    1.3699 O.co2     1 <0>        -0.6202
     16 N3          2.9932    3.0559    2.1590 N.4       1 <0>        -0.6156
     17 H3         -0.9555    1.9460    0.0261 H         1 <0>         0.1797
     18 H4          1.1584    3.1644    0.0076 H         1 <0>         0.1826
     19 H5          4.3570    1.5339   -0.5452 H         1 <0>         0.1439
     20 H6          3.4701    3.0771   -0.5284 H         1 <0>         0.1247
     21 H7          2.1627    2.4829    2.1626 H         1 <0>         0.4089
     22 H8          3.2939    3.2184    3.1083 H         1 <0>         0.4377
     23 H9          2.7907    3.9388    1.7145 H         1 <0>         0.4332
@<TRIPOS>BOND
     1    1    8 1
     2    1    2 2
     3    1   17 1
     4    2    3 1
     5    2   18 1
     6    3    4 am
     7    3   10 1
     8    4    5 2
     9    4    6 am
    10    6    7 1
    11    6    8 am
    12    8    9 2
    13   10   11 1
    14   10   19 1
    15   10   20 1
    16   11   12 1
    17   11   13 1
    18   11   16 1
    19   13   14 2
    20   13   15 1
    21   16   21 1
    22   16   22 1
    23   16   23 1
@<TRIPOS>MOLECULE
ZINC02530708
   23    23     0     0     0
SMALL
USER_CHARGES

@<TRIPOS>ATOM
      1 C1         -0.0165    1.3666    0.0096 C.2       1 <0>         0.0908
      2 C2          1.1481    2.0506    0.0021 C.2       1 <0>        -0.0364
      3 C3          2.3695    1.3316   -0.0134 C.2       1 <0>         0.5353
      4 O1          3.4324    1.9260   -0.0200 O.2       1 <0>        -0.4743
      5 N1          2.3438   -0.0164   -0.0204 N.am      1 <0>        -0.6467
      6 H1          3.1758   -0.5151   -0.0307 H         1 <0>         0.4439
      7 C4          1.1691   -0.6733   -0.0127 C.2       1 <0>         0.6890
      8 O2          1.1625   -1.8892   -0.0192 O.2       1 <0>        -0.5038
      9 N2          0.0021   -0.0041    0.0020 N.am      1 <0>        -0.5415
     10 C5         -1.2605   -0.7471    0.0106 C.3       1 <0>         0.1096
     11 C6         -1.7144   -0.9980   -1.4289 C.3       1 <0>        -0.0680
     12 H2         -0.9984   -1.6518   -1.9268 H         1 <0>         0.1455
     13 C7         -3.0716   -1.6530   -1.4207 C.2       1 <0>         0.4953
     14 O3         -4.0505   -1.0319   -1.7982 O.co2     1 <0>        -0.6613
     15 O4         -3.1907   -2.8039   -1.0366 O.co2     1 <0>        -0.6192
     16 N3         -1.7921    0.2807   -2.1477 N.4       1 <0>        -0.6150
     17 F1          1.1488    3.4016    0.0089 F         1 <0>        -0.0924
     18 H3         -0.9573    1.8966    0.0259 H         1 <0>         0.1932
     19 H4         -1.1172   -1.7011    0.5179 H         1 <0>         0.1511
     20 H5         -2.0198   -0.1671    0.5351 H         1 <0>         0.1248
     21 H6         -0.8834    0.7193   -2.1532 H         1 <0>         0.4076
     22 H7         -2.0914    0.1153   -3.0970 H         1 <0>         0.4402
     23 H8         -2.4549    0.8860   -1.6868 H         1 <0>         0.4323
@<TRIPOS>BOND
     1    1    9 1
     2    1    2 2
     3    1   18 1
     4    2    3 1
     5    2   17 1
     6    3    4 2
     7    3    5 am
     8    5    6 1
     9    5    7 am
    10    7    8 2
    11    7    9 am
    12    9   10 1
    13   10   11 1
    14   10   19 1
    15   10   20 1
    16   11   12 1
    17   11   13 1
    18   11   16 1
    19   13   14 2
    20   13   15 1
    21   16   21 1
    22   16   22 1
    23   16   23 1
@<TRIPOS>MOLECULE
ZINC02530708
   22    22     0     0     0
SMALL
USER_CHARGES

@<TRIPOS>ATOM
      1 C1         -0.0164    1.3592    0.0095 C.2       1 <0>         0.0414
      2 C2          1.1582    2.0374    0.0019 C.2       1 <0>        -0.0336
      3 C3          2.3654    1.3112   -0.0135 C.2       1 <0>         0.4523
      4 O1          3.5500    1.9626   -0.0208 O.3       1 <0>        -0.6448
      5 N1          2.3340   -0.0126   -0.0203 N.2       1 <0>        -0.6241
      6 C4          1.1732   -0.6669   -0.0127 C.2       1 <0>         0.6385
      7 O2          1.1721   -1.8868   -0.0189 O.2       1 <0>        -0.5725
      8 N2          0.0021   -0.0041    0.0020 N.am      1 <0>        -0.5571
      9 C5         -1.2584   -0.7506    0.0100 C.3       1 <0>         0.1052
     10 C6         -1.7110   -1.0028   -1.4296 C.3       1 <0>        -0.0616
     11 H1         -0.9930   -1.6546   -1.9273 H         1 <0>         0.1416
     12 C7         -3.0663   -1.6615   -1.4220 C.2       1 <0>         0.4986
     13 O3         -4.0468   -1.0432   -1.7998 O.co2     1 <0>        -0.6767
     14 O4         -3.1824   -2.8129   -1.0379 O.co2     1 <0>        -0.6297
     15 N3         -1.7920    0.2758   -2.1484 N.4       1 <0>        -0.6121
     16 F1          1.1704    3.3883    0.0086 F         1 <0>        -0.1283
     17 H2         -0.9553    1.8927    0.0258 H         1 <0>         0.1573
     18 H3         -1.1127   -1.7043    0.5174 H         1 <0>         0.1363
     19 H4         -2.0196   -0.1728    0.5343 H         1 <0>         0.0971
     20 H5         -0.8846    0.7169   -2.1535 H         1 <0>         0.4147
     21 H6         -2.0905    0.1095   -3.0978 H         1 <0>         0.4308
     22 H7         -2.4567    0.8791   -1.6877 H         1 <0>         0.4267
@<TRIPOS>BOND
     1    1    8 1
     2    1    2 2
     3    1   17 1
     4    2    3 1
     5    2   16 1
     6    3    4 1
     7    3    5 2
     8    5    6 1
     9    6    7 2
    10    6    8 am
    11    8    9 1
    12    9   10 1
    13    9   18 1
    14    9   19 1
    15   10   11 1
    16   10   12 1
    17   10   15 1
    18   12   13 2
    19   12   14 1
    20   15   20 1
    21   15   21 1
    22   15   22 1
@<TRIPOS>MOLECULE
ZINC18118278
   22    23     0     0     0
SMALL
USER_CHARGES

@<TRIPOS>ATOM
      1 C1          0.0496    1.1063    0.6344 C.ar      1 <0>        -0.0815
      2 C2          0.8293    1.9861   -0.1610 C.ar      1 <0>         0.4075
      3 N1          0.4596    3.2355   -0.3488 N.am      1 <0>        -0.4279
      4 C3          1.2172    4.0533   -1.1085 C.2       1 <0>         0.4679
      5 O1          0.8827    5.2069   -1.2858 O.2       1 <0>        -0.1860
      6 C4          2.4726    3.5290   -1.7307 C.2       1 <0>         0.4680
      7 O2          3.1640    4.2540   -2.4164 O.2       1 <0>        -0.1859
      8 N2          2.8311    2.2450   -1.5240 N.am      1 <0>        -0.4280
      9 C5          2.0762    1.4654   -0.7789 C.ar      1 <0>         0.4074
     10 C6          2.4324    0.1113   -0.5464 C.ar      1 <0>        -0.0816
     11 C7          1.6375   -0.6655    0.2237 C.ar      1 <0>         0.1372
     12 C8          0.4549   -0.1716    0.8097 C.ar      1 <0>         0.1371
     13 N3         -0.3677   -1.0785    1.6416 N.pl3     1 <0>        -0.0219
     14 O3         -1.5741   -1.0221    1.5858 O.2       1 <0>        -0.0173
     15 O4          0.1668   -1.8755    2.3769 O.3       1 <0>        -0.0340
     16 N4          2.0208   -2.0759    0.4581 N.pl3     1 <0>        -0.0219
     17 O5          3.1825   -2.3672    0.6234 O.2       1 <0>        -0.0173
     18 O6          1.1722   -2.9366    0.4842 O.3       1 <0>        -0.0339
     19 H1         -0.8595    1.4568    1.1003 H         1 <0>         0.2615
     20 H2          3.3326   -0.2963   -0.9822 H         1 <0>         0.2615
     21 H3         -0.3561    3.5673    0.0580 H         1 <0>         0.4946
     22 H4          3.6434    1.8969   -1.9239 H         1 <0>         0.4946
@<TRIPOS>BOND
     1    1   12 ar
     2    1    2 ar
     3    1   19 1
     4    2    9 ar
     5    2    3 2
     6    3    4 am
     7    3   21 1
     8    4    5 2
     9    4    6 1
    10    6    7 2
    11    6    8 am
    12    8    9 2
    13    8   22 1
    14    9   10 ar
    15   10   11 ar
    16   10   20 1
    17   11   12 ar
    18   11   16 1
    19   12   13 1
    20   13   14 2
    21   13   15 1
    22   16   17 2
    23   16   18 1
@<TRIPOS>MOLECULE
ZINC18118278
   21    22     0     0     0
SMALL
USER_CHARGES

@<TRIPOS>ATOM
      1 C1          0.0417    1.2522    0.5309 C.ar      1 <0>        -0.0473
      2 C2          0.8780    2.0146   -0.2789 C.ar      1 <0>         0.0748
      3 C3          2.0479    1.4409   -0.8068 C.ar      1 <0>         0.2260
      4 C4          2.3544    0.1053   -0.5080 C.ar      1 <0>        -0.0622
      5 C5          1.5202   -0.6244    0.2883 C.ar      1 <0>         0.0219
      6 C6          0.3650   -0.0580    0.8097 C.ar      1 <0>        -0.0602
      7 N1         -0.5259   -0.8673    1.6712 N.pl3     1 <0>         0.0426
      8 O1         -1.7257   -0.7484    1.5809 O.2       1 <0>        -0.1529
      9 O2         -0.0539   -1.6473    2.4653 O.3       1 <0>        -0.1493
     10 N2          1.8502   -2.0336    0.5987 N.pl3     1 <0>         0.0304
     11 O3          2.9984   -2.3560    0.7971 O.2       1 <0>        -0.1355
     12 O4          0.9715   -2.8622    0.6539 O.3       1 <0>        -0.1417
     13 N3          2.8727    2.1624   -1.5937 N.2       1 <0>        -0.5947
     14 C7          2.6068    3.4079   -1.8848 C.2       1 <0>         0.4324
     15 O5          3.4503    4.1124   -2.6771 O.3       1 <0>        -0.5802
     16 C8          1.3904    4.0475   -1.3530 C.2       1 <0>         0.4795
     17 O6          1.1361    5.2074   -1.6209 O.2       1 <0>        -0.4979
     18 N4          0.5617    3.3300   -0.5634 N.am      1 <0>        -0.6270
     19 H1         -0.2442    3.7314   -0.2024 H         1 <0>         0.4104
     20 H2         -0.8563    1.6877    0.9435 H         1 <0>         0.1592
     21 H3          3.2502   -0.3457   -0.9085 H         1 <0>         0.1717
@<TRIPOS>BOND
     1    1    6 ar
     2    1    2 ar
     3    1   20 1
     4    2   18 1
     5    2    3 ar
     6    3    4 ar
     7    3   13 1
     8    4    5 ar
     9    4   21 1
    10    5    6 ar
    11    5   10 1
    12    6    7 1
    13    7    8 2
    14    7    9 1
    15   10   11 2
    16   10   12 1
    17   13   14 2
    18   14   15 1
    19   14   16 1
    20   16   17 2
    21   16   18 am
    22   18   19 1
@<TRIPOS>MOLECULE
ZINC18118278
   22    23     0     0     0
SMALL
USER_CHARGES

@<TRIPOS>ATOM
      1 C1          0.0382    1.2610    0.5152 C.ar      1 <0>        -0.0552
      2 C2          0.8758    2.0183   -0.2964 C.ar      1 <0>         0.1719
      3 C3          2.0393    1.4471   -0.8145 C.ar      1 <0>         0.1720
      4 C4          2.3510    0.1254   -0.5146 C.ar      1 <0>        -0.0553
      5 C5          1.5125   -0.6159    0.2921 C.ar      1 <0>         0.0166
      6 C6          0.3581   -0.0491    0.8060 C.ar      1 <0>         0.0165
      7 N1         -0.5357   -0.8520    1.6707 N.pl3     1 <0>         0.0206
      8 O1         -1.7351   -0.7324    1.5766 O.2       1 <0>        -0.1120
      9 O2         -0.0664   -1.6272    2.4709 O.3       1 <0>        -0.1151
     10 N2          1.8476   -2.0224    0.6091 N.pl3     1 <0>         0.0206
     11 O3          2.9970   -2.3396    0.8090 O.2       1 <0>        -0.1120
     12 O4          0.9720   -2.8539    0.6680 O.3       1 <0>        -0.1151
     13 N3          2.8903    2.1887   -1.6291 N.am      1 <0>        -0.6303
     14 C7          2.5958    3.4709   -1.9250 C.2       1 <0>         0.5137
     15 C8          1.3528    4.0814   -1.3711 C.2       1 <0>         0.5137
     16 N4          0.5461    3.3396   -0.5854 N.am      1 <0>        -0.6303
     17 O5          1.0696    5.2348   -1.6257 O.2       1 <0>        -0.4318
     18 O6          3.3354    4.1221   -2.6351 O.2       1 <0>        -0.4318
     19 H1         -0.8610    1.7001    0.9216 H         1 <0>         0.1865
     20 H2          3.2498   -0.3211   -0.9137 H         1 <0>         0.1866
     21 H3          3.6965    1.7826   -1.9842 H         1 <0>         0.4351
     22 H4         -0.2650    3.7271   -0.2210 H         1 <0>         0.4351
@<TRIPOS>BOND
     1    1    6 ar
     2    1    2 ar
     3    1   19 1
     4    2   16 1
     5    2    3 ar
     6    3    4 ar
     7    3   13 1
     8    4    5 ar
     9    4   20 1
    10    5    6 ar
    11    5   10 1
    12    6    7 1
    13    7    8 2
    14    7    9 1
    15   10   11 2
    16   10   12 1
    17   13   14 am
    18   13   21 1
    19   14   15 1
    20   14   18 2
    21   15   16 am
    22   15   17 2
    23   16   22 1
@<TRIPOS>MOLECULE
ZINC14951272
   26    28     0     0     0
SMALL
USER_CHARGES

@<TRIPOS>ATOM
      1 C1         -0.0425    0.5463   -0.5268 C.2       1 <0>        -0.0251
      2 C2          1.2091    0.3392   -0.9779 C.2       1 <0>        -0.0516
      3 N1          2.0613    0.7198    0.0267 N.pl3     1 <0>        -0.4127
      4 C3          1.2915    1.1481    1.0610 C.2       1 <0>         0.2332
      5 N2          0.0370    1.0395    0.7180 N.2       1 <0>        -0.4915
      6 C4          3.4606    0.6754   -0.0071 C.ar      1 <0>         0.1187
      7 C5          4.1483    1.3667   -0.9903 C.ar      1 <0>        -0.1065
      8 C6          5.5365    1.3226   -1.0230 C.ar      1 <0>         0.0977
      9 C7          6.2341    0.5752   -0.0560 C.ar      1 <0>         0.1863
     10 C8          5.5167   -0.1173    0.9310 C.ar      1 <0>        -0.0500
     11 C9          4.1546   -0.0598    0.9528 C.ar      1 <0>        -0.0329
     12 N3          3.4061   -0.7891    2.0011 N.pl3     1 <0>         0.0380
     13 O1          4.0014   -1.3281    2.9048 O.2       1 <0>        -0.1603
     14 O2          2.1993   -0.8457    1.9536 O.3       1 <0>        -0.1597
     15 N4          7.5814    0.5210   -0.0713 N.2       1 <0>        -0.5990
     16 C10         8.2711    1.1575   -0.9804 C.2       1 <0>         0.4239
     17 O3          9.6246    1.0871   -0.9750 O.3       1 <0>        -0.6032
     18 C11         7.5808    1.9508   -2.0111 C.2       1 <0>         0.4780
     19 O4          8.2180    2.5461   -2.8607 O.2       1 <0>        -0.5055
     20 N5          6.2312    2.0102   -2.0011 N.am      1 <0>        -0.6289
     21 H1          5.7564    2.5270   -2.6707 H         1 <0>         0.4062
     22 H2         -0.9531    0.3530   -1.0745 H         1 <0>         0.1689
     23 H3          1.4883   -0.0519   -1.9451 H         1 <0>         0.1709
     24 H4          1.6565    1.5167    2.0083 H         1 <0>         0.1937
     25 H5          3.6070    1.9381   -1.7299 H         1 <0>         0.1453
     26 H6          6.0442   -0.6933    1.6769 H         1 <0>         0.1660
@<TRIPOS>BOND
     1    1    5 1
     2    1    2 2
     3    1   22 1
     4    2    3 1
     5    2   23 1
     6    3    4 1
     7    3    6 1
     8    4    5 2
     9    4   24 1
    10    6   11 ar
    11    6    7 ar
    12    7    8 ar
    13    7   25 1
    14    8   20 1
    15    8    9 ar
    16    9   10 ar
    17    9   15 1
    18   10   11 ar
    19   10   26 1
    20   11   12 1
    21   12   13 2
    22   12   14 1
    23   15   16 2
    24   16   17 1
    25   16   18 1
    26   18   19 2
    27   18   20 am
    28   20   21 1
@<TRIPOS>MOLECULE
ZINC14951272
   26    28     0     0     0
SMALL
USER_CHARGES

@<TRIPOS>ATOM
      1 C1          0.0021    1.0261    0.6815 C.2       1 <0>        -0.0328
      2 C2          1.2851    1.1518    1.0710 C.2       1 <0>        -0.0035
      3 N1          2.0612    0.7200    0.0269 N.pl3     1 <0>        -0.4186
      4 C3          1.2169    0.3440   -0.9683 C.2       1 <0>         0.1943
      5 N2         -0.0103    0.5316   -0.5652 N.2       1 <0>        -0.4866
      6 C4          3.4631    0.6752   -0.0075 C.ar      1 <0>         0.1872
      7 C5          4.1483    1.3642   -0.9882 C.ar      1 <0>        -0.1214
      8 C6          5.5486    1.3201   -1.0226 C.ar      1 <0>         0.2401
      9 C7          6.2409    0.5716   -0.0537 C.ar      1 <0>         0.0483
     10 C8          5.5325   -0.1160    0.9268 C.ar      1 <0>        -0.0431
     11 C9          4.1569   -0.0597    0.9520 C.ar      1 <0>        -0.1014
     12 N3          3.4100   -0.7888    2.0017 N.pl3     1 <0>         0.0519
     13 O1          4.0069   -1.3273    2.9047 O.2       1 <0>        -0.1911
     14 O2          2.2033   -0.8458    1.9559 O.3       1 <0>        -0.1636
     15 N4          7.6231    0.5201   -0.0760 N.am      1 <0>        -0.6298
     16 C10         8.2893    1.1961   -1.0371 C.2       1 <0>         0.4781
     17 C11         7.5249    1.9678   -2.0326 C.2       1 <0>         0.4315
     18 N5          6.2198    1.9933   -1.9802 N.2       1 <0>        -0.6005
     19 O3          8.1765    2.6523   -3.0035 O.3       1 <0>        -0.5880
     20 O4          9.5056    1.1685   -1.0799 O.2       1 <0>        -0.5063
     21 H1         -0.8666    1.2759    1.2725 H         1 <0>         0.1696
     22 H2          1.6353    1.5219    2.0233 H         1 <0>         0.1635
     23 H3          1.5115   -0.0444   -1.9320 H         1 <0>         0.2051
     24 H4          3.6064    1.9355   -1.7274 H         1 <0>         0.1574
     25 H5          6.0625   -0.6912    1.6715 H         1 <0>         0.1524
     26 H6          8.1069    0.0062    0.5893 H         1 <0>         0.4074
@<TRIPOS>BOND
     1    1    5 1
     2    1    2 2
     3    1   21 1
     4    2    3 1
     5    2   22 1
     6    3    4 1
     7    3    6 1
     8    4    5 2
     9    4   23 1
    10    6   11 ar
    11    6    7 ar
    12    7    8 ar
    13    7   24 1
    14    8   18 1
    15    8    9 ar
    16    9   10 ar
    17    9   15 1
    18   10   11 ar
    19   10   25 1
    20   11   12 1
    21   12   13 2
    22   12   14 1
    23   15   16 am
    24   15   26 1
    25   16   17 1
    26   16   20 2
    27   17   18 2
    28   17   19 1
@<TRIPOS>MOLECULE
ZINC14951272
   27    29     0     0     0
SMALL
USER_CHARGES

@<TRIPOS>ATOM
      1 C1         -0.0420    0.5400   -0.5314 C.2       1 <0>        -0.0063
      2 C2          1.2106    0.3345   -0.9812 C.2       1 <0>        -0.0534
      3 N1          2.0611    0.7160    0.0240 N.pl3     1 <0>        -0.4382
      4 C3          1.2902    1.1432    1.0573 C.2       1 <0>         0.2377
      5 N2          0.0358    1.0332    0.7134 N.2       1 <0>        -0.4758
      6 C4          3.4628    0.6732   -0.0086 C.ar      1 <0>         0.2086
      7 C5          4.1533    1.3638   -0.9916 C.ar      1 <0>        -0.1178
      8 C6          5.5416    1.3220   -1.0247 C.ar      1 <0>         0.1918
      9 C7          6.2365    0.5821   -0.0651 C.ar      1 <0>         0.1277
     10 C8          5.5350   -0.1082    0.9174 C.ar      1 <0>        -0.0389
     11 C9          4.1572   -0.0574    0.9489 C.ar      1 <0>        -0.0426
     12 N3          3.4154   -0.7886    2.0007 N.pl3     1 <0>         0.0306
     13 O1          4.0164   -1.3259    2.9017 O.2       1 <0>        -0.1407
     14 O2          2.2087   -0.8485    1.9587 O.3       1 <0>        -0.1333
     15 N4          7.6280    0.5288   -0.0836 N.am      1 <0>        -0.6314
     16 C10         8.3177    1.1945   -1.0320 C.2       1 <0>         0.5123
     17 C11         7.5754    1.9847   -2.0560 C.2       1 <0>         0.5126
     18 N5          6.2281    2.0184   -2.0154 N.am      1 <0>        -0.6326
     19 O3          8.1785    2.5911   -2.9184 O.2       1 <0>        -0.4391
     20 O4          9.5315    1.1512   -1.0518 O.2       1 <0>        -0.4434
     21 H1         -0.9518    0.3457   -1.0799 H         1 <0>         0.1777
     22 H2          1.4912   -0.0559   -1.9483 H         1 <0>         0.1790
     23 H3          1.6541    1.5121    2.0049 H         1 <0>         0.2004
     24 H4          3.6123    1.9341   -1.7322 H         1 <0>         0.1717
     25 H5          6.0704   -0.6814    1.6599 H         1 <0>         0.1797
     26 H6          5.7364    2.5291   -2.6775 H         1 <0>         0.4318
     27 H7          8.1018    0.0124    0.5870 H         1 <0>         0.4319
@<TRIPOS>BOND
     1    1    5 1
     2    1    2 2
     3    1   21 1
     4    2    3 1
     5    2   22 1
     6    3    4 1
     7    3    6 1
     8    4    5 2
     9    4   23 1
    10    6   11 ar
    11    6    7 ar
    12    7    8 ar
    13    7   24 1
    14    8   18 1
    15    8    9 ar
    16    9   10 ar
    17    9   15 1
    18   10   11 ar
    19   10   25 1
    20   11   12 1
    21   12   13 2
    22   12   14 1
    23   15   16 am
    24   15   27 1
    25   16   17 1
    26   16   20 2
    27   17   18 am
    28   17   19 2
    29   18   26 1
@<TRIPOS>MOLECULE
ZINC14951272
   26    28     0     0     0
SMALL
USER_CHARGES
6-imidazol-1-yl-7-nitro-quinoxaline-2,3-dione
@<TRIPOS>ATOM
      1 C1         -0.9692    2.3670   -0.5011 C.2       1 <0>         0.0203
      2 C2          0.1710    1.8137   -0.9544 C.2       1 <0>         0.0322
      3 N1          1.1010    1.9441    0.0456 N.pl3     1 <0>        -0.3920
      4 C3          0.4856    2.5787    1.0814 C.cat     1 <0>         0.3472
      5 C4          2.4211    1.5101    0.0089 C.ar      1 <0>         0.1649
      6 C5          3.2440    1.9712   -0.9737 C.ar      1 <0>        -0.0242
      7 C6          4.5864    1.5528   -1.0315 C.ar      1 <0>         0.2441
      8 N2          5.3912    2.0023   -1.9805 N.2       1 <0>        -0.4313
      9 C7          6.6689    1.5908   -2.0264 C.2       1 <0>         0.4244
     10 O1          7.4122    2.0008   -2.8957 O.2       1 <0>        -0.2992
     11 C8          7.1712    0.6250   -1.0008 C.2       1 <0>         0.4198
     12 O2          8.3236    0.2452   -1.0318 O.2       1 <0>        -0.2904
     13 N3          6.3332    0.1780   -0.0399 N.2       1 <0>        -0.4107
     14 C9          5.0867    0.5932   -0.0128 C.ar      1 <0>         0.2261
     15 C10         4.1626    0.1193    1.0230 C.ar      1 <0>         0.0707
     16 C11         2.8885    0.5661    1.0223 C.ar      1 <0>        -0.0270
     17 N4          1.9499    0.0920    2.0641 N.pl3     1 <0>         0.0210
     18 O3          2.3570   -0.5958    2.9831 O.2       1 <0>        -0.0756
     19 O4          0.7705    0.3898    2.0022 O.3       1 <0>        -0.1704
     20 H1         -1.9008    2.4314   -1.0437 H         1 <0>         0.2316
     21 H2          0.3244    1.3552   -1.9202 H         1 <0>         0.2287
     22 H3          0.9431    2.8349    2.0255 H         1 <0>         0.2572
     23 H4          2.8653    2.6649   -1.7098 H         1 <0>         0.1988
     24 H5          4.4972   -0.5779    1.7768 H         1 <0>         0.2143
     25 N5         -0.7504    2.8198    0.7433 N.pl3     1 <0>        -0.4696
     26 H6         -1.4480    3.2838    1.3368 H         1 <0>         0.4890
@<TRIPOS>BOND
     1    1    2 2
     2    1   20 1
     3    1   25 1
     4    2    3 1
     5    2   21 1
     6    3    4 1
     7    3    5 1
     8    4   22 1
     9    4   25 2
    10    5   16 ar
    11    5    6 ar
    12    6    7 ar
    13    6   23 1
    14    7   14 ar
    15    7    8 2
    16    8    9 1
    17    9   10 2
    18    9   11 1
    19   11   12 2
    20   11   13 1
    21   13   14 2
    22   14   15 ar
    23   15   16 ar
    24   15   24 1
    25   16   17 1
    26   17   18 2
    27   17   19 1
    28   25   26 1
@<TRIPOS>MOLECULE
ZINC19850499
   22    22     0     0     0
SMALL
USER_CHARGES

@<TRIPOS>ATOM
      1 C1         -0.0127    1.0858    0.0080 C.3       1 <0>        -0.0876
      2 C2         -0.7416    1.5850   -1.2129 C.2       1 <0>         0.0641
      3 C3         -2.0612    1.8307   -1.2988 C.2       1 <0>        -0.3438
      4 C4         -2.3386    2.2827   -2.6074 C.2       1 <0>         0.3550
      5 N1         -1.2135    2.3025   -3.2730 N.2       1 <0>        -0.4446
      6 O1         -0.1856    1.8672   -2.4015 O.3       1 <0>        -0.1265
      7 O2         -3.5577    2.6341   -3.0892 O.3       1 <0>        -0.7249
      8 C5         -3.0681    1.6536   -0.1917 C.3       1 <0>        -0.0323
      9 C6         -3.1832    2.9541    0.6060 C.3       1 <0>        -0.0363
     10 H1         -2.1961    3.2519    0.9598 H         1 <0>         0.1199
     11 C7         -4.0964    2.7408    1.7856 C.2       1 <0>         0.4926
     12 O3         -3.6379    2.3667    2.8516 O.co2     1 <0>        -0.6522
     13 O4         -5.2936    2.9424    1.6740 O.co2     1 <0>        -0.6738
     14 N2         -3.7337    4.0095   -0.2549 N.4       1 <0>        -0.6054
     15 H2          0.0021   -0.0041    0.0020 H         1 <0>         0.0828
     16 H3          1.0099    1.4631    0.0003 H         1 <0>         0.0752
     17 H4         -0.5229    1.4373    0.9048 H         1 <0>         0.0860
     18 H5         -4.0386    1.4030   -0.6199 H         1 <0>         0.0863
     19 H6         -2.7440    0.8496    0.4691 H         1 <0>         0.0924
     20 H7         -3.8095    4.8672    0.2711 H         1 <0>         0.4148
     21 H8         -3.1222    4.1523   -1.0447 H         1 <0>         0.4233
     22 H9         -4.6474    3.7339   -0.5824 H         1 <0>         0.4348
@<TRIPOS>BOND
     1    1   15 1
     2    1   16 1
     3    1   17 1
     4    1    2 1
     5    2    3 2
     6    2    6 1
     7    3    4 1
     8    3    8 1
     9    4    5 2
    10    4    7 1
    11    5    6 1
    12    8    9 1
    13    8   18 1
    14    8   19 1
    15    9   10 1
    16    9   11 1
    17    9   14 1
    18   11   12 2
    19   11   13 1
    20   14   20 1
    21   14   21 1
    22   14   22 1
@<TRIPOS>MOLECULE
ZINC19850502
   22    22     0     0     0
SMALL
USER_CHARGES

@<TRIPOS>ATOM
      1 C1         -0.0127    1.0858    0.0080 C.3       1 <0>        -0.0839
      2 C2         -0.7416    1.5850   -1.2129 C.2       1 <0>         0.0174
      3 C3         -2.0612    1.8307   -1.2988 C.2       1 <0>        -0.3158
      4 C4         -2.3386    2.2827   -2.6074 C.2       1 <0>         0.3643
      5 N1         -1.2135    2.3025   -3.2730 N.2       1 <0>        -0.4463
      6 O1         -0.1856    1.8672   -2.4015 O.3       1 <0>        -0.1249
      7 O2         -3.5577    2.6341   -3.0892 O.3       1 <0>        -0.7045
      8 C5         -3.0681    1.6536   -0.1917 C.3       1 <0>        -0.0320
      9 C6         -3.1832    2.9541    0.6060 C.3       1 <0>        -0.0405
     10 H1         -3.4207    3.7753   -0.0703 H         1 <0>         0.1345
     11 C7         -4.2765    2.8178    1.6341 C.2       1 <0>         0.4959
     12 O3         -3.9950    2.7558    2.8188 O.co2     1 <0>        -0.6885
     13 O4         -5.4426    2.7696    1.2813 O.co2     1 <0>        -0.6350
     14 N2         -1.9077    3.2290    1.2810 N.4       1 <0>        -0.6115
     15 H2          0.0021   -0.0041    0.0020 H         1 <0>         0.0906
     16 H3          1.0099    1.4631    0.0003 H         1 <0>         0.0828
     17 H4         -0.5229    1.4373    0.9048 H         1 <0>         0.0560
     18 H5         -4.0386    1.4030   -0.6199 H         1 <0>         0.1129
     19 H6         -2.7440    0.8496    0.4691 H         1 <0>         0.0690
     20 H7         -1.1757    3.3203    0.5926 H         1 <0>         0.4130
     21 H8         -1.9836    4.0867    1.8070 H         1 <0>         0.4241
     22 H9         -1.6879    2.4688    1.9070 H         1 <0>         0.4225
@<TRIPOS>BOND
     1    1   15 1
     2    1   16 1
     3    1   17 1
     4    1    2 1
     5    2    3 2
     6    2    6 1
     7    3    4 1
     8    3    8 1
     9    4    5 2
    10    4    7 1
    11    5    6 1
    12    8    9 1
    13    8   18 1
    14    8   19 1
    15    9   10 1
    16    9   11 1
    17    9   14 1
    18   11   12 2
    19   11   13 1
    20   14   20 1
    21   14   21 1
    22   14   22 1
@<TRIPOS>MOLECULE
ZINC13491413
   40    42     0     0     0
SMALL
USER_CHARGES

@<TRIPOS>ATOM
      1 C1         -0.0187    1.5261    0.0104 C.3       1 <0>        -0.1238
      2 C2          1.4178    2.0522   -0.0005 C.3       1 <0>        -0.1090
      3 C3          2.1605    1.5450    1.2347 C.3       1 <0>        -0.0988
      4 H1          3.1856    1.9153    1.2176 H         1 <0>         0.0868
      5 C4          1.4628    2.0425    2.5014 C.3       1 <0>        -0.0134
      6 N1          2.1937    1.5679    3.6830 N.4       1 <0>        -0.4785
      7 C5          2.1694    0.1013    3.7306 C.3       1 <0>        -0.0519
      8 H2          1.1357   -0.2442    3.7341 H         1 <0>         0.1318
      9 C6          2.8921   -0.4673    2.5073 C.3       1 <0>        -0.1138
     10 C7          2.1737    0.0143    1.2417 C.3       1 <0>        -0.0947
     11 H3          2.7053   -0.3518    0.3633 H         1 <0>         0.0946
     12 C8          0.7355   -0.5089    1.2457 C.3       1 <0>        -0.1170
     13 C9          0.0021   -0.0041    0.0020 C.3       1 <0>        -0.0847
     14 H4          0.5174   -0.3558   -0.8918 H         1 <0>         0.0750
     15 C10        -1.4332   -0.5339    0.0057 C.3       1 <0>        -0.1042
     16 C11        -2.1288   -0.1316   -1.2963 C.3       1 <0>         0.0018
     17 C12        -3.5425   -0.6535   -1.2927 C.2       1 <0>         0.0495
     18 N2         -4.6155   -0.0251   -0.8348 N.2       1 <0>        -0.3915
     19 N3         -5.6282   -0.8032   -1.0123 N.2       1 <0>        -0.2004
     20 N4         -5.2266   -1.8948   -1.5645 N.2       1 <0>        -0.1995
     21 N5         -3.9528   -1.8267   -1.7520 N.2       1 <0>        -0.3897
     22 C13         2.8601   -0.3710    4.9839 C.2       1 <0>         0.4920
     23 O1          3.3287    0.4400    5.7643 O.co2     1 <0>        -0.6807
     24 O2          2.9504   -1.5643    5.2174 O.co2     1 <0>        -0.6381
     25 H5         -0.5282    1.8780    0.9075 H         1 <0>         0.0620
     26 H6         -0.5452    1.8876   -0.8729 H         1 <0>         0.0774
     27 H7          1.9259    1.7013   -0.8987 H         1 <0>         0.0781
     28 H8          1.4050    3.1421    0.0060 H         1 <0>         0.0687
     29 H9          1.4423    3.1323    2.5006 H         1 <0>         0.1224
     30 H10         0.4423    1.6603    2.5278 H         1 <0>         0.1295
     31 H11         3.1501    1.8859    3.6355 H         1 <0>         0.4200
     32 H12         3.9255   -0.1208    2.5008 H         1 <0>         0.0773
     33 H13         2.8717   -1.5564    2.5456 H         1 <0>         0.1095
     34 H14         0.7457   -1.5988    1.2436 H         1 <0>         0.0759
     35 H15         0.2223   -0.1530    2.1391 H         1 <0>         0.0596
     36 H16        -1.4192   -1.6206    0.0893 H         1 <0>         0.0633
     37 H17        -1.9744   -0.1114    0.8523 H         1 <0>         0.0593
     38 H18        -2.1429    0.9551   -1.3799 H         1 <0>         0.0649
     39 H19        -1.5876   -0.5541   -2.1429 H         1 <0>         0.0636
     40 H20         1.7601    1.9373    4.5159 H         1 <0>         0.4265
@<TRIPOS>BOND
     1    1   13 1
     2    1    2 1
     3    1   25 1
     4    1   26 1
     5    2    3 1
     6    2   27 1
     7    2   28 1
     8    3    4 1
     9    3   10 1
    10    3    5 1
    11    5    6 1
    12    5   29 1
    13    5   30 1
    14    6    7 1
    15    6   31 1
    16    6   40 1
    17    7    8 1
    18    7    9 1
    19    7   22 1
    20    9   10 1
    21    9   32 1
    22    9   33 1
    23   10   11 1
    24   10   12 1
    25   12   13 1
    26   12   34 1
    27   12   35 1
    28   13   14 1
    29   13   15 1
    30   15   16 1
    31   15   36 1
    32   15   37 1
    33   16   38 1
    34   16   39 1
    35   16   17 1
    36   17   18 2
    37   17   21 1
    38   18   19 1
    39   19   20 2
    40   20   21 1
    41   22   23 2
    42   22   24 1
@<TRIPOS>MOLECULE
ZINC13491413
   41    43     0     0     0
SMALL
USER_CHARGES
(3S,4aR,6R,8aR)-6-[2-(1H-tetrazol-5-yl)ethyl]-1,2,3,4,4a,5,6,7,8,8a-decahydroisoquinoline-3-carboxylic acid
@<TRIPOS>ATOM
      1 C1         -0.0203    1.5171    2.5098 C.3       1 <0>        -0.1259
      2 C2         -0.7419    2.0267    1.2607 C.3       1 <0>        -0.1116
      3 C3         -0.0187    1.5266    0.0104 C.3       1 <0>        -0.1025
      4 H1         -0.5502    1.8924   -0.8805 H         1 <0>         0.0911
      5 C4          1.4181    2.0517   -0.0005 C.3       1 <0>        -0.0040
      6 N1          2.1082    1.5636   -1.2016 N.4       1 <0>        -0.5180
      7 C5          2.1773    0.0970   -1.2175 C.3       1 <0>        -0.0118
      8 H2          2.7177   -0.2199   -0.3133 H         1 <0>         0.1294
      9 C6          0.7613   -0.4835   -1.2399 C.3       1 <0>        -0.1191
     10 C7          0.0021   -0.0041    0.0020 C.3       1 <0>        -0.0922
     11 H3         -1.0283   -0.3890   -0.0117 H         1 <0>         0.0971
     12 C8          0.7199   -0.5114    1.2548 C.3       1 <0>        -0.1198
     13 C9         -0.0118   -0.0130    2.5022 C.3       1 <0>        -0.0858
     14 H4         -1.0466   -0.3861    2.4943 H         1 <0>         0.0813
     15 C10         0.7049   -0.5255    3.7530 C.3       1 <0>        -0.1119
     16 C11        -0.0955   -0.1325    4.9964 C.3       1 <0>        -0.0254
     17 C12         0.6105   -0.6373    6.2284 C.2       1 <0>         0.1656
     18 N2          0.9930    0.0939    7.2918 N.2       1 <0>        -0.3188
     19 H5          1.9490   -0.3336    9.0799 H         1 <0>         0.5131
     20 N3          1.5595   -0.7133    8.1238 N.pl3     1 <0>        -0.2272
     21 N4          1.5524   -1.8989    7.6221 N.2       1 <0>        -0.0570
     22 N5          0.9713   -1.8735    6.4725 N.2       1 <0>        -0.2771
     23 C13         2.9251   -0.3568   -2.4446 C.2       1 <0>         0.4555
     24 O1          3.0387    0.3849   -3.3916 O.co2     1 <0>        -0.6198
     25 O2          3.4651   -1.5850   -2.4855 O.co2     1 <0>        -0.7054
     26 H6         -0.5429    1.8764    3.4086 H         1 <0>         0.0750
     27 H7          1.0147    1.8895    2.5141 H         1 <0>         0.0630
     28 H8         -1.7769    1.6543    1.2576 H         1 <0>         0.0803
     29 H9         -0.7480    3.1267    1.2639 H         1 <0>         0.0720
     30 H10         1.4064    3.1516   -0.0056 H         1 <0>         0.1231
     31 H11         1.9458    1.6948    0.8963 H         1 <0>         0.1238
     32 H12         1.5653    1.8983   -2.0979 H         1 <0>         0.4457
     33 H13         0.2397   -0.1429   -2.1465 H         1 <0>         0.0832
     34 H14         0.8153   -1.5822   -1.2390 H         1 <0>         0.1100
     35 H15         0.7297   -1.6114    1.2517 H         1 <0>         0.0797
     36 H16         1.7537   -0.1355    1.2626 H         1 <0>         0.0616
     37 H17         0.7909   -1.6210    3.7033 H         1 <0>         0.0803
     38 H18         1.7096   -0.0810    3.8080 H         1 <0>         0.0643
     39 H19        -0.1815    0.9630    5.0460 H         1 <0>         0.0949
     40 H20        -1.1002   -0.5770    4.9414 H         1 <0>         0.0963
     41 H21         3.1330    1.9627   -1.2233 H         1 <0>         0.4470
@<TRIPOS>BOND
     1    1   13 1
     2    1    2 1
     3    1   26 1
     4    1   27 1
     5    2    3 1
     6    2   28 1
     7    2   29 1
     8    3    4 1
     9    3   10 1
    10    3    5 1
    11    5    6 1
    12    5   30 1
    13    5   31 1
    14    6    7 1
    15    6   32 1
    16    6   41 1
    17    7    8 1
    18    7    9 1
    19    7   23 1
    20    9   10 1
    21    9   33 1
    22    9   34 1
    23   10   11 1
    24   10   12 1
    25   12   13 1
    26   12   35 1
    27   12   36 1
    28   13   14 1
    29   13   15 1
    30   15   16 1
    31   15   37 1
    32   15   38 1
    33   16   17 1
    34   16   39 1
    35   16   40 1
    36   17   18 2
    37   17   22 1
    38   18   20 1
    39   19   20 1
    40   20   21 1
    41   21   22 2
    42   23   24 2
    43   23   25 1
@<TRIPOS>MOLECULE
ZINC13492674
   75    75     0     0     0
SMALL
USER_CHARGES
N-[(1S)-2-[7-(4-aminobutylamino)heptylamino]-1-[(4-hydroxyphenyl)methyl]-2-oxo-ethyl]butanamide
@<TRIPOS>ATOM
      1 C1         -2.2797    5.3896    3.9422 C.3       1 <0>        -0.1549
      2 C2         -1.5636    4.8962    2.6834 C.3       1 <0>        -0.1073
      3 C3         -1.5428    3.3664    2.6749 C.3       1 <0>        -0.1411
      4 C4         -0.8375    2.8804    1.4351 C.2       1 <0>         0.5203
      5 O1         -0.3949    3.6790    0.6367 O.2       1 <0>        -0.5106
      6 N1         -0.6984    1.5583    1.2133 N.am      1 <0>        -0.7232
      7 C5         -0.0127    1.0858    0.0080 C.3       1 <0>         0.1444
      8 H1          0.0021   -0.0041    0.0020 H         1 <0>         0.1078
      9 C6         -0.7527    1.5927   -1.2315 C.3       1 <0>        -0.0918
     10 C7         -2.1255    0.9734   -1.2852 C.ar      1 <0>        -0.0916
     11 C8         -2.3173   -0.2233   -1.9507 C.ar      1 <0>        -0.1016
     12 C9         -3.5736   -0.7959   -1.9965 C.ar      1 <0>        -0.1438
     13 C10        -4.6456   -0.1637   -1.3834 C.ar      1 <0>         0.1073
     14 C11        -4.4516    1.0399   -0.7212 C.ar      1 <0>        -0.1418
     15 C12        -3.1923    1.6057   -0.6738 C.ar      1 <0>        -0.0881
     16 O2         -5.8836   -0.7221   -1.4318 O.3       1 <0>        -0.4998
     17 C13         1.4011    1.6074   -0.0027 C.2       1 <0>         0.5008
     18 O3          1.6980    2.5686    0.6748 O.2       1 <0>        -0.4994
     19 N2          2.3356    1.0059   -0.7651 N.am      1 <0>        -0.7376
     20 C14         3.7100    1.5130   -0.7755 C.3       1 <0>         0.1204
     21 C15         4.5620    0.6578   -1.7155 C.3       1 <0>        -0.1316
     22 C16         5.9974    1.1874   -1.7264 C.3       1 <0>        -0.1192
     23 C17         6.8494    0.3322   -2.6664 C.3       1 <0>        -0.1199
     24 C18         8.2848    0.8617   -2.6773 C.3       1 <0>        -0.1196
     25 C19         9.1368    0.0066   -3.6173 C.3       1 <0>        -0.1508
     26 C20        10.5722    0.5361   -3.6281 C.3       1 <0>        -0.0064
     27 C21        12.7781    0.1953   -4.5665 C.3       1 <0>        -0.0057
     28 C22        13.5972   -0.6826   -5.5148 C.3       1 <0>        -0.1505
     29 C23        15.0427   -0.1824   -5.5521 C.3       1 <0>        -0.1525
     30 C24        15.8618   -1.0604   -6.5003 C.3       1 <0>        -0.0040
     31 H2         -3.3023    5.0124    3.9499 H         1 <0>         0.0552
     32 H3         -1.7525    5.0286    4.8252 H         1 <0>         0.0544
     33 H4         -2.2945    6.4795    3.9481 H         1 <0>         0.0588
     34 H5         -0.5410    5.2735    2.6756 H         1 <0>         0.0690
     35 H6         -2.0908    5.2573    1.8003 H         1 <0>         0.0679
     36 H7         -2.5654    2.9891    2.6827 H         1 <0>         0.0921
     37 H8         -1.0157    3.0053    3.5580 H         1 <0>         0.0917
     38 H9         -1.0524    0.9196    1.8518 H         1 <0>         0.4061
     39 H10        -0.8452    2.6775   -1.1811 H         1 <0>         0.1040
     40 H11        -0.1944    1.3168   -2.1261 H         1 <0>         0.0815
     41 H12        -1.4833   -0.7129   -2.4316 H         1 <0>         0.1247
     42 H13        -3.7220   -1.7331   -2.5123 H         1 <0>         0.1292
     43 H14        -5.2845    1.5338   -0.2428 H         1 <0>         0.1300
     44 H15        -3.0408    2.5426   -0.1583 H         1 <0>         0.1222
     45 H16        -6.4105   -0.4450   -2.1938 H         1 <0>         0.3938
     46 H17         2.0981    0.2372   -1.3070 H         1 <0>         0.3986
     47 H18         3.7133    2.5466   -1.1215 H         1 <0>         0.0669
     48 H19         4.1223    1.4659    0.2324 H         1 <0>         0.0655
     49 H20         4.5587   -0.3759   -1.3696 H         1 <0>         0.0702
     50 H21         4.1497    0.7049   -2.7235 H         1 <0>         0.0707
     51 H22         6.0007    2.2210   -2.0724 H         1 <0>         0.0690
     52 H23         6.4097    1.1403   -0.7185 H         1 <0>         0.0686
     53 H24         6.8461   -0.7015   -2.3204 H         1 <0>         0.0675
     54 H25         6.4371    0.3793   -3.6743 H         1 <0>         0.0677
     55 H26         8.2881    1.8954   -3.0233 H         1 <0>         0.0756
     56 H27         8.6971    0.8147   -1.6694 H         1 <0>         0.0754
     57 H28         9.1335   -1.0271   -3.2713 H         1 <0>         0.0882
     58 H29         8.7245    0.0536   -4.6252 H         1 <0>         0.0884
     59 H30        10.5755    1.5698   -3.9741 H         1 <0>         0.1330
     60 H31        10.9845    0.4890   -2.6202 H         1 <0>         0.1329
     61 H32        12.7967    1.2266   -4.9190 H         1 <0>         0.1346
     62 H33        13.2057    0.1458   -3.5651 H         1 <0>         0.1345
     63 H34        13.5786   -1.7139   -5.1623 H         1 <0>         0.0994
     64 H35        13.1696   -0.6332   -6.5162 H         1 <0>         0.0995
     65 H36        15.0613    0.8488   -5.9046 H         1 <0>         0.0998
     66 H37        15.4702   -0.2319   -4.5507 H         1 <0>         0.0994
     67 H38        15.8432   -2.0916   -6.1478 H         1 <0>         0.1358
     68 H39        15.4342   -1.0109   -7.5018 H         1 <0>         0.1385
     69 H40        17.8115   -1.1441   -7.1561 H         1 <0>         0.4483
     70 H41        17.2887    0.3935   -6.7981 H         1 <0>         0.4405
     71 N3         11.3866   -0.2934   -4.5363 N.4       1 <0>        -0.5209
     72 H42        10.9911   -0.2479   -5.4827 H         1 <0>         0.4346
     73 H43        11.3763   -1.2660   -4.2074 H         1 <0>         0.4345
     74 N4         17.2560   -0.5836   -6.5120 N.4       1 <0>        -0.6486
     75 H44        17.6500   -0.6695   -5.5677 H         1 <0>         0.4428
@<TRIPOS>BOND
     1    1    2 1
     2    1   31 1
     3    1   32 1
     4    1   33 1
     5    2    3 1
     6    2   34 1
     7    2   35 1
     8    3    4 1
     9    3   36 1
    10    3   37 1
    11    4    5 2
    12    4    6 am
    13    6    7 1
    14    6   38 1
    15    7    8 1
    16    7    9 1
    17    7   17 1
    18    9   10 1
    19    9   39 1
    20    9   40 1
    21   10   15 ar
    22   10   11 ar
    23   11   12 ar
    24   11   41 1
    25   12   13 ar
    26   12   42 1
    27   13   14 ar
    28   13   16 1
    29   14   15 ar
    30   14   43 1
    31   15   44 1
    32   16   45 1
    33   17   18 2
    34   17   19 am
    35   19   20 1
    36   19   46 1
    37   20   21 1
    38   20   47 1
    39   20   48 1
    40   21   22 1
    41   21   49 1
    42   21   50 1
    43   22   23 1
    44   22   51 1
    45   22   52 1
    46   23   24 1
    47   23   53 1
    48   23   54 1
    49   24   25 1
    50   24   55 1
    51   24   56 1
    52   25   26 1
    53   25   57 1
    54   25   58 1
    55   26   59 1
    56   26   60 1
    57   26   71 1
    58   27   28 1
    59   27   61 1
    60   27   62 1
    61   27   71 1
    62   28   29 1
    63   28   63 1
    64   28   64 1
    65   29   30 1
    66   29   65 1
    67   29   66 1
    68   30   67 1
    69   30   68 1
    70   30   74 1
    71   69   74 1
    72   70   74 1
    73   71   72 1
    74   71   73 1
    75   74   75 1
@<TRIPOS>MOLECULE
ZINC08585017
   31    33     0     0     0
SMALL
USER_CHARGES

@<TRIPOS>ATOM
      1 C1          0.2332    1.3841    0.6570 C.ar      1 <0>        -0.1163
      2 C2          1.3450    2.1030    0.3352 C.ar      1 <0>        -0.0461
      3 C3          2.5286    1.4337   -0.0104 C.ar      1 <0>        -0.0508
      4 C4          2.5507    0.0178   -0.0197 C.ar      1 <0>         0.0703
      5 C5          1.3858   -0.6903    0.3181 C.ar      1 <0>        -0.6623
      6 C6          0.2539   -0.0082    0.6481 C.ar      1 <0>         0.0100
      7 S1          1.3881   -2.4523    0.3133 S.o2      1 <0>         2.6604
      8 O1          1.2671   -2.8548   -1.0441 O.2       1 <0>        -0.9037
      9 O2          2.4738   -2.8593    1.1348 O.2       1 <0>        -0.9426
     10 N1          0.0047   -2.9457    1.0783 N.pl3     1 <0>        -1.2465
     11 C7          3.7370   -0.6553   -0.3670 C.ar      1 <0>        -0.0313
     12 C8          4.8514    0.0498   -0.6900 C.ar      1 <0>        -0.0208
     13 C9          4.8498    1.4521   -0.6862 C.ar      1 <0>         0.1138
     14 C10         3.6989    2.1491   -0.3497 C.ar      1 <0>         0.1787
     15 N2          3.6832    3.5358   -0.3424 N.am      1 <0>        -0.6274
     16 H1          2.8706    4.0090   -0.1045 H         1 <0>         0.4261
     17 C11         4.7946    4.2283   -0.6646 C.2       1 <0>         0.5118
     18 O3          4.7862    5.4433   -0.6593 O.2       1 <0>        -0.4441
     19 C12         6.0334    3.4831   -1.0268 C.2       1 <0>         0.5112
     20 O4          7.0481    4.0831   -1.3210 O.2       1 <0>        -0.4495
     21 N3          6.0144    2.1351   -1.0235 N.am      1 <0>        -0.6258
     22 H2          6.8149    1.6397   -1.2576 H         1 <0>         0.4304
     23 N4          3.7698   -2.1354   -0.3796 N.pl3     1 <0>        -0.0336
     24 O5          4.3500   -2.7346    0.4957 O.2       1 <0>        -0.0101
     25 O6          3.2166   -2.7448   -1.2651 O.3       1 <0>        -0.1547
     26 H3         -0.6756    1.9014    0.9270 H         1 <0>         0.1537
     27 H4          1.3152    3.1825    0.3457 H         1 <0>         0.1466
     28 H5         -0.6405   -0.5552    0.9075 H         1 <0>         0.1465
     29 H6         -0.6187   -2.2884    1.4249 H         1 <0>         0.4109
     30 H7         -0.1821   -3.8921    1.1798 H         1 <0>         0.4276
     31 H8          5.7553   -0.4788   -0.9543 H         1 <0>         0.1677
@<TRIPOS>BOND
     1    1    6 ar
     2    1    2 ar
     3    1   26 1
     4    2    3 ar
     5    2   27 1
     6    3   14 ar
     7    3    4 ar
     8    4    5 ar
     9    4   11 ar
    10    5    6 ar
    11    5    7 1
    12    6   28 1
    13    7    8 2
    14    7    9 2
    15    7   10 1
    16   10   29 1
    17   10   30 1
    18   11   12 ar
    19   11   23 1
    20   12   13 ar
    21   12   31 1
    22   13   21 1
    23   13   14 ar
    24   14   15 1
    25   15   16 1
    26   15   17 am
    27   17   18 2
    28   17   19 1
    29   19   20 2
    30   19   21 am
    31   21   22 1
    32   23   24 2
    33   23   25 1
@<TRIPOS>MOLECULE
ZINC08585017
   30    32     0     0     0
SMALL
USER_CHARGES

@<TRIPOS>ATOM
      1 C1         -0.6276    0.4370   -1.7736 C.ar      1 <0>        -0.1731
      2 C2          0.3567    1.2003   -2.3318 C.ar      1 <0>         0.0069
      3 C3          1.6968    0.8795   -2.0978 C.ar      1 <0>        -0.0630
      4 C4          2.0190   -0.2327   -1.2850 C.ar      1 <0>         0.0918
      5 C5          0.9824   -0.9962   -0.7260 C.ar      1 <0>        -0.6997
      6 C6         -0.3146   -0.6572   -0.9739 C.ar      1 <0>         0.0068
      7 S1          1.3554   -2.3868    0.2896 S.o2      1 <0>         2.6622
      8 O1          1.7041   -3.4487   -0.5879 O.2       1 <0>        -0.9158
      9 O2          2.2299   -1.9224    1.3088 O.2       1 <0>        -0.9452
     10 N1         -0.0506   -2.8358    1.0407 N.pl3     1 <0>        -1.2459
     11 C7          3.3708   -0.5559   -1.0503 C.ar      1 <0>        -0.1204
     12 C8          4.3691    0.1831   -1.5919 C.ar      1 <0>         0.0054
     13 C9          4.1065    1.2943   -2.4040 C.ar      1 <0>        -0.0110
     14 C10         2.7853    1.6709   -2.6771 C.ar      1 <0>         0.2503
     15 N2          2.5158    2.7321   -3.4521 N.2       1 <0>        -0.5968
     16 C11         3.4796    3.4477   -3.9760 C.2       1 <0>         0.4326
     17 O3          3.1851    4.5165   -4.7560 O.3       1 <0>        -0.5869
     18 C12         4.8815    3.0897   -3.7160 C.2       1 <0>         0.4736
     19 O4          5.7864    3.7475   -4.1978 O.2       1 <0>        -0.5174
     20 N3          5.1522    2.0207   -2.9364 N.am      1 <0>        -0.6182
     21 H1          6.0702    1.7673   -2.7519 H         1 <0>         0.4056
     22 N4          3.7049   -1.7200   -0.1990 N.pl3     1 <0>        -0.0190
     23 O5          4.1212   -1.5487    0.9230 O.2       1 <0>        -0.0412
     24 O6          3.5614   -2.8420   -0.6258 O.3       1 <0>        -0.1772
     25 H2         -1.6628    0.6885   -1.9514 H         1 <0>         0.1355
     26 H3          0.1015    2.0474   -2.9513 H         1 <0>         0.1531
     27 H4         -1.1104   -1.2463   -0.5426 H         1 <0>         0.1338
     28 H5         -0.4520   -3.6967    0.8440 H         1 <0>         0.4197
     29 H6         -0.4727   -2.2379    1.6772 H         1 <0>         0.4165
     30 H7          5.3943   -0.0914   -1.3921 H         1 <0>         0.1369
@<TRIPOS>BOND
     1    1    6 ar
     2    1    2 ar
     3    1   25 1
     4    2    3 ar
     5    2   26 1
     6    3   14 ar
     7    3    4 ar
     8    4    5 ar
     9    4   11 ar
    10    5    6 ar
    11    5    7 1
    12    6   27 1
    13    7    8 2
    14    7    9 2
    15    7   10 1
    16   10   28 1
    17   10   29 1
    18   11   12 ar
    19   11   22 1
    20   12   13 ar
    21   12   30 1
    22   13   20 1
    23   13   14 ar
    24   14   15 1
    25   15   16 2
    26   16   17 1
    27   16   18 1
    28   18   19 2
    29   18   20 am
    30   20   21 1
    31   22   23 2
    32   22   24 1
@<TRIPOS>MOLECULE
ZINC08585017
   30    32     0     0     0
SMALL
USER_CHARGES

@<TRIPOS>ATOM
      1 C1          0.2456    1.3834    0.6714 C.ar      1 <0>        -0.1313
      2 C2          1.3577    2.1012    0.3447 C.ar      1 <0>        -0.0563
      3 C3          2.5384    1.4313   -0.0062 C.ar      1 <0>        -0.0329
      4 C4          2.5597    0.0160   -0.0166 C.ar      1 <0>         0.0376
      5 C5          1.3970   -0.6903    0.3261 C.ar      1 <0>        -0.6495
      6 C6          0.2655   -0.0079    0.6614 C.ar      1 <0>        -0.0272
      7 S1          1.3984   -2.4523    0.3206 S.o2      1 <0>         2.6599
      8 O1          1.2733   -2.8543   -1.0366 O.2       1 <0>        -0.9123
      9 O2          2.4863   -2.8602    1.1387 O.2       1 <0>        -0.9464
     10 N1          0.0171   -2.9454    1.0895 N.pl3     1 <0>        -1.2511
     11 C7          3.7448   -0.6631   -0.3704 C.ar      1 <0>        -0.0537
     12 C8          4.8595    0.0289   -0.6994 C.ar      1 <0>         0.0031
     13 C9          4.8669    1.4424   -0.6970 C.ar      1 <0>         0.1698
     14 C10         3.7083    2.1457   -0.3510 C.ar      1 <0>         0.0654
     15 N2          3.7054    3.5214   -0.3466 N.am      1 <0>        -0.6172
     16 H1          2.9024    4.0100   -0.1071 H         1 <0>         0.4012
     17 C11         4.8349    4.1831   -0.6796 C.2       1 <0>         0.4746
     18 O3          4.8602    5.4008   -0.6836 O.2       1 <0>        -0.5142
     19 C12         6.0339    3.4096   -1.0369 C.2       1 <0>         0.4197
     20 O4          7.1791    4.0511   -1.3748 O.3       1 <0>        -0.6118
     21 N3          5.9939    2.1025   -1.0293 N.2       1 <0>        -0.5931
     22 N4          3.7686   -2.1433   -0.3812 N.pl3     1 <0>        -0.0254
     23 O5          4.3466   -2.7449    0.4938 O.2       1 <0>        -0.0281
     24 O6          3.2101   -2.7504   -1.2650 O.3       1 <0>        -0.1734
     25 H2         -0.6615    1.9014    0.9458 H         1 <0>         0.1381
     26 H3          1.3293    3.1807    0.3559 H         1 <0>         0.1345
     27 H4         -0.6278   -0.5549    0.9243 H         1 <0>         0.1324
     28 H5         -0.6050   -2.2879    1.4382 H         1 <0>         0.4093
     29 H6         -0.1699   -3.8918    1.1912 H         1 <0>         0.4219
     30 H7          5.7581   -0.5068   -0.9677 H         1 <0>         0.1561
@<TRIPOS>BOND
     1    1    6 ar
     2    1    2 ar
     3    1   25 1
     4    2    3 ar
     5    2   26 1
     6    3   14 ar
     7    3    4 ar
     8    4    5 ar
     9    4   11 ar
    10    5    6 ar
    11    5    7 1
    12    6   27 1
    13    7    8 2
    14    7    9 2
    15    7   10 1
    16   10   28 1
    17   10   29 1
    18   11   12 ar
    19   11   22 1
    20   12   13 ar
    21   12   30 1
    22   13   21 1
    23   13   14 ar
    24   14   15 1
    25   15   16 1
    26   15   17 am
    27   17   18 2
    28   17   19 1
    29   19   20 1
    30   19   21 2
    31   22   23 2
    32   22   24 1
@<TRIPOS>MOLECULE
ZINC00236276
   20    21     0     0     0
SMALL
USER_CHARGES
6-nitro-1,4-dihydroquinoxaline-2,3-dione
@<TRIPOS>ATOM
      1 C1         -0.0780    4.1604    0.0256 C.ar      1 <0>        -0.0407
      2 C2          1.1359    3.5040    0.0105 C.ar      1 <0>        -0.1191
      3 C3          1.1755    2.1144    0.0022 C.ar      1 <0>         0.1760
      4 C4         -0.0168    1.3878    0.0097 C.ar      1 <0>         0.1229
      5 C5         -1.2335    2.0601    0.0307 C.ar      1 <0>        -0.0559
      6 C6         -1.2603    3.4400    0.0326 C.ar      1 <0>        -0.0368
      7 N1         -2.5577    4.1523    0.0493 N.pl3     1 <0>         0.0285
      8 O1         -2.5838    5.3700    0.0569 O.2       1 <0>        -0.1500
      9 O2         -3.5991    3.5208    0.0555 O.3       1 <0>        -0.1550
     10 N2          0.0021   -0.0041    0.0020 N.am      1 <0>        -0.6469
     11 H1         -0.9429   -0.5670    0.0080 H         1 <0>         0.4574
     12 C7          1.1778   -0.6642   -0.0128 C.2       1 <0>         0.5105
     13 O3          1.1994   -1.8786   -0.0195 O.2       1 <0>        -0.4568
     14 C8          2.4515    0.1119   -0.0212 C.2       1 <0>         0.5103
     15 O4          3.5208   -0.4641   -0.0350 O.2       1 <0>        -0.4527
     16 N3          2.4038    1.4595   -0.0140 N.am      1 <0>        -0.6479
     17 H2          3.3373    2.0414   -0.0209 H         1 <0>         0.4579
     18 H3         -0.1058    5.2400    0.0324 H         1 <0>         0.1659
     19 H4          2.0556    4.0702    0.0055 H         1 <0>         0.1639
     20 H5         -2.1582    1.5023    0.0411 H         1 <0>         0.1684
@<TRIPOS>BOND
     1    1    6 ar
     2    1    2 ar
     3    1   18 1
     4    2    3 ar
     5    2   19 1
     6    3   16 1
     7    3    4 ar
     8    4    5 ar
     9    4   10 1
    10    5    6 ar
    11    5   20 1
    12    6    7 1
    13    7    8 2
    14    7    9 1
    15   10   11 1
    16   10   12 am
    17   12   13 2
    18   12   14 1
    19   14   15 2
    20   14   16 am
    21   16   17 1
@<TRIPOS>MOLECULE
ZINC03995575
   29    29     0     0     0
SMALL
USER_CHARGES

@<TRIPOS>ATOM
      1 C1          1.0799   -0.3943   -0.7951 C.3       1 <0>        -0.1264
      2 C2         -0.0539    0.0466    0.0944 C.2       1 <0>        -0.0851
      3 C3          0.1239    1.0269    0.9449 C.2       1 <0>        -0.2152
      4 C4         -1.3923   -0.6404    0.0054 C.3       1 <0>        -0.0829
      5 H1         -1.2738   -1.7222    0.0665 H         1 <0>         0.1010
      6 C5         -2.3455   -0.1298    1.1150 C.3       1 <0>        -0.0057
      7 N1         -3.6945   -0.3983    0.5543 N.4       1 <0>        -0.4952
      8 C6         -3.6039   -0.0757   -0.8862 C.3       1 <0>        -0.0344
      9 H2         -3.9248    0.9517   -1.0576 H         1 <0>         0.1243
     10 C7         -2.1258   -0.2430   -1.2962 C.3       1 <0>        -0.0443
     11 H3         -2.0240   -1.0302   -2.0432 H         1 <0>         0.1083
     12 C8         -1.5723    1.0774   -1.8356 C.3       1 <0>        -0.1808
     13 C9         -2.1700    1.3564   -3.1906 C.2       1 <0>         0.4629
     14 O1         -2.9649    0.5718   -3.6795 O.co2     1 <0>        -0.6259
     15 O2         -1.8586    2.3667   -3.7980 O.co2     1 <0>        -0.7225
     16 C10        -4.4676   -1.0222   -1.6795 C.2       1 <0>         0.4844
     17 O3         -5.1257   -1.8732   -1.1058 O.co2     1 <0>        -0.7147
     18 O4         -4.5083   -0.9368   -2.8951 O.co2     1 <0>        -0.5649
     19 H4          1.9427    0.2513   -0.6309 H         1 <0>         0.0649
     20 H5          1.3469   -1.4245   -0.5597 H         1 <0>         0.0674
     21 H6          0.7702   -0.3284   -1.8381 H         1 <0>         0.0792
     22 H7         -0.6562    1.2804    1.6475 H         1 <0>         0.0960
     23 H8          1.0505    1.5817    0.9435 H         1 <0>         0.1029
     24 H9         -2.1947   -0.6883    2.0388 H         1 <0>         0.1211
     25 H10        -2.2040    0.9380    1.2824 H         1 <0>         0.1276
     26 H11        -3.9359   -1.3700    0.6788 H         1 <0>         0.4255
     27 H12        -1.8299    1.8859   -1.1515 H         1 <0>         0.0481
     28 H13        -0.4881    1.0078   -1.9241 H         1 <0>         0.0711
     29 H14        -4.3805    0.1919    1.0005 H         1 <0>         0.4136
@<TRIPOS>BOND
     1    1    2 1
     2    1   19 1
     3    1   20 1
     4    1   21 1
     5    2    3 2
     6    2    4 1
     7    3   22 1
     8    3   23 1
     9    4    5 1
    10    4   10 1
    11    4    6 1
    12    6    7 1
    13    6   24 1
    14    6   25 1
    15    7    8 1
    16    7   26 1
    17    7   29 1
    18    8    9 1
    19    8   10 1
    20    8   16 1
    21   10   11 1
    22   10   12 1
    23   12   13 1
    24   12   27 1
    25   12   28 1
    26   13   14 2
    27   13   15 1
    28   16   17 2
    29   16   18 1
@<TRIPOS>MOLECULE
ZINC02047689
   23    23     0     0     0
SMALL
USER_CHARGES
2-amino-3-(5-bromo-2,4-dioxo-pyrimidin-1-yl)-propanoic acid
@<TRIPOS>ATOM
      1 C1         -0.0203    3.7007    0.0217 C.2       1 <0>         0.2057
      2 C2         -1.1968    3.0375    0.0298 C.2       1 <0>        -0.2662
      3 C3         -1.1894    1.6212    0.0165 C.2       1 <0>         0.5569
      4 O1         -2.2375    1.0011    0.0177 O.2       1 <0>        -0.4721
      5 N1         -0.0111    0.9658    0.0074 N.am      1 <0>        -0.6529
      6 H1          0.0025   -0.0341    0.0061 H         1 <0>         0.4482
      7 C4          1.1469    1.6518   -0.0000 C.2       1 <0>         0.6851
      8 O2          2.2016    1.0470   -0.0133 O.2       1 <0>        -0.5341
      9 N2          1.1541    2.9972    0.0067 N.am      1 <0>        -0.5442
     10 C5          2.4306    3.7160   -0.0016 C.3       1 <0>         0.1040
     11 C6          2.8614    3.9736   -1.4469 C.3       1 <0>        -0.0340
     12 H2          2.1486    4.6460   -1.9242 H         1 <0>         0.1474
     13 C7          4.2308    4.6027   -1.4584 C.2       1 <0>         0.4582
     14 O3          5.2053    3.9247   -1.6832 O.co2     1 <0>        -0.5998
     15 Br1        -2.8320    3.9871    0.0505 Br        1 <0>         0.0360
     16 H3         -0.0060    4.7806    0.0266 H         1 <0>         0.1981
     17 H4          2.3153    4.6672    0.5181 H         1 <0>         0.1505
     18 H5          3.1886    3.1163    0.5021 H         1 <0>         0.1321
     19 H6          3.5551    2.0602   -1.7570 H         1 <0>         0.4438
     20 H7          1.9812    2.2910   -2.2423 H         1 <0>         0.4102
     21 O4          4.3679    5.9163   -1.2188 O.co2     1 <0>        -0.6899
     22 N3          2.9091    2.7095   -2.2027 N.4       1 <0>        -0.6246
     23 H8          3.2317    2.8999   -3.1587 H         1 <0>         0.4413
@<TRIPOS>BOND
     1    1    9 1
     2    1    2 2
     3    1   16 1
     4    2    3 1
     5    2   15 1
     6    3    4 2
     7    3    5 am
     8    5    6 1
     9    5    7 am
    10    7    8 2
    11    7    9 am
    12    9   10 1
    13   10   11 1
    14   10   17 1
    15   10   18 1
    16   11   12 1
    17   11   13 1
    18   11   22 1
    19   13   14 2
    20   13   21 1
    21   19   22 1
    22   20   22 1
    23   22   23 1
@<TRIPOS>MOLECULE
ZINC27652394
   75    75     0     0     0
SMALL
USER_CHARGES
N-[(1R)-2-[7-(4-aminobutylamino)heptylamino]-1-[(4-hydroxyphenyl)methyl]-2-oxo-ethyl]butanamide
@<TRIPOS>ATOM
      1 C1         -6.2351    5.8546    0.2050 C.3       1 <0>        -0.1559
      2 C2         -5.1010    4.9483    0.6881 C.3       1 <0>        -0.1082
      3 C3         -4.9781    3.7430   -0.2463 C.3       1 <0>        -0.1416
      4 C4         -3.8610    2.8504    0.2295 C.2       1 <0>         0.5212
      5 O1         -3.2257    3.1488    1.2185 O.2       1 <0>        -0.5157
      6 N1         -3.5680    1.7204   -0.4441 N.am      1 <0>        -0.7357
      7 C5         -2.4820    0.8526    0.0185 C.3       1 <0>         0.1490
      8 H1         -2.4127    0.0064   -0.6809 H         1 <0>         0.1048
      9 C6         -2.7853    0.3687    1.4379 C.3       1 <0>        -0.0866
     10 C7         -4.0132   -0.5048    1.4192 C.ar      1 <0>        -0.1246
     11 C8         -5.2634    0.0582    1.5978 C.ar      1 <0>        -0.0612
     12 C9         -6.3910   -0.7396    1.5755 C.ar      1 <0>        -0.1603
     13 C10        -6.2673   -2.1082    1.3850 C.ar      1 <0>         0.1583
     14 C11        -5.0113   -2.6714    1.2117 C.ar      1 <0>        -0.2146
     15 C12        -3.8872   -1.8685    1.2292 C.ar      1 <0>        -0.0769
     16 O2         -7.3746   -2.8959    1.3677 O.3       1 <0>        -0.5100
     17 C13        -1.1873    1.6238    0.0165 C.2       1 <0>         0.5011
     18 O3         -1.2037    2.8365    0.0232 O.2       1 <0>        -0.5052
     19 N2         -0.0111    0.9658    0.0074 N.am      1 <0>        -0.7482
     20 C14         1.2475    1.7155   -0.0006 C.3       1 <0>         0.1229
     21 C15         2.4238    0.7372   -0.0171 C.3       1 <0>        -0.1303
     22 C16         3.7382    1.5202   -0.0255 C.3       1 <0>        -0.1205
     23 C17         4.9145    0.5419   -0.0420 C.3       1 <0>        -0.1199
     24 C18         6.2290    1.3248   -0.0503 C.3       1 <0>        -0.1211
     25 C19         7.4052    0.3465   -0.0668 C.3       1 <0>        -0.1489
     26 C20         8.7197    1.1295   -0.0751 C.3       1 <0>        -0.0049
     27 N3          9.8490    0.1902   -0.0910 N.4       1 <0>        -0.5405
     28 C21        11.1307    0.9080   -0.0993 C.3       1 <0>        -0.0066
     29 C22        12.2804   -0.1014   -0.1157 C.3       1 <0>        -0.1493
     30 C23        13.6153    0.6462   -0.1245 C.3       1 <0>        -0.1518
     31 C24        14.7650   -0.3631   -0.1409 C.3       1 <0>        -0.0023
     32 N4         16.0467    0.3547   -0.1493 N.4       1 <0>        -0.6903
     33 H2         -6.3234    6.7211    0.8768 H         1 <0>         0.0587
     34 H3         -7.1802    5.2917    0.2064 H         1 <0>         0.0554
     35 H4         -6.0170    6.2025   -0.8155 H         1 <0>         0.0543
     36 H5         -4.1559    5.5112    0.6867 H         1 <0>         0.0685
     37 H6         -5.3190    4.6004    1.7086 H         1 <0>         0.0677
     38 H7         -5.9232    3.1801   -0.2449 H         1 <0>         0.0916
     39 H8         -4.7601    4.0909   -1.2668 H         1 <0>         0.0906
     40 H9         -4.1442    1.4497   -1.3412 H         1 <0>         0.4262
     41 H10        -1.9302   -0.2089    1.8189 H         1 <0>         0.0777
     42 H11        -2.9622    1.2360    2.0910 H         1 <0>         0.1020
     43 H12        -5.3588    1.1231    1.7505 H         1 <0>         0.1224
     44 H13        -7.3676   -0.2989    1.7106 H         1 <0>         0.1283
     45 H14        -4.9124   -3.7365    1.0629 H         1 <0>         0.1258
     46 H15        -2.9093   -2.3064    1.0940 H         1 <0>         0.1208
     47 H16        -7.2754   -3.9809    1.2166 H         1 <0>         0.4351
     48 H17         0.0039   -0.1341    0.0060 H         1 <0>         0.4168
     49 H18         1.2886    2.3535   -0.8958 H         1 <0>         0.0626
     50 H19         1.3058    2.3438    0.9004 H         1 <0>         0.0638
     51 H20         2.3827    0.0993    0.8781 H         1 <0>         0.0706
     52 H21         2.3655    0.1088   -0.9181 H         1 <0>         0.0701
     53 H22         3.7792    2.1581   -0.9207 H         1 <0>         0.0682
     54 H23         3.7965    2.1486    0.8755 H         1 <0>         0.0687
     55 H24         4.8734   -0.0961    0.8532 H         1 <0>         0.0677
     56 H25         4.8563   -0.0864   -0.9430 H         1 <0>         0.0674
     57 H26         6.2701    1.9628   -0.9455 H         1 <0>         0.0750
     58 H27         6.2873    1.9531    0.8507 H         1 <0>         0.0752
     59 H28         7.3640   -0.2915    0.8284 H         1 <0>         0.0879
     60 H29         7.3469   -0.2818   -0.9678 H         1 <0>         0.0878
     61 H30         8.7608    1.7675   -0.9702 H         1 <0>         0.1297
     62 H31         8.7780    1.7578    0.8259 H         1 <0>         0.1298
     63 H32         9.8078   -0.4478    0.8041 H         1 <0>         0.4518
     64 H33        11.1887    1.5444   -0.9946 H         1 <0>         0.1309
     65 H34        11.2058    1.5347    0.8016 H         1 <0>         0.1309
     66 H35        12.2224   -0.7378    0.7797 H         1 <0>         0.0983
     67 H36        12.2052   -0.7282   -1.0165 H         1 <0>         0.0983
     68 H37        13.6732    1.2826   -1.0199 H         1 <0>         0.0975
     69 H38        13.6905    1.2730    0.7763 H         1 <0>         0.0975
     70 H39        14.7070   -0.9995    0.7544 H         1 <0>         0.1316
     71 H40        14.6899   -0.9899   -1.0417 H         1 <0>         0.1315
     72 H41        16.8733   -0.3710   -0.1611 H         1 <0>         0.4686
     73 H42        16.1218    0.9815    0.7516 H         1 <0>         0.4596
     74 H43         9.7907   -0.4381   -0.9921 H         1 <0>         0.4517
     75 H44        16.1047    0.9911   -1.0446 H         1 <0>         0.4595
@<TRIPOS>BOND
     1    1    2 1
     2    1   33 1
     3    1   34 1
     4    1   35 1
     5    2    3 1
     6    2   36 1
     7    2   37 1
     8    3    4 1
     9    3   38 1
    10    3   39 1
    11    4    5 2
    12    4    6 am
    13    6    7 1
    14    6   40 1
    15    7    8 1
    16    7    9 1
    17    7   17 1
    18    9   10 1
    19    9   41 1
    20    9   42 1
    21   10   15 ar
    22   10   11 ar
    23   11   12 ar
    24   11   43 1
    25   12   13 ar
    26   12   44 1
    27   13   14 ar
    28   13   16 1
    29   14   15 ar
    30   14   45 1
    31   15   46 1
    32   16   47 1
    33   17   18 2
    34   17   19 am
    35   19   20 1
    36   19   48 1
    37   20   21 1
    38   20   49 1
    39   20   50 1
    40   21   22 1
    41   21   51 1
    42   21   52 1
    43   22   23 1
    44   22   53 1
    45   22   54 1
    46   23   24 1
    47   23   55 1
    48   23   56 1
    49   24   25 1
    50   24   57 1
    51   24   58 1
    52   25   26 1
    53   25   59 1
    54   25   60 1
    55   26   27 1
    56   26   61 1
    57   26   62 1
    58   27   28 1
    59   27   63 1
    60   27   74 1
    61   28   29 1
    62   28   64 1
    63   28   65 1
    64   29   30 1
    65   29   66 1
    66   29   67 1
    67   30   31 1
    68   30   68 1
    69   30   69 1
    70   31   32 1
    71   31   70 1
    72   31   71 1
    73   32   72 1
    74   32   73 1
    75   32   75 1
@<TRIPOS>MOLECULE
ZINC00008815
   46    47     0     0     0
SMALL
USER_CHARGES

@<TRIPOS>ATOM
      1 C1         -0.5097    1.5074    0.7295 C.3       1 <0>        -0.1484
      2 C2         -0.4248   -0.0199    0.6955 C.3       1 <0>        -0.0594
      3 H1          0.2867   -0.3272   -0.0710 H         1 <0>         0.0898
      4 C3         -1.8034   -0.6003    0.3739 C.3       1 <0>         0.1243
      5 N1         -2.1963   -0.2037   -0.9806 N.pl3     1 <0>        -1.1180
      6 S1         -3.4584   -0.9669   -1.7335 S.o2      1 <0>         2.6105
      7 O1         -4.5292   -0.9023   -0.8016 O.2       1 <0>        -0.9540
      8 O2         -3.5617   -0.3326   -3.0009 O.2       1 <0>        -0.9534
      9 C4         -2.9101   -2.6841   -1.9372 C.3       1 <0>        -0.5940
     10 C5         -4.0085   -3.4911   -2.6322 C.3       1 <0>        -0.1443
     11 C6         -1.6384   -2.7160   -2.7872 C.3       1 <0>        -0.1384
     12 C7          0.0332   -0.5276    2.0385 C.ar      1 <0>        -0.0727
     13 C8         -0.7198   -0.2629    3.1684 C.ar      1 <0>        -0.1114
     14 C9         -0.3054   -0.7252    4.4008 C.ar      1 <0>        -0.1001
     15 C10         0.8742   -1.4607    4.5057 C.ar      1 <0>        -0.0568
     16 C11         1.6286   -1.7247    3.3636 C.ar      1 <0>        -0.1013
     17 C12         1.2018   -1.2613    2.1358 C.ar      1 <0>        -0.1113
     18 C13         1.3250   -1.9598    5.8272 C.ar      1 <0>        -0.0127
     19 C14         0.5647   -1.6982    6.9673 C.ar      1 <0>        -0.1134
     20 C15         0.9820   -2.1610    8.1947 C.ar      1 <0>        -0.0648
     21 C16         2.1677   -2.8935    8.2984 C.ar      1 <0>        -0.0294
     22 C17         2.9281   -3.1552    7.1553 C.ar      1 <0>        -0.0651
     23 C18         2.5060   -2.6954    5.9284 C.ar      1 <0>        -0.1138
     24 C19         2.6033   -3.3752    9.5747 C.1       1 <0>         0.2496
     25 N2          2.9489   -3.7572   10.5871 N.1       1 <0>        -0.4114
     26 H2          0.4725    1.9209    0.9586 H         1 <0>         0.0629
     27 H3         -0.8409    1.8746   -0.2419 H         1 <0>         0.0618
     28 H4         -1.2211    1.8148    1.4960 H         1 <0>         0.0629
     29 H5         -1.7635   -1.6877    0.4369 H         1 <0>         0.0718
     30 H6         -2.5331   -0.2214    1.0895 H         1 <0>         0.0776
     31 H7         -1.7172    0.5060   -1.4364 H         1 <0>         0.4192
     32 H8         -2.7042   -3.1181   -0.9588 H         1 <0>         0.1339
     33 H9         -4.2145   -3.0570   -3.6106 H         1 <0>         0.0733
     34 H10        -3.6791   -4.5229   -2.7545 H         1 <0>         0.0833
     35 H11        -4.9145   -3.4684   -2.0266 H         1 <0>         0.0726
     36 H12        -0.8837   -2.0716   -2.3363 H         1 <0>         0.0692
     37 H13        -1.2609   -3.7372   -2.8380 H         1 <0>         0.0773
     38 H14        -1.8647   -2.3618   -3.7930 H         1 <0>         0.0755
     39 H15        -1.6335    0.3070    3.0859 H         1 <0>         0.1283
     40 H16        -0.8937   -0.5174    5.2824 H         1 <0>         0.1292
     41 H17         2.5435   -2.2936    3.4390 H         1 <0>         0.1285
     42 H18         1.7833   -1.4687    1.2496 H         1 <0>         0.1264
     43 H19        -0.3515   -1.1321    6.8869 H         1 <0>         0.1375
     44 H20         0.3936   -1.9577    9.0773 H         1 <0>         0.1362
     45 H21         3.8448   -3.7209    7.2341 H         1 <0>         0.1360
     46 H22         3.0912   -2.9010    5.0444 H         1 <0>         0.1369
@<TRIPOS>BOND
     1    1    2 1
     2    1   26 1
     3    1   27 1
     4    1   28 1
     5    2    3 1
     6    2    4 1
     7    2   12 1
     8    4    5 1
     9    4   29 1
    10    4   30 1
    11    5    6 1
    12    5   31 1
    13    6    7 2
    14    6    8 2
    15    6    9 1
    16    9   10 1
    17    9   11 1
    18    9   32 1
    19   10   33 1
    20   10   34 1
    21   10   35 1
    22   11   36 1
    23   11   37 1
    24   11   38 1
    25   12   17 ar
    26   12   13 ar
    27   13   14 ar
    28   13   39 1
    29   14   15 ar
    30   14   40 1
    31   15   16 ar
    32   15   18 1
    33   16   17 ar
    34   16   41 1
    35   17   42 1
    36   18   23 ar
    37   18   19 ar
    38   19   20 ar
    39   19   43 1
    40   20   21 ar
    41   20   44 1
    42   21   22 ar
    43   21   24 1
    44   22   23 ar
    45   22   45 1
    46   23   46 1
    47   24   25 3
@<TRIPOS>MOLECULE
ZINC13473523
   46    47     0     0     0
SMALL
USER_CHARGES

@<TRIPOS>ATOM
      1 C1         -0.4859    0.7523    0.1603 C.3       1 <0>        -0.1491
      2 C2         -0.1862   -0.7387    0.3278 C.3       1 <0>        -0.0598
      3 H1          0.3144   -1.1113   -0.5658 H         1 <0>         0.0909
      4 C3          0.7205   -0.9432    1.5431 C.3       1 <0>         0.1254
      5 N1          2.0193   -0.3123    1.2951 N.pl3     1 <0>        -1.1177
      6 S1          3.0711   -0.0618    2.5494 S.o2      1 <0>         2.6103
      7 O1          3.1758   -1.3246    3.1925 O.2       1 <0>        -0.9540
      8 O2          4.2096    0.5438    1.9524 O.2       1 <0>        -0.9533
      9 C4          2.2293    1.1239    3.6339 C.3       1 <0>        -0.5937
     10 C5          3.1189    1.4327    4.8398 C.3       1 <0>        -0.1443
     11 C6          1.9522    2.4147    2.8607 C.3       1 <0>        -0.1397
     12 C7         -1.4762   -1.4906    0.5314 C.ar      1 <0>        -0.0711
     13 C8         -2.2901   -1.1839    1.6071 C.ar      1 <0>        -0.1133
     14 C9         -3.4726   -1.8691    1.7985 C.ar      1 <0>        -0.1005
     15 C10        -3.8465   -2.8717    0.9051 C.ar      1 <0>        -0.0569
     16 C11        -3.0226   -3.1761   -0.1774 C.ar      1 <0>        -0.1000
     17 C12        -1.8447   -2.4809   -0.3614 C.ar      1 <0>        -0.1099
     18 C13        -5.1156   -3.6119    1.1057 C.ar      1 <0>        -0.0125
     19 C14        -5.9403   -3.3009    2.1870 C.ar      1 <0>        -0.1137
     20 C15        -7.1187   -3.9873    2.3744 C.ar      1 <0>        -0.0650
     21 C16        -7.4891   -4.9957    1.4805 C.ar      1 <0>        -0.0294
     22 C17        -6.6622   -5.3058    0.3973 C.ar      1 <0>        -0.0648
     23 C18        -5.4866   -4.6146    0.2095 C.ar      1 <0>        -0.1135
     24 C19        -8.7145   -5.7108    1.6744 C.1       1 <0>         0.2496
     25 N2         -9.6866   -6.2781    1.8283 N.1       1 <0>        -0.4115
     26 H2          0.4472    1.2962    0.0131 H         1 <0>         0.0635
     27 H3         -1.1319    0.8980   -0.7055 H         1 <0>         0.0628
     28 H4         -0.9865    1.1249    1.0540 H         1 <0>         0.0604
     29 H5          0.2589   -0.4914    2.4211 H         1 <0>         0.0709
     30 H6          0.8619   -2.0102    1.7155 H         1 <0>         0.0777
     31 H7          2.2631   -0.0413    0.3962 H         1 <0>         0.4196
     32 H8          1.2872    0.6967    3.9774 H         1 <0>         0.1336
     33 H9          4.0611    1.8599    4.4963 H         1 <0>         0.0733
     34 H10         2.6131    2.1451    5.4915 H         1 <0>         0.0833
     35 H11         3.3164    0.5131    5.3906 H         1 <0>         0.0725
     36 H12         1.3913    2.1826    1.9554 H         1 <0>         0.0702
     37 H13         1.3709    3.0940    3.4842 H         1 <0>         0.0774
     38 H14         2.8970    2.8871    2.5917 H         1 <0>         0.0755
     39 H15        -1.9994   -0.4069    2.2986 H         1 <0>         0.1255
     40 H16        -4.1069   -1.6293    2.6391 H         1 <0>         0.1286
     41 H17        -3.3071   -3.9521   -0.8725 H         1 <0>         0.1290
     42 H18        -1.2076   -2.7131   -1.2020 H         1 <0>         0.1273
     43 H19        -5.6539   -2.5216    2.8777 H         1 <0>         0.1370
     44 H20        -7.7566   -3.7468    3.2121 H         1 <0>         0.1360
     45 H21        -6.9470   -6.0851   -0.2941 H         1 <0>         0.1361
     46 H22        -4.8495   -4.8512   -0.6297 H         1 <0>         0.1372
@<TRIPOS>BOND
     1    1    2 1
     2    1   26 1
     3    1   27 1
     4    1   28 1
     5    2    3 1
     6    2    4 1
     7    2   12 1
     8    4    5 1
     9    4   29 1
    10    4   30 1
    11    5    6 1
    12    5   31 1
    13    6    7 2
    14    6    8 2
    15    6    9 1
    16    9   10 1
    17    9   11 1
    18    9   32 1
    19   10   33 1
    20   10   34 1
    21   10   35 1
    22   11   36 1
    23   11   37 1
    24   11   38 1
    25   12   17 ar
    26   12   13 ar
    27   13   14 ar
    28   13   39 1
    29   14   15 ar
    30   14   40 1
    31   15   16 ar
    32   15   18 1
    33   16   17 ar
    34   16   41 1
    35   17   42 1
    36   18   23 ar
    37   18   19 ar
    38   19   20 ar
    39   19   43 1
    40   20   21 ar
    41   20   44 1
    42   21   22 ar
    43   21   24 1
    44   22   23 ar
    45   22   45 1
    46   23   46 1
    47   24   25 3
@<TRIPOS>MOLECULE
ZINC01482113
   18    17     0     0     0
SMALL
USER_CHARGES

@<TRIPOS>ATOM
      1 C1         -0.0187    1.5258    0.0104 C.3       1 <0>        -0.1000
      2 C2          0.0021   -0.0041    0.0020 C.3       1 <0>        -0.1962
      3 C3         -1.4117   -0.5257    0.0127 C.2       1 <0>         0.4893
      4 O1         -2.3491    0.2539    0.0259 O.co2     1 <0>        -0.6870
      5 O2         -1.6182   -1.7273    0.0082 O.co2     1 <0>        -0.7019
      6 C4          1.4167    2.0553   -0.0004 C.3       1 <0>        -0.0520
      7 H1          1.9535    1.6326   -0.8497 H         1 <0>         0.1269
      8 C5          1.3970    3.5578   -0.1160 C.2       1 <0>         0.4945
      9 O3          1.7295    4.2467    0.8334 O.co2     1 <0>        -0.6861
     10 O4          1.0484    4.0844   -1.1589 O.co2     1 <0>        -0.6413
     11 N1          2.0906    1.6690    1.2464 N.4       1 <0>        -0.6105
     12 H2         -0.5459    1.8868   -0.8726 H         1 <0>         0.1064
     13 H3         -0.5289    1.8773    0.9072 H         1 <0>         0.0773
     14 H4          0.5123   -0.3556   -0.8948 H         1 <0>         0.0672
     15 H5          0.5293   -0.3651    0.8851 H         1 <0>         0.0471
     16 H6          2.1039    0.6630    1.3237 H         1 <0>         0.4141
     17 H7          3.0372    2.0182    1.2392 H         1 <0>         0.4227
     18 H8          1.5937    2.0603    2.0325 H         1 <0>         0.4293
@<TRIPOS>BOND
     1    1    2 1
     2    1    6 1
     3    1   12 1
     4    1   13 1
     5    2    3 1
     6    2   14 1
     7    2   15 1
     8    3    4 2
     9    3    5 1
    10    6    7 1
    11    6    8 1
    12    6   11 1
    13    8    9 2
    14    8   10 1
    15   11   16 1
    16   11   17 1
    17   11   18 1
@<TRIPOS>MOLECULE
ZINC26378419
   19    19     0     0     0
SMALL
USER_CHARGES

@<TRIPOS>ATOM
      1 C1         -0.0187    1.5258    0.0104 C.3       1 <0>        -0.0861
      2 C2         -0.7475    2.0250   -1.2105 C.2       1 <0>         0.1567
      3 C3         -2.0514    2.3583   -1.2609 C.2       1 <0>        -0.2778
      4 C4         -2.3511    2.7771   -2.5748 C.2       1 <0>         0.5485
      5 N1         -1.2116    2.6860   -3.2928 N.am      1 <0>        -0.5743
      6 O1         -0.2019    2.2140   -2.4182 O.3       1 <0>        -0.0326
      7 O2         -3.4377    3.1518   -2.9854 O.2       1 <0>        -0.5085
      8 Cl1        -3.1717    2.2846    0.0632 Cl        1 <0>        -0.0005
      9 C5          0.0021   -0.0041    0.0020 C.3       1 <0>         0.0315
     10 H1          0.4324   -0.3564   -0.9354 H         1 <0>         0.0809
     11 C6          0.8348   -0.5015    1.1553 C.2       1 <0>         0.5052
     12 O3          0.2991   -1.0577    2.0988 O.co2     1 <0>        -0.6715
     13 O4          2.0443   -0.3478    1.1449 O.co2     1 <0>        -0.6957
     14 N2         -1.3697   -0.5131    0.1331 N.3       1 <0>        -0.8184
     15 H2          1.0039    1.9031    0.0027 H         1 <0>         0.1102
     16 H3         -0.5289    1.8773    0.9072 H         1 <0>         0.1086
     17 H4         -1.7907   -0.2000    0.9949 H         1 <0>         0.3462
     18 H5         -1.9316   -0.2469   -0.6615 H         1 <0>         0.3173
     19 H6         -1.1036    2.9056   -4.2314 H         1 <0>         0.4601
@<TRIPOS>BOND
     1    1    9 1
     2    1   15 1
     3    1   16 1
     4    1    2 1
     5    2    3 2
     6    2    6 1
     7    3    4 1
     8    3    8 1
     9    4    5 am
    10    4    7 2
    11    5    6 1
    12    5   19 1
    13    9   10 1
    14    9   11 1
    15    9   14 1
    16   11   12 2
    17   11   13 1
    18   14   17 1
    19   14   18 1
@<TRIPOS>MOLECULE
ZINC26378419
   20    20     0     0     0
SMALL
USER_CHARGES

@<TRIPOS>ATOM
      1 C1         -0.0187    1.5258    0.0104 C.3       1 <0>        -0.0668
      2 C2         -0.7475    2.0250   -1.2105 C.2       1 <0>         0.0912
      3 C3         -2.0675    2.2708   -1.2966 C.2       1 <0>        -0.2432
      4 C4         -2.3446    2.7230   -2.6060 C.2       1 <0>         0.3157
      5 N1         -1.2194    2.7426   -3.2713 N.2       1 <0>        -0.2941
      6 O1         -0.1915    2.3073   -2.3998 O.3       1 <0>        -0.0280
      7 O2         -3.5636    3.0742   -3.0882 O.3       1 <0>        -0.4408
      8 Cl1        -3.2277    2.0677   -0.0212 Cl        1 <0>        -0.0056
      9 C5          0.0021   -0.0041    0.0020 C.3       1 <0>        -0.0454
     10 H1          0.4324   -0.3564   -0.9354 H         1 <0>         0.1448
     11 C6          0.8348   -0.5015    1.1553 C.2       1 <0>         0.4928
     12 O3          0.3127   -0.7178    2.2356 O.co2     1 <0>        -0.6571
     13 O4          2.0307   -0.6877    1.0081 O.co2     1 <0>        -0.6237
     14 N2         -1.3697   -0.5131    0.1331 N.4       1 <0>        -0.6187
     15 H2          1.0039    1.9031    0.0027 H         1 <0>         0.1474
     16 H3         -0.5289    1.8773    0.9072 H         1 <0>         0.1294
     17 H4         -1.3560   -1.5220    0.1276 H         1 <0>         0.4372
     18 H5         -1.7680   -0.1869    1.0009 H         1 <0>         0.4339
     19 H6         -3.7791    4.0093   -2.9693 H         1 <0>         0.4221
     20 H7         -1.9272   -0.1801   -0.6391 H         1 <0>         0.4088
@<TRIPOS>BOND
     1    1    9 1
     2    1   15 1
     3    1   16 1
     4    1    2 1
     5    2    3 2
     6    2    6 1
     7    3    4 1
     8    3    8 1
     9    4    5 2
    10    4    7 1
    11    5    6 1
    12    7   19 1
    13    9   10 1
    14    9   11 1
    15    9   14 1
    16   11   12 2
    17   11   13 1
    18   14   17 1
    19   14   18 1
    20   14   20 1
@<TRIPOS>MOLECULE
ZINC26378419
   18    18     0     0     0
SMALL
USER_CHARGES

@<TRIPOS>ATOM
      1 C1         -0.0187    1.5258    0.0104 C.3       1 <0>        -0.0700
      2 C2         -0.7475    2.0250   -1.2105 C.2       1 <0>         0.0738
      3 C3         -2.0675    2.2708   -1.2966 C.2       1 <0>        -0.2475
      4 C4         -2.3446    2.7230   -2.6060 C.2       1 <0>         0.3766
      5 N1         -1.2194    2.7426   -3.2713 N.2       1 <0>        -0.4541
      6 O1         -0.1915    2.3073   -2.3998 O.3       1 <0>        -0.1195
      7 O2         -3.5636    3.0742   -3.0882 O.3       1 <0>        -0.7140
      8 Cl1        -3.2277    2.0677   -0.0212 Cl        1 <0>        -0.0763
      9 C5          0.0021   -0.0041    0.0020 C.3       1 <0>         0.0338
     10 H1          0.4324   -0.3564   -0.9354 H         1 <0>         0.0741
     11 C6          0.8348   -0.5015    1.1553 C.2       1 <0>         0.5076
     12 O3          0.2991   -1.0577    2.0988 O.co2     1 <0>        -0.6861
     13 O4          2.0443   -0.3478    1.1449 O.co2     1 <0>        -0.7066
     14 N2         -1.3697   -0.5131    0.1331 N.3       1 <0>        -0.8217
     15 H2          1.0039    1.9031    0.0027 H         1 <0>         0.0868
     16 H3         -0.5289    1.8773    0.9072 H         1 <0>         0.0813
     17 H4         -1.7907   -0.2000    0.9949 H         1 <0>         0.3380
     18 H5         -1.9316   -0.2469   -0.6615 H         1 <0>         0.3240
@<TRIPOS>BOND
     1    1    9 1
     2    1   15 1
     3    1   16 1
     4    1    2 1
     5    2    3 2
     6    2    6 1
     7    3    4 1
     8    3    8 1
     9    4    5 2
    10    4    7 1
    11    5    6 1
    12    9   10 1
    13    9   11 1
    14    9   14 1
    15   11   12 2
    16   11   13 1
    17   14   17 1
    18   14   18 1
@<TRIPOS>MOLECULE
ZINC26378421
   19    19     0     0     0
SMALL
USER_CHARGES

@<TRIPOS>ATOM
      1 C1         -0.0187    1.5258    0.0104 C.3       1 <0>        -0.0399
      2 C2         -0.7475    2.0250   -1.2105 C.2       1 <0>         0.1795
      3 C3         -2.0514    2.3583   -1.2609 C.2       1 <0>        -0.2832
      4 C4         -2.3511    2.7771   -2.5748 C.2       1 <0>         0.5484
      5 N1         -1.2116    2.6860   -3.2928 N.am      1 <0>        -0.5772
      6 O1         -0.2019    2.2140   -2.4182 O.3       1 <0>        -0.0218
      7 O2         -3.4377    3.1518   -2.9854 O.2       1 <0>        -0.5158
      8 Cl1        -3.1717    2.2846    0.0632 Cl        1 <0>        -0.0043
      9 C5          0.0021   -0.0041    0.0020 C.3       1 <0>         0.0235
     10 H1         -1.0175   -0.3808   -0.0798 H         1 <0>         0.0825
     11 C6          0.6216   -0.5051    1.2812 C.2       1 <0>         0.4700
     12 O3         -0.0804   -0.7232    2.2539 O.co2     1 <0>        -0.6871
     13 O4          1.8247   -0.6923    1.3434 O.co2     1 <0>        -0.6909
     14 N2          0.7922   -0.4768   -1.1426 N.3       1 <0>        -0.8326
     15 H2          1.0039    1.9031    0.0027 H         1 <0>         0.0969
     16 H3         -0.5289    1.8773    0.9072 H         1 <0>         0.1152
     17 H4          1.7421   -0.1406   -1.0899 H         1 <0>         0.3413
     18 H5          0.7679   -1.4834   -1.2077 H         1 <0>         0.3374
     19 H6         -1.1036    2.9056   -4.2314 H         1 <0>         0.4579
@<TRIPOS>BOND
     1    1    9 1
     2    1   15 1
     3    1   16 1
     4    1    2 1
     5    2    3 2
     6    2    6 1
     7    3    4 1
     8    3    8 1
     9    4    5 am
    10    4    7 2
    11    5    6 1
    12    5   19 1
    13    9   10 1
    14    9   11 1
    15    9   14 1
    16   11   12 2
    17   11   13 1
    18   14   17 1
    19   14   18 1
@<TRIPOS>MOLECULE
ZINC26378421
   20    20     0     0     0
SMALL
USER_CHARGES

@<TRIPOS>ATOM
      1 C1         -0.0187    1.5258    0.0104 C.3       1 <0>        -0.0580
      2 C2         -0.7475    2.0250   -1.2105 C.2       1 <0>         0.0579
      3 C3         -2.0675    2.2708   -1.2966 C.2       1 <0>        -0.2011
      4 C4         -2.3446    2.7230   -2.6060 C.2       1 <0>         0.3155
      5 N1         -1.2194    2.7426   -3.2713 N.2       1 <0>        -0.2977
      6 O1         -0.1915    2.3073   -2.3998 O.3       1 <0>        -0.0559
      7 O2         -3.5636    3.0742   -3.0882 O.3       1 <0>        -0.4406
      8 Cl1        -3.2277    2.0677   -0.0212 Cl        1 <0>         0.0124
      9 C5          0.0021   -0.0041    0.0020 C.3       1 <0>        -0.0468
     10 H1         -1.0175   -0.3808   -0.0798 H         1 <0>         0.1408
     11 C6          0.6216   -0.5051    1.2812 C.2       1 <0>         0.4950
     12 O3          0.0243   -0.3817    2.3369 O.co2     1 <0>        -0.6241
     13 O4          1.7200   -1.0338    1.2603 O.co2     1 <0>        -0.6621
     14 N2          0.7922   -0.4768   -1.1426 N.4       1 <0>        -0.6144
     15 H2          1.0039    1.9031    0.0027 H         1 <0>         0.1205
     16 H3         -0.5289    1.8773    0.9072 H         1 <0>         0.1505
     17 H4          0.3774   -0.1413   -1.9991 H         1 <0>         0.4128
     18 H5          1.7359   -0.1280   -1.0669 H         1 <0>         0.4355
     19 H6         -3.7791    4.0093   -2.9693 H         1 <0>         0.4220
     20 H7          0.8059   -1.4857   -1.1482 H         1 <0>         0.4378
@<TRIPOS>BOND
     1    1    9 1
     2    1   15 1
     3    1   16 1
     4    1    2 1
     5    2    3 2
     6    2    6 1
     7    3    4 1
     8    3    8 1
     9    4    5 2
    10    4    7 1
    11    5    6 1
    12    7   19 1
    13    9   10 1
    14    9   11 1
    15    9   14 1
    16   11   12 2
    17   11   13 1
    18   14   17 1
    19   14   18 1
    20   14   20 1
@<TRIPOS>MOLECULE
ZINC19943127
   19    19     0     0     0
SMALL
USER_CHARGES

@<TRIPOS>ATOM
      1 C1         -0.0187    1.5258    0.0104 C.3       1 <0>        -0.0910
      2 C2         -0.7475    2.0250   -1.2105 C.2       1 <0>         0.1840
      3 C3         -2.0514    2.3583   -1.2608 C.2       1 <0>        -0.3358
      4 C4         -2.3510    2.7774   -2.5745 C.2       1 <0>         0.5543
      5 N1         -1.2115    2.6865   -3.2925 N.am      1 <0>        -0.5749
      6 O1         -0.2020    2.2140   -2.4180 O.3       1 <0>        -0.0328
      7 O2         -3.4377    3.1516   -2.9851 O.2       1 <0>        -0.5073
      8 Br1        -3.2717    2.2776    0.1814 Br        1 <0>         0.0223
      9 C5          0.0021   -0.0041    0.0020 C.3       1 <0>         0.0322
     10 H1          0.4324   -0.3564   -0.9354 H         1 <0>         0.0809
     11 C6          0.8348   -0.5015    1.1553 C.2       1 <0>         0.5057
     12 O3          0.2991   -1.0577    2.0988 O.co2     1 <0>        -0.6704
     13 O4          2.0443   -0.3478    1.1449 O.co2     1 <0>        -0.6954
     14 N2         -1.3697   -0.5131    0.1331 N.3       1 <0>        -0.8184
     15 H2          1.0039    1.9031    0.0027 H         1 <0>         0.1118
     16 H3         -0.5289    1.8773    0.9072 H         1 <0>         0.1111
     17 H4         -1.7907   -0.2000    0.9949 H         1 <0>         0.3475
     18 H5         -1.9316   -0.2469   -0.6615 H         1 <0>         0.3169
     19 H6         -1.1035    2.9063   -4.2311 H         1 <0>         0.4590
@<TRIPOS>BOND
     1    1    9 1
     2    1   15 1
     3    1   16 1
     4    1    2 1
     5    2    3 2
     6    2    6 1
     7    3    4 1
     8    3    8 1
     9    4    5 am
    10    4    7 2
    11    5    6 1
    12    5   19 1
    13    9   10 1
    14    9   11 1
    15    9   14 1
    16   11   12 2
    17   11   13 1
    18   14   17 1
    19   14   18 1
@<TRIPOS>MOLECULE
ZINC19943127
   18    18     0     0     0
SMALL
USER_CHARGES

@<TRIPOS>ATOM
      1 C1         -0.0187    1.5258    0.0104 C.3       1 <0>        -0.0273
      2 C2         -0.7475    2.0250   -1.2105 C.2       1 <0>         0.1070
      3 C3         -2.0675    2.2708   -1.2965 C.2       1 <0>        -0.2743
      4 C4         -2.3447    2.7224   -2.6059 C.2       1 <0>         0.3827
      5 N1         -1.2195    2.7417   -3.2713 N.2       1 <0>        -0.4622
      6 O1         -0.1915    2.3073   -2.3996 O.3       1 <0>        -0.1279
      7 O2         -3.5637    3.0737   -3.0880 O.3       1 <0>        -0.7181
      8 Br1        -3.3312    2.0492    0.0926 Br        1 <0>        -0.0608
      9 C5          0.0021   -0.0041    0.0020 C.3       1 <0>         0.0307
     10 H1          0.4324   -0.3564   -0.9354 H         1 <0>         0.0736
     11 C6          0.8348   -0.5015    1.1553 C.2       1 <0>         0.4708
     12 O3          0.2991   -1.0577    2.0988 O.co2     1 <0>        -0.7017
     13 O4          2.0443   -0.3478    1.1449 O.co2     1 <0>        -0.7026
     14 N2         -1.3697   -0.5131    0.1331 N.3       1 <0>        -0.8168
     15 H2          1.0039    1.9031    0.0027 H         1 <0>         0.0832
     16 H3         -0.5289    1.8773    0.9072 H         1 <0>         0.0818
     17 H4         -1.3898   -1.5196    0.0656 H         1 <0>         0.3248
     18 H5         -1.7907   -0.2000    0.9949 H         1 <0>         0.3370
@<TRIPOS>BOND
     1    1    9 1
     2    1   15 1
     3    1   16 1
     4    1    2 1
     5    2    3 2
     6    2    6 1
     7    3    4 1
     8    3    8 1
     9    4    5 2
    10    4    7 1
    11    5    6 1
    12    9   10 1
    13    9   11 1
    14    9   14 1
    15   11   12 2
    16   11   13 1
    17   14   17 1
    18   14   18 1
@<TRIPOS>MOLECULE
ZINC00895124
   18    17     0     0     0
SMALL
USER_CHARGES

@<TRIPOS>ATOM
      1 C1         -0.0187    1.5258    0.0104 C.3       1 <0>        -0.1010
      2 C2          0.0021   -0.0041    0.0020 C.3       1 <0>        -0.1959
      3 C3         -1.4117   -0.5257    0.0127 C.2       1 <0>         0.4893
      4 O1         -2.3491    0.2539    0.0259 O.co2     1 <0>        -0.6871
      5 O2         -1.6182   -1.7273    0.0082 O.co2     1 <0>        -0.7016
      6 C4          1.4167    2.0553   -0.0004 C.3       1 <0>        -0.0510
      7 H1          1.9696    1.6236    0.8338 H         1 <0>         0.1263
      8 C5          1.3993    3.5565    0.1316 C.2       1 <0>         0.4931
      9 O3          1.4342    4.0717    1.2361 O.co2     1 <0>        -0.6465
     10 O4          1.3504    4.2557   -0.8660 O.co2     1 <0>        -0.6784
     11 N1          2.0667    1.6824   -1.2639 N.4       1 <0>        -0.6121
     12 H2         -0.5459    1.8868   -0.8726 H         1 <0>         0.0805
     13 H3         -0.5289    1.8773    0.9072 H         1 <0>         0.1026
     14 H4          0.5123   -0.3556   -0.8948 H         1 <0>         0.0475
     15 H5          0.5293   -0.3651    0.8851 H         1 <0>         0.0673
     16 H6          3.0133    2.0317   -1.2711 H         1 <0>         0.4211
     17 H7          2.0783    0.6774   -1.3524 H         1 <0>         0.4148
     18 H8          1.5549    2.0821   -2.0362 H         1 <0>         0.4310
@<TRIPOS>BOND
     1    1    2 1
     2    1    6 1
     3    1   12 1
     4    1   13 1
     5    2    3 1
     6    2   14 1
     7    2   15 1
     8    3    4 2
     9    3    5 1
    10    6    7 1
    11    6    8 1
    12    6   11 1
    13    8    9 2
    14    8   10 1
    15   11   16 1
    16   11   17 1
    17   11   18 1
@<TRIPOS>MOLECULE
ZINC08662575
   20    21     0     0     0
SMALL
USER_CHARGES

@<TRIPOS>ATOM
      1 C1         -0.0167    1.3839    0.0097 C.ar      1 <0>        -0.0629
      2 C2          1.1833    2.0914    0.0020 C.ar      1 <0>        -0.0261
      3 C3          2.4047    1.4046   -0.0133 C.ar      1 <0>         0.0013
      4 C4          2.4314    0.0433   -0.0214 C.ar      1 <0>        -0.0577
      5 C5          1.2325   -0.6870   -0.0143 C.ar      1 <0>         0.2039
      6 C6          0.0021   -0.0041    0.0020 C.ar      1 <0>         0.0788
      7 N1         -1.1855   -0.7142    0.0091 N.am      1 <0>        -0.6292
      8 C7         -1.1422   -2.0644    0.0010 C.2       1 <0>         0.4776
      9 C8          0.1685   -2.7399   -0.0151 C.2       1 <0>         0.4271
     10 N2          1.2689   -2.0352   -0.0232 N.2       1 <0>        -0.5994
     11 O1          0.2319   -4.0926   -0.0230 O.3       1 <0>        -0.5986
     12 O2         -2.1711   -2.7145    0.0073 O.2       1 <0>        -0.5067
     13 N3          3.6750    2.1645   -0.0214 N.pl3     1 <0>         0.0371
     14 O3          4.7312    1.5764   -0.0346 O.2       1 <0>        -0.1516
     15 O4          3.6563    3.3733   -0.0147 O.3       1 <0>        -0.1710
     16 C9          1.1687    3.5233    0.0093 C.1       1 <0>         0.2573
     17 N4          1.1571    4.6592    0.0152 N.1       1 <0>        -0.4011
     18 H1         -0.9580    1.9132    0.0260 H         1 <0>         0.1477
     19 H2          3.3781   -0.4763   -0.0335 H         1 <0>         0.1666
     20 H3         -2.0367   -0.2493    0.0200 H         1 <0>         0.4071
@<TRIPOS>BOND
     1    1    6 ar
     2    1    2 ar
     3    1   18 1
     4    2    3 ar
     5    2   16 1
     6    3    4 ar
     7    3   13 1
     8    4    5 ar
     9    4   19 1
    10    5   10 1
    11    5    6 ar
    12    6    7 1
    13    7    8 am
    14    7   20 1
    15    8    9 1
    16    8   12 2
    17    9   10 2
    18    9   11 1
    19   13   14 2
    20   13   15 1
    21   16   17 3
