@<TRIPOS>MOLECULE
ZINC18118278
   22    23     0     0     0
SMALL
USER_CHARGES

@<TRIPOS>ATOM
      1 C1          0.0496    1.1063    0.6344 C.ar      1 <0>        -0.0815
      2 C2          0.8293    1.9861   -0.1610 C.ar      1 <0>         0.4075
      3 N1          0.4596    3.2355   -0.3488 N.am      1 <0>        -0.4279
      4 C3          1.2172    4.0533   -1.1085 C.2       1 <0>         0.4679
      5 O1          0.8827    5.2069   -1.2858 O.2       1 <0>        -0.1860
      6 C4          2.4726    3.5290   -1.7307 C.2       1 <0>         0.4680
      7 O2          3.1640    4.2540   -2.4164 O.2       1 <0>        -0.1859
      8 N2          2.8311    2.2450   -1.5240 N.am      1 <0>        -0.4280
      9 C5          2.0762    1.4654   -0.7789 C.ar      1 <0>         0.4074
     10 C6          2.4324    0.1113   -0.5464 C.ar      1 <0>        -0.0816
     11 C7          1.6375   -0.6655    0.2237 C.ar      1 <0>         0.1372
     12 C8          0.4549   -0.1716    0.8097 C.ar      1 <0>         0.1371
     13 N3         -0.3677   -1.0785    1.6416 N.pl3     1 <0>        -0.0219
     14 O3         -1.5741   -1.0221    1.5858 O.2       1 <0>        -0.0173
     15 O4          0.1668   -1.8755    2.3769 O.3       1 <0>        -0.0340
     16 N4          2.0208   -2.0759    0.4581 N.pl3     1 <0>        -0.0219
     17 O5          3.1825   -2.3672    0.6234 O.2       1 <0>        -0.0173
     18 O6          1.1722   -2.9366    0.4842 O.3       1 <0>        -0.0339
     19 H1         -0.8595    1.4568    1.1003 H         1 <0>         0.2615
     20 H2          3.3326   -0.2963   -0.9822 H         1 <0>         0.2615
     21 H3         -0.3561    3.5673    0.0580 H         1 <0>         0.4946
     22 H4          3.6434    1.8969   -1.9239 H         1 <0>         0.4946
@<TRIPOS>BOND
     1    1   12 ar
     2    1    2 ar
     3    1   19 1
     4    2    9 ar
     5    2    3 2
     6    3    4 am
     7    3   21 1
     8    4    5 2
     9    4    6 1
    10    6    7 2
    11    6    8 am
    12    8    9 2
    13    8   22 1
    14    9   10 ar
    15   10   11 ar
    16   10   20 1
    17   11   12 ar
    18   11   16 1
    19   12   13 1
    20   13   14 2
    21   13   15 1
    22   16   17 2
    23   16   18 1
@<TRIPOS>MOLECULE
ZINC18118278
   21    22     0     0     0
SMALL
USER_CHARGES

@<TRIPOS>ATOM
      1 C1          0.0417    1.2522    0.5309 C.ar      1 <0>        -0.0473
      2 C2          0.8780    2.0146   -0.2789 C.ar      1 <0>         0.0748
      3 C3          2.0479    1.4409   -0.8068 C.ar      1 <0>         0.2260
      4 C4          2.3544    0.1053   -0.5080 C.ar      1 <0>        -0.0622
      5 C5          1.5202   -0.6244    0.2883 C.ar      1 <0>         0.0219
      6 C6          0.3650   -0.0580    0.8097 C.ar      1 <0>        -0.0602
      7 N1         -0.5259   -0.8673    1.6712 N.pl3     1 <0>         0.0426
      8 O1         -1.7257   -0.7484    1.5809 O.2       1 <0>        -0.1529
      9 O2         -0.0539   -1.6473    2.4653 O.3       1 <0>        -0.1493
     10 N2          1.8502   -2.0336    0.5987 N.pl3     1 <0>         0.0304
     11 O3          2.9984   -2.3560    0.7971 O.2       1 <0>        -0.1355
     12 O4          0.9715   -2.8622    0.6539 O.3       1 <0>        -0.1417
     13 N3          2.8727    2.1624   -1.5937 N.2       1 <0>        -0.5947
     14 C7          2.6068    3.4079   -1.8848 C.2       1 <0>         0.4324
     15 O5          3.4503    4.1124   -2.6771 O.3       1 <0>        -0.5802
     16 C8          1.3904    4.0475   -1.3530 C.2       1 <0>         0.4795
     17 O6          1.1361    5.2074   -1.6209 O.2       1 <0>        -0.4979
     18 N4          0.5617    3.3300   -0.5634 N.am      1 <0>        -0.6270
     19 H1         -0.2442    3.7314   -0.2024 H         1 <0>         0.4104
     20 H2         -0.8563    1.6877    0.9435 H         1 <0>         0.1592
     21 H3          3.2502   -0.3457   -0.9085 H         1 <0>         0.1717
@<TRIPOS>BOND
     1    1    6 ar
     2    1    2 ar
     3    1   20 1
     4    2   18 1
     5    2    3 ar
     6    3    4 ar
     7    3   13 1
     8    4    5 ar
     9    4   21 1
    10    5    6 ar
    11    5   10 1
    12    6    7 1
    13    7    8 2
    14    7    9 1
    15   10   11 2
    16   10   12 1
    17   13   14 2
    18   14   15 1
    19   14   16 1
    20   16   17 2
    21   16   18 am
    22   18   19 1
@<TRIPOS>MOLECULE
ZINC18118278
   22    23     0     0     0
SMALL
USER_CHARGES

@<TRIPOS>ATOM
      1 C1          0.0382    1.2610    0.5152 C.ar      1 <0>        -0.0552
      2 C2          0.8758    2.0183   -0.2964 C.ar      1 <0>         0.1719
      3 C3          2.0393    1.4471   -0.8145 C.ar      1 <0>         0.1720
      4 C4          2.3510    0.1254   -0.5146 C.ar      1 <0>        -0.0553
      5 C5          1.5125   -0.6159    0.2921 C.ar      1 <0>         0.0166
      6 C6          0.3581   -0.0491    0.8060 C.ar      1 <0>         0.0165
      7 N1         -0.5357   -0.8520    1.6707 N.pl3     1 <0>         0.0206
      8 O1         -1.7351   -0.7324    1.5766 O.2       1 <0>        -0.1120
      9 O2         -0.0664   -1.6272    2.4709 O.3       1 <0>        -0.1151
     10 N2          1.8476   -2.0224    0.6091 N.pl3     1 <0>         0.0206
     11 O3          2.9970   -2.3396    0.8090 O.2       1 <0>        -0.1120
     12 O4          0.9720   -2.8539    0.6680 O.3       1 <0>        -0.1151
     13 N3          2.8903    2.1887   -1.6291 N.am      1 <0>        -0.6303
     14 C7          2.5958    3.4709   -1.9250 C.2       1 <0>         0.5137
     15 C8          1.3528    4.0814   -1.3711 C.2       1 <0>         0.5137
     16 N4          0.5461    3.3396   -0.5854 N.am      1 <0>        -0.6303
     17 O5          1.0696    5.2348   -1.6257 O.2       1 <0>        -0.4318
     18 O6          3.3354    4.1221   -2.6351 O.2       1 <0>        -0.4318
     19 H1         -0.8610    1.7001    0.9216 H         1 <0>         0.1865
     20 H2          3.2498   -0.3211   -0.9137 H         1 <0>         0.1866
     21 H3          3.6965    1.7826   -1.9842 H         1 <0>         0.4351
     22 H4         -0.2650    3.7271   -0.2210 H         1 <0>         0.4351
@<TRIPOS>BOND
     1    1    6 ar
     2    1    2 ar
     3    1   19 1
     4    2   16 1
     5    2    3 ar
     6    3    4 ar
     7    3   13 1
     8    4    5 ar
     9    4   20 1
    10    5    6 ar
    11    5   10 1
    12    6    7 1
    13    7    8 2
    14    7    9 1
    15   10   11 2
    16   10   12 1
    17   13   14 am
    18   13   21 1
    19   14   15 1
    20   14   18 2
    21   15   16 am
    22   15   17 2
    23   16   22 1
@<TRIPOS>MOLECULE
ZINC14951272
   26    28     0     0     0
SMALL
USER_CHARGES

@<TRIPOS>ATOM
      1 C1         -0.0425    0.5463   -0.5268 C.2       1 <0>        -0.0251
      2 C2          1.2091    0.3392   -0.9779 C.2       1 <0>        -0.0516
      3 N1          2.0613    0.7198    0.0267 N.pl3     1 <0>        -0.4127
      4 C3          1.2915    1.1481    1.0610 C.2       1 <0>         0.2332
      5 N2          0.0370    1.0395    0.7180 N.2       1 <0>        -0.4915
      6 C4          3.4606    0.6754   -0.0071 C.ar      1 <0>         0.1187
      7 C5          4.1483    1.3667   -0.9903 C.ar      1 <0>        -0.1065
      8 C6          5.5365    1.3226   -1.0230 C.ar      1 <0>         0.0977
      9 C7          6.2341    0.5752   -0.0560 C.ar      1 <0>         0.1863
     10 C8          5.5167   -0.1173    0.9310 C.ar      1 <0>        -0.0500
     11 C9          4.1546   -0.0598    0.9528 C.ar      1 <0>        -0.0329
     12 N3          3.4061   -0.7891    2.0011 N.pl3     1 <0>         0.0380
     13 O1          4.0014   -1.3281    2.9048 O.2       1 <0>        -0.1603
     14 O2          2.1993   -0.8457    1.9536 O.3       1 <0>        -0.1597
     15 N4          7.5814    0.5210   -0.0713 N.2       1 <0>        -0.5990
     16 C10         8.2711    1.1575   -0.9804 C.2       1 <0>         0.4239
     17 O3          9.6246    1.0871   -0.9750 O.3       1 <0>        -0.6032
     18 C11         7.5808    1.9508   -2.0111 C.2       1 <0>         0.4780
     19 O4          8.2180    2.5461   -2.8607 O.2       1 <0>        -0.5055
     20 N5          6.2312    2.0102   -2.0011 N.am      1 <0>        -0.6289
     21 H1          5.7564    2.5270   -2.6707 H         1 <0>         0.4062
     22 H2         -0.9531    0.3530   -1.0745 H         1 <0>         0.1689
     23 H3          1.4883   -0.0519   -1.9451 H         1 <0>         0.1709
     24 H4          1.6565    1.5167    2.0083 H         1 <0>         0.1937
     25 H5          3.6070    1.9381   -1.7299 H         1 <0>         0.1453
     26 H6          6.0442   -0.6933    1.6769 H         1 <0>         0.1660
@<TRIPOS>BOND
     1    1    5 1
     2    1    2 2
     3    1   22 1
     4    2    3 1
     5    2   23 1
     6    3    4 1
     7    3    6 1
     8    4    5 2
     9    4   24 1
    10    6   11 ar
    11    6    7 ar
    12    7    8 ar
    13    7   25 1
    14    8   20 1
    15    8    9 ar
    16    9   10 ar
    17    9   15 1
    18   10   11 ar
    19   10   26 1
    20   11   12 1
    21   12   13 2
    22   12   14 1
    23   15   16 2
    24   16   17 1
    25   16   18 1
    26   18   19 2
    27   18   20 am
    28   20   21 1
@<TRIPOS>MOLECULE
ZINC14951272
   26    28     0     0     0
SMALL
USER_CHARGES

@<TRIPOS>ATOM
      1 C1          0.0021    1.0261    0.6815 C.2       1 <0>        -0.0328
      2 C2          1.2851    1.1518    1.0710 C.2       1 <0>        -0.0035
      3 N1          2.0612    0.7200    0.0269 N.pl3     1 <0>        -0.4186
      4 C3          1.2169    0.3440   -0.9683 C.2       1 <0>         0.1943
      5 N2         -0.0103    0.5316   -0.5652 N.2       1 <0>        -0.4866
      6 C4          3.4631    0.6752   -0.0075 C.ar      1 <0>         0.1872
      7 C5          4.1483    1.3642   -0.9882 C.ar      1 <0>        -0.1214
      8 C6          5.5486    1.3201   -1.0226 C.ar      1 <0>         0.2401
      9 C7          6.2409    0.5716   -0.0537 C.ar      1 <0>         0.0483
     10 C8          5.5325   -0.1160    0.9268 C.ar      1 <0>        -0.0431
     11 C9          4.1569   -0.0597    0.9520 C.ar      1 <0>        -0.1014
     12 N3          3.4100   -0.7888    2.0017 N.pl3     1 <0>         0.0519
     13 O1          4.0069   -1.3273    2.9047 O.2       1 <0>        -0.1911
     14 O2          2.2033   -0.8458    1.9559 O.3       1 <0>        -0.1636
     15 N4          7.6231    0.5201   -0.0760 N.am      1 <0>        -0.6298
     16 C10         8.2893    1.1961   -1.0371 C.2       1 <0>         0.4781
     17 C11         7.5249    1.9678   -2.0326 C.2       1 <0>         0.4315
     18 N5          6.2198    1.9933   -1.9802 N.2       1 <0>        -0.6005
     19 O3          8.1765    2.6523   -3.0035 O.3       1 <0>        -0.5880
     20 O4          9.5056    1.1685   -1.0799 O.2       1 <0>        -0.5063
     21 H1         -0.8666    1.2759    1.2725 H         1 <0>         0.1696
     22 H2          1.6353    1.5219    2.0233 H         1 <0>         0.1635
     23 H3          1.5115   -0.0444   -1.9320 H         1 <0>         0.2051
     24 H4          3.6064    1.9355   -1.7274 H         1 <0>         0.1574
     25 H5          6.0625   -0.6912    1.6715 H         1 <0>         0.1524
     26 H6          8.1069    0.0062    0.5893 H         1 <0>         0.4074
@<TRIPOS>BOND
     1    1    5 1
     2    1    2 2
     3    1   21 1
     4    2    3 1
     5    2   22 1
     6    3    4 1
     7    3    6 1
     8    4    5 2
     9    4   23 1
    10    6   11 ar
    11    6    7 ar
    12    7    8 ar
    13    7   24 1
    14    8   18 1
    15    8    9 ar
    16    9   10 ar
    17    9   15 1
    18   10   11 ar
    19   10   25 1
    20   11   12 1
    21   12   13 2
    22   12   14 1
    23   15   16 am
    24   15   26 1
    25   16   17 1
    26   16   20 2
    27   17   18 2
    28   17   19 1
@<TRIPOS>MOLECULE
ZINC14951272
   27    29     0     0     0
SMALL
USER_CHARGES

@<TRIPOS>ATOM
      1 C1         -0.0420    0.5400   -0.5314 C.2       1 <0>        -0.0063
      2 C2          1.2106    0.3345   -0.9812 C.2       1 <0>        -0.0534
      3 N1          2.0611    0.7160    0.0240 N.pl3     1 <0>        -0.4382
      4 C3          1.2902    1.1432    1.0573 C.2       1 <0>         0.2377
      5 N2          0.0358    1.0332    0.7134 N.2       1 <0>        -0.4758
      6 C4          3.4628    0.6732   -0.0086 C.ar      1 <0>         0.2086
      7 C5          4.1533    1.3638   -0.9916 C.ar      1 <0>        -0.1178
      8 C6          5.5416    1.3220   -1.0247 C.ar      1 <0>         0.1918
      9 C7          6.2365    0.5821   -0.0651 C.ar      1 <0>         0.1277
     10 C8          5.5350   -0.1082    0.9174 C.ar      1 <0>        -0.0389
     11 C9          4.1572   -0.0574    0.9489 C.ar      1 <0>        -0.0426
     12 N3          3.4154   -0.7886    2.0007 N.pl3     1 <0>         0.0306
     13 O1          4.0164   -1.3259    2.9017 O.2       1 <0>        -0.1407
     14 O2          2.2087   -0.8485    1.9587 O.3       1 <0>        -0.1333
     15 N4          7.6280    0.5288   -0.0836 N.am      1 <0>        -0.6314
     16 C10         8.3177    1.1945   -1.0320 C.2       1 <0>         0.5123
     17 C11         7.5754    1.9847   -2.0560 C.2       1 <0>         0.5126
     18 N5          6.2281    2.0184   -2.0154 N.am      1 <0>        -0.6326
     19 O3          8.1785    2.5911   -2.9184 O.2       1 <0>        -0.4391
     20 O4          9.5315    1.1512   -1.0518 O.2       1 <0>        -0.4434
     21 H1         -0.9518    0.3457   -1.0799 H         1 <0>         0.1777
     22 H2          1.4912   -0.0559   -1.9483 H         1 <0>         0.1790
     23 H3          1.6541    1.5121    2.0049 H         1 <0>         0.2004
     24 H4          3.6123    1.9341   -1.7322 H         1 <0>         0.1717
     25 H5          6.0704   -0.6814    1.6599 H         1 <0>         0.1797
     26 H6          5.7364    2.5291   -2.6775 H         1 <0>         0.4318
     27 H7          8.1018    0.0124    0.5870 H         1 <0>         0.4319
@<TRIPOS>BOND
     1    1    5 1
     2    1    2 2
     3    1   21 1
     4    2    3 1
     5    2   22 1
     6    3    4 1
     7    3    6 1
     8    4    5 2
     9    4   23 1
    10    6   11 ar
    11    6    7 ar
    12    7    8 ar
    13    7   24 1
    14    8   18 1
    15    8    9 ar
    16    9   10 ar
    17    9   15 1
    18   10   11 ar
    19   10   25 1
    20   11   12 1
    21   12   13 2
    22   12   14 1
    23   15   16 am
    24   15   27 1
    25   16   17 1
    26   16   20 2
    27   17   18 am
    28   17   19 2
    29   18   26 1
@<TRIPOS>MOLECULE
ZINC14951272
   26    28     0     0     0
SMALL
USER_CHARGES
6-imidazol-1-yl-7-nitro-quinoxaline-2,3-dione
@<TRIPOS>ATOM
      1 C1         -0.9692    2.3670   -0.5011 C.2       1 <0>         0.0203
      2 C2          0.1710    1.8137   -0.9544 C.2       1 <0>         0.0322
      3 N1          1.1010    1.9441    0.0456 N.pl3     1 <0>        -0.3920
      4 C3          0.4856    2.5787    1.0814 C.cat     1 <0>         0.3472
      5 C4          2.4211    1.5101    0.0089 C.ar      1 <0>         0.1649
      6 C5          3.2440    1.9712   -0.9737 C.ar      1 <0>        -0.0242
      7 C6          4.5864    1.5528   -1.0315 C.ar      1 <0>         0.2441
      8 N2          5.3912    2.0023   -1.9805 N.2       1 <0>        -0.4313
      9 C7          6.6689    1.5908   -2.0264 C.2       1 <0>         0.4244
     10 O1          7.4122    2.0008   -2.8957 O.2       1 <0>        -0.2992
     11 C8          7.1712    0.6250   -1.0008 C.2       1 <0>         0.4198
     12 O2          8.3236    0.2452   -1.0318 O.2       1 <0>        -0.2904
     13 N3          6.3332    0.1780   -0.0399 N.2       1 <0>        -0.4107
     14 C9          5.0867    0.5932   -0.0128 C.ar      1 <0>         0.2261
     15 C10         4.1626    0.1193    1.0230 C.ar      1 <0>         0.0707
     16 C11         2.8885    0.5661    1.0223 C.ar      1 <0>        -0.0270
     17 N4          1.9499    0.0920    2.0641 N.pl3     1 <0>         0.0210
     18 O3          2.3570   -0.5958    2.9831 O.2       1 <0>        -0.0756
     19 O4          0.7705    0.3898    2.0022 O.3       1 <0>        -0.1704
     20 H1         -1.9008    2.4314   -1.0437 H         1 <0>         0.2316
     21 H2          0.3244    1.3552   -1.9202 H         1 <0>         0.2287
     22 H3          0.9431    2.8349    2.0255 H         1 <0>         0.2572
     23 H4          2.8653    2.6649   -1.7098 H         1 <0>         0.1988
     24 H5          4.4972   -0.5779    1.7768 H         1 <0>         0.2143
     25 N5         -0.7504    2.8198    0.7433 N.pl3     1 <0>        -0.4696
     26 H6         -1.4480    3.2838    1.3368 H         1 <0>         0.4890
@<TRIPOS>BOND
     1    1    2 2
     2    1   20 1
     3    1   25 1
     4    2    3 1
     5    2   21 1
     6    3    4 1
     7    3    5 1
     8    4   22 1
     9    4   25 2
    10    5   16 ar
    11    5    6 ar
    12    6    7 ar
    13    6   23 1
    14    7   14 ar
    15    7    8 2
    16    8    9 1
    17    9   10 2
    18    9   11 1
    19   11   12 2
    20   11   13 1
    21   13   14 2
    22   14   15 ar
    23   15   16 ar
    24   15   24 1
    25   16   17 1
    26   17   18 2
    27   17   19 1
    28   25   26 1
@<TRIPOS>MOLECULE
ZINC19850499
   22    22     0     0     0
SMALL
USER_CHARGES

@<TRIPOS>ATOM
      1 C1         -0.0127    1.0858    0.0080 C.3       1 <0>        -0.0876
      2 C2         -0.7416    1.5850   -1.2129 C.2       1 <0>         0.0641
      3 C3         -2.0612    1.8307   -1.2988 C.2       1 <0>        -0.3438
      4 C4         -2.3386    2.2827   -2.6074 C.2       1 <0>         0.3550
      5 N1         -1.2135    2.3025   -3.2730 N.2       1 <0>        -0.4446
      6 O1         -0.1856    1.8672   -2.4015 O.3       1 <0>        -0.1265
      7 O2         -3.5577    2.6341   -3.0892 O.3       1 <0>        -0.7249
      8 C5         -3.0681    1.6536   -0.1917 C.3       1 <0>        -0.0323
      9 C6         -3.1832    2.9541    0.6060 C.3       1 <0>        -0.0363
     10 H1         -2.1961    3.2519    0.9598 H         1 <0>         0.1199
     11 C7         -4.0964    2.7408    1.7856 C.2       1 <0>         0.4926
     12 O3         -3.6379    2.3667    2.8516 O.co2     1 <0>        -0.6522
     13 O4         -5.2936    2.9424    1.6740 O.co2     1 <0>        -0.6738
     14 N2         -3.7337    4.0095   -0.2549 N.4       1 <0>        -0.6054
     15 H2          0.0021   -0.0041    0.0020 H         1 <0>         0.0828
     16 H3          1.0099    1.4631    0.0003 H         1 <0>         0.0752
     17 H4         -0.5229    1.4373    0.9048 H         1 <0>         0.0860
     18 H5         -4.0386    1.4030   -0.6199 H         1 <0>         0.0863
     19 H6         -2.7440    0.8496    0.4691 H         1 <0>         0.0924
     20 H7         -3.8095    4.8672    0.2711 H         1 <0>         0.4148
     21 H8         -3.1222    4.1523   -1.0447 H         1 <0>         0.4233
     22 H9         -4.6474    3.7339   -0.5824 H         1 <0>         0.4348
@<TRIPOS>BOND
     1    1   15 1
     2    1   16 1
     3    1   17 1
     4    1    2 1
     5    2    3 2
     6    2    6 1
     7    3    4 1
     8    3    8 1
     9    4    5 2
    10    4    7 1
    11    5    6 1
    12    8    9 1
    13    8   18 1
    14    8   19 1
    15    9   10 1
    16    9   11 1
    17    9   14 1
    18   11   12 2
    19   11   13 1
    20   14   20 1
    21   14   21 1
    22   14   22 1
@<TRIPOS>MOLECULE
ZINC19850502
   22    22     0     0     0
SMALL
USER_CHARGES

@<TRIPOS>ATOM
      1 C1         -0.0127    1.0858    0.0080 C.3       1 <0>        -0.0839
      2 C2         -0.7416    1.5850   -1.2129 C.2       1 <0>         0.0174
      3 C3         -2.0612    1.8307   -1.2988 C.2       1 <0>        -0.3158
      4 C4         -2.3386    2.2827   -2.6074 C.2       1 <0>         0.3643
      5 N1         -1.2135    2.3025   -3.2730 N.2       1 <0>        -0.4463
      6 O1         -0.1856    1.8672   -2.4015 O.3       1 <0>        -0.1249
      7 O2         -3.5577    2.6341   -3.0892 O.3       1 <0>        -0.7045
      8 C5         -3.0681    1.6536   -0.1917 C.3       1 <0>        -0.0320
      9 C6         -3.1832    2.9541    0.6060 C.3       1 <0>        -0.0405
     10 H1         -3.4207    3.7753   -0.0703 H         1 <0>         0.1345
     11 C7         -4.2765    2.8178    1.6341 C.2       1 <0>         0.4959
     12 O3         -3.9950    2.7558    2.8188 O.co2     1 <0>        -0.6885
     13 O4         -5.4426    2.7696    1.2813 O.co2     1 <0>        -0.6350
     14 N2         -1.9077    3.2290    1.2810 N.4       1 <0>        -0.6115
     15 H2          0.0021   -0.0041    0.0020 H         1 <0>         0.0906
     16 H3          1.0099    1.4631    0.0003 H         1 <0>         0.0828
     17 H4         -0.5229    1.4373    0.9048 H         1 <0>         0.0560
     18 H5         -4.0386    1.4030   -0.6199 H         1 <0>         0.1129
     19 H6         -2.7440    0.8496    0.4691 H         1 <0>         0.0690
     20 H7         -1.1757    3.3203    0.5926 H         1 <0>         0.4130
     21 H8         -1.9836    4.0867    1.8070 H         1 <0>         0.4241
     22 H9         -1.6879    2.4688    1.9070 H         1 <0>         0.4225
@<TRIPOS>BOND
     1    1   15 1
     2    1   16 1
     3    1   17 1
     4    1    2 1
     5    2    3 2
     6    2    6 1
     7    3    4 1
     8    3    8 1
     9    4    5 2
    10    4    7 1
    11    5    6 1
    12    8    9 1
    13    8   18 1
    14    8   19 1
    15    9   10 1
    16    9   11 1
    17    9   14 1
    18   11   12 2
    19   11   13 1
    20   14   20 1
    21   14   21 1
    22   14   22 1
@<TRIPOS>MOLECULE
ZINC05426033
   22    22     0     0     0
SMALL
USER_CHARGES
3-(carboxymethyl)pyrrolidine-2-carboxylic acid
@<TRIPOS>ATOM
      1 C1         -0.0189    1.5389    0.0105 C.3       1 <0>        -0.1308
      2 C2          0.0021   -0.0041    0.0020 C.3       1 <0>        -0.0075
      3 C3          2.0771    0.7912   -0.8979 C.3       1 <0>        -0.0260
      4 H1          1.9393    1.0367   -1.9509 H         1 <0>         0.1350
      5 C4          1.4877    1.9090   -0.0019 C.3       1 <0>        -0.0568
      6 H2          1.9085    1.8666    1.0027 H         1 <0>         0.0974
      7 C5          1.7084    3.2872   -0.6285 C.3       1 <0>        -0.1490
      8 C6          1.0957    4.3442    0.2538 C.2       1 <0>         0.4649
      9 O1          0.5395    4.0276    1.2786 O.co2     1 <0>        -0.6440
     10 C7          3.5388    0.5895   -0.5918 C.2       1 <0>         0.4656
     11 O2          3.8823   -0.2883    0.1640 O.co2     1 <0>        -0.6274
     12 H3         -0.5172    1.9225   -0.8798 H         1 <0>         0.0854
     13 H4         -0.5001    1.9129    0.9142 H         1 <0>         0.1181
     14 H5         -0.1103   -0.3820    1.0182 H         1 <0>         0.1202
     15 H6         -0.8031   -0.3824   -0.6278 H         1 <0>         0.1181
     16 H7          2.7777    3.4734   -0.7296 H         1 <0>         0.0901
     17 H8          1.2397    3.3184   -1.6121 H         1 <0>         0.0678
     18 N1          1.3038   -0.4143   -0.5460 N.4       1 <0>        -0.5009
     19 H9          1.1590   -0.9876   -1.3853 H         1 <0>         0.4171
     20 H10         1.8169   -0.9595    0.1567 H         1 <0>         0.4307
     21 O3          1.1678    5.6373   -0.0989 O.co2     1 <0>        -0.7677
     22 O4          4.4593    1.3851   -1.1589 O.co2     1 <0>        -0.7002
@<TRIPOS>BOND
     1    1    5 1
     2    1    2 1
     3    1   12 1
     4    1   13 1
     5    2   14 1
     6    2   15 1
     7    2   18 1
     8    3    4 1
     9    3    5 1
    10    3   10 1
    11    3   18 1
    12    5    6 1
    13    5    7 1
    14    7    8 1
    15    7   16 1
    16    7   17 1
    17    8    9 2
    18    8   21 1
    19   10   11 2
    20   10   22 1
    21   18   19 1
    22   18   20 1
@<TRIPOS>MOLECULE
ZINC08585017
   31    33     0     0     0
SMALL
USER_CHARGES

@<TRIPOS>ATOM
      1 C1          0.2332    1.3841    0.6570 C.ar      1 <0>        -0.1163
      2 C2          1.3450    2.1030    0.3352 C.ar      1 <0>        -0.0461
      3 C3          2.5286    1.4337   -0.0104 C.ar      1 <0>        -0.0508
      4 C4          2.5507    0.0178   -0.0197 C.ar      1 <0>         0.0703
      5 C5          1.3858   -0.6903    0.3181 C.ar      1 <0>        -0.6623
      6 C6          0.2539   -0.0082    0.6481 C.ar      1 <0>         0.0100
      7 S1          1.3881   -2.4523    0.3133 S.o2      1 <0>         2.6604
      8 O1          1.2671   -2.8548   -1.0441 O.2       1 <0>        -0.9037
      9 O2          2.4738   -2.8593    1.1348 O.2       1 <0>        -0.9426
     10 N1          0.0047   -2.9457    1.0783 N.pl3     1 <0>        -1.2465
     11 C7          3.7370   -0.6553   -0.3670 C.ar      1 <0>        -0.0313
     12 C8          4.8514    0.0498   -0.6900 C.ar      1 <0>        -0.0208
     13 C9          4.8498    1.4521   -0.6862 C.ar      1 <0>         0.1138
     14 C10         3.6989    2.1491   -0.3497 C.ar      1 <0>         0.1787
     15 N2          3.6832    3.5358   -0.3424 N.am      1 <0>        -0.6274
     16 H1          2.8706    4.0090   -0.1045 H         1 <0>         0.4261
     17 C11         4.7946    4.2283   -0.6646 C.2       1 <0>         0.5118
     18 O3          4.7862    5.4433   -0.6593 O.2       1 <0>        -0.4441
     19 C12         6.0334    3.4831   -1.0268 C.2       1 <0>         0.5112
     20 O4          7.0481    4.0831   -1.3210 O.2       1 <0>        -0.4495
     21 N3          6.0144    2.1351   -1.0235 N.am      1 <0>        -0.6258
     22 H2          6.8149    1.6397   -1.2576 H         1 <0>         0.4304
     23 N4          3.7698   -2.1354   -0.3796 N.pl3     1 <0>        -0.0336
     24 O5          4.3500   -2.7346    0.4957 O.2       1 <0>        -0.0101
     25 O6          3.2166   -2.7448   -1.2651 O.3       1 <0>        -0.1547
     26 H3         -0.6756    1.9014    0.9270 H         1 <0>         0.1537
     27 H4          1.3152    3.1825    0.3457 H         1 <0>         0.1466
     28 H5         -0.6405   -0.5552    0.9075 H         1 <0>         0.1465
     29 H6         -0.6187   -2.2884    1.4249 H         1 <0>         0.4109
     30 H7         -0.1821   -3.8921    1.1798 H         1 <0>         0.4276
     31 H8          5.7553   -0.4788   -0.9543 H         1 <0>         0.1677
@<TRIPOS>BOND
     1    1    6 ar
     2    1    2 ar
     3    1   26 1
     4    2    3 ar
     5    2   27 1
     6    3   14 ar
     7    3    4 ar
     8    4    5 ar
     9    4   11 ar
    10    5    6 ar
    11    5    7 1
    12    6   28 1
    13    7    8 2
    14    7    9 2
    15    7   10 1
    16   10   29 1
    17   10   30 1
    18   11   12 ar
    19   11   23 1
    20   12   13 ar
    21   12   31 1
    22   13   21 1
    23   13   14 ar
    24   14   15 1
    25   15   16 1
    26   15   17 am
    27   17   18 2
    28   17   19 1
    29   19   20 2
    30   19   21 am
    31   21   22 1
    32   23   24 2
    33   23   25 1
@<TRIPOS>MOLECULE
ZINC08585017
   30    32     0     0     0
SMALL
USER_CHARGES

@<TRIPOS>ATOM
      1 C1         -0.6276    0.4370   -1.7736 C.ar      1 <0>        -0.1731
      2 C2          0.3567    1.2003   -2.3318 C.ar      1 <0>         0.0069
      3 C3          1.6968    0.8795   -2.0978 C.ar      1 <0>        -0.0630
      4 C4          2.0190   -0.2327   -1.2850 C.ar      1 <0>         0.0918
      5 C5          0.9824   -0.9962   -0.7260 C.ar      1 <0>        -0.6997
      6 C6         -0.3146   -0.6572   -0.9739 C.ar      1 <0>         0.0068
      7 S1          1.3554   -2.3868    0.2896 S.o2      1 <0>         2.6622
      8 O1          1.7041   -3.4487   -0.5879 O.2       1 <0>        -0.9158
      9 O2          2.2299   -1.9224    1.3088 O.2       1 <0>        -0.9452
     10 N1         -0.0506   -2.8358    1.0407 N.pl3     1 <0>        -1.2459
     11 C7          3.3708   -0.5559   -1.0503 C.ar      1 <0>        -0.1204
     12 C8          4.3691    0.1831   -1.5919 C.ar      1 <0>         0.0054
     13 C9          4.1065    1.2943   -2.4040 C.ar      1 <0>        -0.0110
     14 C10         2.7853    1.6709   -2.6771 C.ar      1 <0>         0.2503
     15 N2          2.5158    2.7321   -3.4521 N.2       1 <0>        -0.5968
     16 C11         3.4796    3.4477   -3.9760 C.2       1 <0>         0.4326
     17 O3          3.1851    4.5165   -4.7560 O.3       1 <0>        -0.5869
     18 C12         4.8815    3.0897   -3.7160 C.2       1 <0>         0.4736
     19 O4          5.7864    3.7475   -4.1978 O.2       1 <0>        -0.5174
     20 N3          5.1522    2.0207   -2.9364 N.am      1 <0>        -0.6182
     21 H1          6.0702    1.7673   -2.7519 H         1 <0>         0.4056
     22 N4          3.7049   -1.7200   -0.1990 N.pl3     1 <0>        -0.0190
     23 O5          4.1212   -1.5487    0.9230 O.2       1 <0>        -0.0412
     24 O6          3.5614   -2.8420   -0.6258 O.3       1 <0>        -0.1772
     25 H2         -1.6628    0.6885   -1.9514 H         1 <0>         0.1355
     26 H3          0.1015    2.0474   -2.9513 H         1 <0>         0.1531
     27 H4         -1.1104   -1.2463   -0.5426 H         1 <0>         0.1338
     28 H5         -0.4520   -3.6967    0.8440 H         1 <0>         0.4197
     29 H6         -0.4727   -2.2379    1.6772 H         1 <0>         0.4165
     30 H7          5.3943   -0.0914   -1.3921 H         1 <0>         0.1369
@<TRIPOS>BOND
     1    1    6 ar
     2    1    2 ar
     3    1   25 1
     4    2    3 ar
     5    2   26 1
     6    3   14 ar
     7    3    4 ar
     8    4    5 ar
     9    4   11 ar
    10    5    6 ar
    11    5    7 1
    12    6   27 1
    13    7    8 2
    14    7    9 2
    15    7   10 1
    16   10   28 1
    17   10   29 1
    18   11   12 ar
    19   11   22 1
    20   12   13 ar
    21   12   30 1
    22   13   20 1
    23   13   14 ar
    24   14   15 1
    25   15   16 2
    26   16   17 1
    27   16   18 1
    28   18   19 2
    29   18   20 am
    30   20   21 1
    31   22   23 2
    32   22   24 1
@<TRIPOS>MOLECULE
ZINC08585017
   30    32     0     0     0
SMALL
USER_CHARGES

@<TRIPOS>ATOM
      1 C1          0.2456    1.3834    0.6714 C.ar      1 <0>        -0.1313
      2 C2          1.3577    2.1012    0.3447 C.ar      1 <0>        -0.0563
      3 C3          2.5384    1.4313   -0.0062 C.ar      1 <0>        -0.0329
      4 C4          2.5597    0.0160   -0.0166 C.ar      1 <0>         0.0376
      5 C5          1.3970   -0.6903    0.3261 C.ar      1 <0>        -0.6495
      6 C6          0.2655   -0.0079    0.6614 C.ar      1 <0>        -0.0272
      7 S1          1.3984   -2.4523    0.3206 S.o2      1 <0>         2.6599
      8 O1          1.2733   -2.8543   -1.0366 O.2       1 <0>        -0.9123
      9 O2          2.4863   -2.8602    1.1387 O.2       1 <0>        -0.9464
     10 N1          0.0171   -2.9454    1.0895 N.pl3     1 <0>        -1.2511
     11 C7          3.7448   -0.6631   -0.3704 C.ar      1 <0>        -0.0537
     12 C8          4.8595    0.0289   -0.6994 C.ar      1 <0>         0.0031
     13 C9          4.8669    1.4424   -0.6970 C.ar      1 <0>         0.1698
     14 C10         3.7083    2.1457   -0.3510 C.ar      1 <0>         0.0654
     15 N2          3.7054    3.5214   -0.3466 N.am      1 <0>        -0.6172
     16 H1          2.9024    4.0100   -0.1071 H         1 <0>         0.4012
     17 C11         4.8349    4.1831   -0.6796 C.2       1 <0>         0.4746
     18 O3          4.8602    5.4008   -0.6836 O.2       1 <0>        -0.5142
     19 C12         6.0339    3.4096   -1.0369 C.2       1 <0>         0.4197
     20 O4          7.1791    4.0511   -1.3748 O.3       1 <0>        -0.6118
     21 N3          5.9939    2.1025   -1.0293 N.2       1 <0>        -0.5931
     22 N4          3.7686   -2.1433   -0.3812 N.pl3     1 <0>        -0.0254
     23 O5          4.3466   -2.7449    0.4938 O.2       1 <0>        -0.0281
     24 O6          3.2101   -2.7504   -1.2650 O.3       1 <0>        -0.1734
     25 H2         -0.6615    1.9014    0.9458 H         1 <0>         0.1381
     26 H3          1.3293    3.1807    0.3559 H         1 <0>         0.1345
     27 H4         -0.6278   -0.5549    0.9243 H         1 <0>         0.1324
     28 H5         -0.6050   -2.2879    1.4382 H         1 <0>         0.4093
     29 H6         -0.1699   -3.8918    1.1912 H         1 <0>         0.4219
     30 H7          5.7581   -0.5068   -0.9677 H         1 <0>         0.1561
@<TRIPOS>BOND
     1    1    6 ar
     2    1    2 ar
     3    1   25 1
     4    2    3 ar
     5    2   26 1
     6    3   14 ar
     7    3    4 ar
     8    4    5 ar
     9    4   11 ar
    10    5    6 ar
    11    5    7 1
    12    6   27 1
    13    7    8 2
    14    7    9 2
    15    7   10 1
    16   10   28 1
    17   10   29 1
    18   11   12 ar
    19   11   22 1
    20   12   13 ar
    21   12   30 1
    22   13   21 1
    23   13   14 ar
    24   14   15 1
    25   15   16 1
    26   15   17 am
    27   17   18 2
    28   17   19 1
    29   19   20 1
    30   19   21 2
    31   22   23 2
    32   22   24 1
@<TRIPOS>MOLECULE
ZINC24632618
   31    31     0     0     0
SMALL
USER_CHARGES

@<TRIPOS>ATOM
      1 C1          0.1871    1.5230    0.3906 C.3       1 <0>        -0.1511
      2 C2         -0.0351    0.0093    0.3781 C.3       1 <0>         0.0012
      3 C3          0.7595   -0.6322    1.5174 C.3       1 <0>        -0.1419
      4 C4         -1.5242   -0.2891    0.5637 C.3       1 <0>        -0.1392
      5 C5          0.4301   -0.5558   -0.9392 C.2       1 <0>         0.0805
      6 C6          1.6467   -0.3837   -1.4862 C.2       1 <0>        -0.3365
      7 C7          1.6753   -1.0741   -2.7176 C.2       1 <0>         0.3551
      8 N1          0.5080   -1.6369   -2.8903 N.2       1 <0>        -0.4444
      9 O1         -0.2958   -1.3231   -1.7673 O.3       1 <0>        -0.1209
     10 O2          2.7283   -1.1412   -3.5711 O.3       1 <0>        -0.7290
     11 C8          2.7812    0.4087   -0.8894 C.3       1 <0>        -0.0366
     12 C9          2.7788    1.8225   -1.4742 C.3       1 <0>        -0.0430
     13 H1          1.7969    2.2735   -1.3304 H         1 <0>         0.1229
     14 C10         3.8217    2.6567   -0.7759 C.2       1 <0>         0.4923
     15 O3          4.9600    2.6987   -1.2106 O.co2     1 <0>        -0.6743
     16 O4          3.5272    3.2895    0.2238 O.co2     1 <0>        -0.6505
     17 N2          3.0832    1.7592   -2.9099 N.4       1 <0>        -0.6032
     18 H2          1.2566    1.7332    0.3931 H         1 <0>         0.0801
     19 H3         -0.2679    1.9644   -0.4961 H         1 <0>         0.0538
     20 H4         -0.2692    1.9499    1.2838 H         1 <0>         0.0658
     21 H5          0.3552   -0.3008    2.4739 H         1 <0>         0.0652
     22 H6          0.6835   -1.7173    1.4473 H         1 <0>         0.0582
     23 H7          1.8057   -0.3356    1.4427 H         1 <0>         0.0654
     24 H8         -2.0903    0.1679   -0.2480 H         1 <0>         0.0587
     25 H9         -1.6825   -1.3676    0.5548 H         1 <0>         0.0603
     26 H10        -1.8607    0.1196    1.5165 H         1 <0>         0.0590
     27 H11         2.6572    0.4626    0.1921 H         1 <0>         0.0973
     28 H12         3.7275   -0.0794   -1.1228 H         1 <0>         0.0833
     29 H13         3.1789    2.6949   -3.2750 H         1 <0>         0.4138
     30 H14         3.9455    1.2541   -3.0489 H         1 <0>         0.4346
     31 H15         2.3342    1.2850   -3.3919 H         1 <0>         0.4228
@<TRIPOS>BOND
     1    1    2 1
     2    1   18 1
     3    1   19 1
     4    1   20 1
     5    2    3 1
     6    2    4 1
     7    2    5 1
     8    3   21 1
     9    3   22 1
    10    3   23 1
    11    4   24 1
    12    4   25 1
    13    4   26 1
    14    5    6 2
    15    5    9 1
    16    6    7 1
    17    6   11 1
    18    7    8 2
    19    7   10 1
    20    8    9 1
    21   11   12 1
    22   11   27 1
    23   11   28 1
    24   12   13 1
    25   12   14 1
    26   12   17 1
    27   14   15 2
    28   14   16 1
    29   17   29 1
    30   17   30 1
    31   17   31 1
@<TRIPOS>MOLECULE
ZINC03995575
   29    29     0     0     0
SMALL
USER_CHARGES

@<TRIPOS>ATOM
      1 C1          1.0799   -0.3943   -0.7951 C.3       1 <0>        -0.1264
      2 C2         -0.0539    0.0466    0.0944 C.2       1 <0>        -0.0851
      3 C3          0.1239    1.0269    0.9449 C.2       1 <0>        -0.2152
      4 C4         -1.3923   -0.6404    0.0054 C.3       1 <0>        -0.0829
      5 H1         -1.2738   -1.7222    0.0665 H         1 <0>         0.1010
      6 C5         -2.3455   -0.1298    1.1150 C.3       1 <0>        -0.0057
      7 N1         -3.6945   -0.3983    0.5543 N.4       1 <0>        -0.4952
      8 C6         -3.6039   -0.0757   -0.8862 C.3       1 <0>        -0.0344
      9 H2         -3.9248    0.9517   -1.0576 H         1 <0>         0.1243
     10 C7         -2.1258   -0.2430   -1.2962 C.3       1 <0>        -0.0443
     11 H3         -2.0240   -1.0302   -2.0432 H         1 <0>         0.1083
     12 C8         -1.5723    1.0774   -1.8356 C.3       1 <0>        -0.1808
     13 C9         -2.1700    1.3564   -3.1906 C.2       1 <0>         0.4629
     14 O1         -2.9649    0.5718   -3.6795 O.co2     1 <0>        -0.6259
     15 O2         -1.8586    2.3667   -3.7980 O.co2     1 <0>        -0.7225
     16 C10        -4.4676   -1.0222   -1.6795 C.2       1 <0>         0.4844
     17 O3         -5.1257   -1.8732   -1.1058 O.co2     1 <0>        -0.7147
     18 O4         -4.5083   -0.9368   -2.8951 O.co2     1 <0>        -0.5649
     19 H4          1.9427    0.2513   -0.6309 H         1 <0>         0.0649
     20 H5          1.3469   -1.4245   -0.5597 H         1 <0>         0.0674
     21 H6          0.7702   -0.3284   -1.8381 H         1 <0>         0.0792
     22 H7         -0.6562    1.2804    1.6475 H         1 <0>         0.0960
     23 H8          1.0505    1.5817    0.9435 H         1 <0>         0.1029
     24 H9         -2.1947   -0.6883    2.0388 H         1 <0>         0.1211
     25 H10        -2.2040    0.9380    1.2824 H         1 <0>         0.1276
     26 H11        -3.9359   -1.3700    0.6788 H         1 <0>         0.4255
     27 H12        -1.8299    1.8859   -1.1515 H         1 <0>         0.0481
     28 H13        -0.4881    1.0078   -1.9241 H         1 <0>         0.0711
     29 H14        -4.3805    0.1919    1.0005 H         1 <0>         0.4136
@<TRIPOS>BOND
     1    1    2 1
     2    1   19 1
     3    1   20 1
     4    1   21 1
     5    2    3 2
     6    2    4 1
     7    3   22 1
     8    3   23 1
     9    4    5 1
    10    4   10 1
    11    4    6 1
    12    6    7 1
    13    6   24 1
    14    6   25 1
    15    7    8 1
    16    7   26 1
    17    7   29 1
    18    8    9 1
    19    8   10 1
    20    8   16 1
    21   10   11 1
    22   10   12 1
    23   12   13 1
    24   12   27 1
    25   12   28 1
    26   13   14 2
    27   13   15 1
    28   16   17 2
    29   16   18 1
@<TRIPOS>MOLECULE
ZINC03995564
   31    31     0     0     0
SMALL
USER_CHARGES
(2S,3S,4R)-3-(carboxymethyl)-4-isopropyl-pyrrolidine-2-carboxylic acid
@<TRIPOS>ATOM
      1 C1          0.7217   -2.8719   -1.2387 C.3       1 <0>        -0.1503
      2 C2          1.8037   -1.8114   -1.0251 C.3       1 <0>        -0.0903
      3 C3          2.8931   -1.9732   -2.0871 C.3       1 <0>        -0.1543
      4 C4          1.1821   -0.4181   -1.1402 C.3       1 <0>        -0.1056
      5 H1          0.8813   -0.2153   -2.1681 H         1 <0>         0.0956
      6 C5         -0.0235   -0.2744   -0.1777 C.3       1 <0>        -0.0029
      7 C6          1.2843    1.6704    0.1375 C.3       1 <0>        -0.0105
      8 H2          1.5918    1.7068    1.1825 H         1 <0>         0.1307
      9 C7          2.1609    0.6655   -0.6327 C.3       1 <0>        -0.0594
     10 H3          2.6515    1.1559   -1.4735 H         1 <0>         0.1052
     11 C8          3.2025    0.0451    0.3006 C.3       1 <0>        -0.1604
     12 C9          4.2427    1.0781    0.6499 C.2       1 <0>         0.4292
     13 O1          4.1594    2.1958    0.1987 O.co2     1 <0>        -0.5658
     14 C10         1.4035    3.0378   -0.4845 C.2       1 <0>         0.4575
     15 O2          0.5522    3.4314   -1.2463 O.co2     1 <0>        -0.6548
     16 H4          0.2842   -2.7500   -2.2296 H         1 <0>         0.0550
     17 H5          1.1646   -3.8645   -1.1567 H         1 <0>         0.0591
     18 H6         -0.0544   -2.7566   -0.4821 H         1 <0>         0.0511
     19 H7          2.2412   -1.9333   -0.0342 H         1 <0>         0.0909
     20 H8          3.7036   -1.2726   -1.8859 H         1 <0>         0.0707
     21 H9          3.2787   -2.9923   -2.0597 H         1 <0>         0.0576
     22 H10         2.4733   -1.7699   -3.0722 H         1 <0>         0.0544
     23 H11         0.1708   -0.7914    0.7621 H         1 <0>         0.1228
     24 H12        -0.9346   -0.6500   -0.6434 H         1 <0>         0.1233
     25 H13         2.7139   -0.3010    1.2115 H         1 <0>         0.0566
     26 H14         3.6808   -0.7980   -0.1980 H         1 <0>         0.0822
     27 N1         -0.0908    1.1783    0.0378 N.4       1 <0>        -0.4984
     28 H15        -0.5999    1.3810    0.9061 H         1 <0>         0.4169
     29 H16        -0.5683    1.6284   -0.7519 H         1 <0>         0.4280
     30 O3          5.2616    0.7565    1.4623 O.co2     1 <0>        -0.7917
     31 O4          2.4555    3.8187   -0.1923 O.co2     1 <0>        -0.6426
@<TRIPOS>BOND
     1    1    2 1
     2    1   16 1
     3    1   17 1
     4    1   18 1
     5    2    3 1
     6    2    4 1
     7    2   19 1
     8    3   20 1
     9    3   21 1
    10    3   22 1
    11    4    5 1
    12    4    9 1
    13    4    6 1
    14    6   23 1
    15    6   24 1
    16    6   27 1
    17    7    8 1
    18    7    9 1
    19    7   14 1
    20    7   27 1
    21    9   10 1
    22    9   11 1
    23   11   12 1
    24   11   25 1
    25   11   26 1
    26   12   13 2
    27   12   30 1
    28   14   15 2
    29   14   31 1
    30   27   28 1
    31   27   29 1
@<TRIPOS>MOLECULE
ZINC13779018
   19    19     0     0     0
SMALL
USER_CHARGES

@<TRIPOS>ATOM
      1 C1         -0.0187    1.5258    0.0104 C.3       1 <0>         0.1559
      2 C2          0.0021   -0.0041    0.0020 C.3       1 <0>        -0.0639
      3 H1          0.4501   -0.3665    0.9272 H         1 <0>         0.1320
      4 C3         -1.4075   -0.5249   -0.1112 C.2       1 <0>         0.4991
      5 O1         -1.7761   -1.0680   -1.1386 O.co2     1 <0>        -0.6678
      6 O2         -2.1794   -0.4033    0.8248 O.co2     1 <0>        -0.6405
      7 N1          0.7922   -0.4768   -1.1426 N.4       1 <0>        -0.6027
      8 N2          1.3557    2.0329    0.0000 N.pl3     1 <0>        -0.5059
      9 C4          2.1974    2.0610   -1.0502 C.2       1 <0>         0.5942
     10 O3          1.9169    1.6204   -2.2941 O.3       1 <0>        -0.6607
     11 N3          3.3403    2.5907   -0.6628 N.2       1 <0>        -0.6559
     12 C5          3.2823    2.9189    0.6279 C.2       1 <0>         0.5845
     13 O4          4.1815    3.4284    1.2748 O.2       1 <0>        -0.5268
     14 O5          2.0627    2.5981    1.0944 O.3       1 <0>        -0.1559
     15 H2         -0.5459    1.8868   -0.8726 H         1 <0>         0.1126
     16 H3         -0.5289    1.8773    0.9072 H         1 <0>         0.1283
     17 H4          0.3774   -0.1413   -1.9991 H         1 <0>         0.4369
     18 H5          1.7359   -0.1280   -1.0669 H         1 <0>         0.4173
     19 H6          0.8059   -1.4857   -1.1482 H         1 <0>         0.4191
@<TRIPOS>BOND
     1    1    2 1
     2    1    8 1
     3    1   15 1
     4    1   16 1
     5    2    3 1
     6    2    4 1
     7    2    7 1
     8    4    5 2
     9    4    6 1
    10    7   17 1
    11    7   18 1
    12    7   19 1
    13    8   14 1
    14    8    9 1
    15    9   10 1
    16    9   11 2
    17   11   12 1
    18   12   13 2
    19   12   14 1
@<TRIPOS>MOLECULE
ZINC13779018
   20    20     0     0     0
SMALL
USER_CHARGES

@<TRIPOS>ATOM
      1 C1         -0.0187    1.5258    0.0104 C.3       1 <0>         0.1622
      2 C2          0.0021   -0.0041    0.0020 C.3       1 <0>         0.0738
      3 H1          0.4501   -0.3665    0.9272 H         1 <0>         0.1320
      4 C3         -1.4075   -0.5249   -0.1112 C.2       1 <0>         0.4457
      5 O1         -1.8299   -0.8975   -1.1801 O.2       1 <0>        -0.5041
      6 O2         -2.1938   -0.5750    0.9756 O.3       1 <0>        -0.5011
      7 N1          0.7922   -0.4768   -1.1426 N.3       1 <0>        -0.8119
      8 N2          1.3557    2.0329    0.0000 N.pl3     1 <0>        -0.4321
      9 C4          2.1974    2.0610   -1.0502 C.2       1 <0>         0.6249
     10 N3          3.3406    2.5899   -0.6626 N.2       1 <0>        -0.6311
     11 C5          3.2828    2.9177    0.6282 C.2       1 <0>         0.5998
     12 O3          4.1822    3.4265    1.2753 O.2       1 <0>        -0.4634
     13 O4          2.0627    2.5981    1.0944 O.3       1 <0>        -0.1103
     14 O5          1.9169    1.6204   -2.2941 O.3       1 <0>        -0.4110
     15 H2         -0.5459    1.8868   -0.8726 H         1 <0>         0.1177
     16 H3         -0.5289    1.8773    0.9072 H         1 <0>         0.1297
     17 H4         -3.0795   -0.9232    0.8045 H         1 <0>         0.4131
     18 H5          0.8750   -1.4823   -1.1342 H         1 <0>         0.3592
     19 H6          0.3968   -0.1538   -2.0130 H         1 <0>         0.3617
     20 H7          2.6463    1.7214   -2.9209 H         1 <0>         0.4452
@<TRIPOS>BOND
     1    1    2 1
     2    1    8 1
     3    1   15 1
     4    1   16 1
     5    2    3 1
     6    2    4 1
     7    2    7 1
     8    4    5 2
     9    4    6 1
    10    6   17 1
    11    7   18 1
    12    7   19 1
    13    8   13 1
    14    8    9 1
    15    9   10 2
    16    9   14 1
    17   10   11 1
    18   11   12 2
    19   11   13 1
    20   14   20 1
@<TRIPOS>MOLECULE
ZINC02567711
   19    19     0     0     0
SMALL
USER_CHARGES

@<TRIPOS>ATOM
      1 C1         -1.3374    0.8607   -1.5895 C.3       1 <0>        -0.1755
      2 C2         -0.8724    1.7915   -0.4678 C.3       1 <0>        -0.1640
      3 H1         -0.5860    2.8067   -0.7424 H         1 <0>         0.1120
      4 C3          0.0314    0.6505   -0.9390 C.3       1 <0>        -0.1699
      5 H2          0.9124    0.9150   -1.5238 H         1 <0>         0.1029
      6 C4          0.1913   -0.5346   -0.0220 C.2       1 <0>         0.5099
      7 O1         -0.5553   -1.4927   -0.1281 O.co2     1 <0>        -0.7026
      8 O2          1.0673   -0.5354    0.8260 O.co2     1 <0>        -0.6599
      9 C5         -1.5450    1.6424    0.8983 C.3       1 <0>        -0.0178
     10 H3         -1.4696    0.6066    1.2293 H         1 <0>         0.1382
     11 C6         -0.8597    2.5398    1.8963 C.2       1 <0>         0.4942
     12 O3         -1.2106    3.7016    2.0132 O.co2     1 <0>        -0.6934
     13 O4          0.0457    2.1041    2.5869 O.co2     1 <0>        -0.6155
     14 N1         -2.9605    2.0204    0.7911 N.4       1 <0>        -0.6086
     15 H4         -2.1223    0.1419   -1.3542 H         1 <0>         0.0976
     16 H5         -1.3569    1.2636   -2.6022 H         1 <0>         0.0915
     17 H6         -3.0303    2.9792    0.4847 H         1 <0>         0.4259
     18 H7         -3.4194    1.4195    0.1229 H         1 <0>         0.4116
     19 H8         -3.4041    1.9220    1.6920 H         1 <0>         0.4235
@<TRIPOS>BOND
     1    1    4 1
     2    1    2 1
     3    1   15 1
     4    1   16 1
     5    2    3 1
     6    2    4 1
     7    2    9 1
     8    4    5 1
     9    4    6 1
    10    6    7 2
    11    6    8 1
    12    9   10 1
    13    9   11 1
    14    9   14 1
    15   11   12 2
    16   11   13 1
    17   14   17 1
    18   14   18 1
    19   14   19 1
@<TRIPOS>MOLECULE
ZINC13755434
   18    19     0     0     0
SMALL
USER_CHARGES
7-nitropyrido[2,3-b]pyrazine-2,3-diol
@<TRIPOS>ATOM
      1 C1          3.7113    2.6598    2.3248 C.ar      1 <0>        -0.0166
      2 C2          4.9499    3.2333    2.2480 C.ar      1 <0>        -0.1533
      3 C3          5.5119    3.5053    1.0044 C.ar      1 <0>         0.2032
      4 N1          4.8822    3.2255   -0.1121 N.ar      1 <0>        -0.4611
      5 C4          3.6701    2.6645   -0.1061 C.ar      1 <0>         0.3958
      6 C5          3.0404    2.3613    1.1251 C.ar      1 <0>        -0.0201
      7 N2          1.8226    1.8042    1.1357 N.am      1 <0>        -0.5584
      8 C6          1.2200    1.5312   -0.0014 C.2       1 <0>         0.4297
      9 C7          1.8461    1.8321   -1.2312 C.2       1 <0>         0.4429
     10 N3          3.0400    2.3844   -1.2561 N.2       1 <0>        -0.5699
     11 O1          1.2115    1.5501   -2.3952 O.3       1 <0>        -0.5709
     12 O2         -0.0110    0.9628    0.0073 O.2       1 <0>        -0.5804
     13 N4          5.6915    3.5647    3.4854 N.pl3     1 <0>         0.0547
     14 O3          5.1983    3.3265    4.5733 O.2       1 <0>        -0.1915
     15 O4          6.7950    4.0757    3.4156 O.3       1 <0>        -0.1788
     16 H1          3.2600    2.4414    3.2813 H         1 <0>         0.1567
     17 H2          6.4911    3.9586    0.9570 H         1 <0>         0.1794
     18 H3          1.3302    1.5767    2.0926 H         1 <0>         0.4386
@<TRIPOS>BOND
     1    1    6 ar
     2    1    2 ar
     3    1   16 1
     4    2    3 ar
     5    2   13 1
     6    3    4 ar
     7    3   17 1
     8    4    5 ar
     9    5   10 1
    10    5    6 ar
    11    6    7 1
    12    7    8 am
    13    7   18 1
    14    8    9 1
    15    8   12 2
    16    9   10 2
    17    9   11 1
    18   13   14 2
    19   13   15 1
@<TRIPOS>MOLECULE
ZINC00896091
   21    20     0     0     0
SMALL
USER_CHARGES

@<TRIPOS>ATOM
      1 C1          0.0713   -0.2098    1.8253 C.3       1 <0>        -0.1188
      2 C2         -0.2638   -0.0520    0.3408 C.3       1 <0>        -0.1744
      3 H1         -0.2683    1.0063    0.0798 H         1 <0>         0.0495
      4 C3         -1.6437   -0.6517    0.0629 C.3       1 <0>        -0.0949
      5 C4         -2.0504   -0.3483   -1.3805 C.3       1 <0>        -0.0589
      6 H2         -1.2916   -0.7351   -2.0608 H         1 <0>         0.1697
      7 C5         -3.3737   -1.0050   -1.6783 C.2       1 <0>         0.4940
      8 O1         -4.3725   -0.3225   -1.8296 O.co2     1 <0>        -0.6948
      9 O2         -3.4454   -2.2188   -1.7677 O.co2     1 <0>        -0.6442
     10 N1         -2.1735    1.1046   -1.5594 N.4       1 <0>        -0.6052
     11 C6          0.7715   -0.7691   -0.4869 C.2       1 <0>         0.4948
     12 O3          1.6921   -1.3522    0.0599 O.co2     1 <0>        -0.6810
     13 O4          0.6886   -0.7660   -1.7033 O.co2     1 <0>        -0.6985
     14 H3          1.0541    0.2178    2.0233 H         1 <0>         0.0544
     15 H4         -0.6778    0.3084    2.4239 H         1 <0>         0.0343
     16 H5          0.0763   -1.2682    2.0861 H         1 <0>         0.0577
     17 H6         -1.6073   -1.7310    0.2108 H         1 <0>         0.0978
     18 H7         -2.3734   -0.2159    0.7452 H         1 <0>         0.0619
     19 H8         -1.2667    1.5344   -1.4546 H         1 <0>         0.4159
     20 H9         -2.5341    1.3006   -2.4812 H         1 <0>         0.4242
     21 H10        -2.8043    1.4767   -0.8654 H         1 <0>         0.4165
@<TRIPOS>BOND
     1    1    2 1
     2    1   14 1
     3    1   15 1
     4    1   16 1
     5    2    3 1
     6    2    4 1
     7    2   11 1
     8    4    5 1
     9    4   17 1
    10    4   18 1
    11    5    6 1
    12    5    7 1
    13    5   10 1
    14    7    8 2
    15    7    9 1
    16   10   19 1
    17   10   20 1
    18   10   21 1
    19   11   12 2
    20   11   13 1
@<TRIPOS>MOLECULE
ZINC01747050
   21    20     0     0     0
SMALL
USER_CHARGES
2-amino-4-methyl-pentanedioic acid
@<TRIPOS>ATOM
      1 C1         -0.7527    1.5927   -1.2315 C.3       1 <0>        -0.1335
      2 C2         -0.0127    1.0858    0.0080 C.3       1 <0>        -0.1420
      3 H1          0.0021   -0.0041    0.0020 H         1 <0>         0.0569
      4 C3         -0.7288    1.5792    1.2668 C.3       1 <0>        -0.1053
      5 C4         -2.1214    0.9498    1.3412 C.3       1 <0>        -0.0199
      6 H2         -2.6653    1.1613    0.4206 H         1 <0>         0.1357
      7 C5         -2.8723    1.5285    2.5126 C.2       1 <0>         0.4630
      8 O1         -2.9469    0.9098    3.5477 O.co2     1 <0>        -0.6265
      9 C6          1.4011    1.6074   -0.0027 C.2       1 <0>         0.4644
     10 O2          1.7955    2.3025    0.9035 O.co2     1 <0>        -0.6285
     11 H3         -0.2425    1.2411   -2.1283 H         1 <0>         0.0663
     12 H4         -1.7753    1.2154   -1.2238 H         1 <0>         0.0401
     13 H5         -0.7675    2.6825   -1.2255 H         1 <0>         0.0586
     14 H6         -0.1536    1.2938    2.1476 H         1 <0>         0.0825
     15 H7         -0.8222    2.6646    1.2299 H         1 <0>         0.1080
     16 H8         -1.4923   -0.7258    2.3586 H         1 <0>         0.4325
     17 H9         -2.8980   -0.9503    1.4987 H         1 <0>         0.4248
     18 O3         -3.4584    2.7314    2.4060 O.co2     1 <0>        -0.7101
     19 N1         -1.9798   -0.5093    1.4908 N.4       1 <0>        -0.6247
     20 H10        -1.4376   -0.8785    0.7009 H         1 <0>         0.4222
     21 O4          2.2223    1.2999   -1.0190 O.co2     1 <0>        -0.7647
@<TRIPOS>BOND
     1    1    2 1
     2    1   11 1
     3    1   12 1
     4    1   13 1
     5    2    3 1
     6    2    4 1
     7    2    9 1
     8    4    5 1
     9    4   14 1
    10    4   15 1
    11    5    6 1
    12    5    7 1
    13    5   19 1
    14    7    8 2
    15    7   18 1
    16    9   10 2
    17    9   21 1
    18   16   19 1
    19   17   19 1
    20   19   20 1
@<TRIPOS>MOLECULE
ZINC25720507
   16    16     0     0     0
SMALL
USER_CHARGES

@<TRIPOS>ATOM
      1 C1         -0.0171    1.4063    0.0098 C.2       1 <0>        -0.3479
      2 C2         -1.3010    1.8118    0.0183 C.2       1 <0>         0.1234
      3 O1         -2.0979    0.7371    0.0165 O.3       1 <0>        -0.0447
      4 N1         -1.2818   -0.4209    0.0061 N.am      1 <0>        -0.5850
      5 C3          0.0021   -0.0041    0.0020 C.2       1 <0>         0.5367
      6 O2          0.9941   -0.7148   -0.0119 O.2       1 <0>        -0.5394
      7 C4         -1.7655    3.2454    0.0289 C.3       1 <0>         0.0826
      8 H1         -0.9032    3.9061    0.1181 H         1 <0>         0.1200
      9 C5         -2.4978    3.5456   -1.2536 C.2       1 <0>         0.5051
     10 O3         -3.7035    3.7263   -1.2391 O.co2     1 <0>        -0.6618
     11 O4         -1.8846    3.6077   -2.3055 O.co2     1 <0>        -0.6809
     12 N2         -2.6667    3.4597    1.1690 N.3       1 <0>        -0.8080
     13 H2          0.8497    2.0506    0.0050 H         1 <0>         0.1700
     14 H3         -3.4746    2.8582    1.1094 H         1 <0>         0.3518
     15 H4         -2.1811    3.3274    2.0436 H         1 <0>         0.3283
     16 H5         -1.5883   -1.3412    0.0026 H         1 <0>         0.4499
@<TRIPOS>BOND
     1    1    5 1
     2    1   13 1
     3    1    2 2
     4    2    3 1
     5    2    7 1
     6    3    4 1
     7    4    5 am
     8    4   16 1
     9    5    6 2
    10    7    8 1
    11    7    9 1
    12    7   12 1
    13    9   10 2
    14    9   11 1
    15   12   14 1
    16   12   15 1
@<TRIPOS>MOLECULE
ZINC04262470
   19    19     0     0     0
SMALL
USER_CHARGES
(2S,3S)-3-(carboxymethyl)azetidine-2-carboxylic acid
@<TRIPOS>ATOM
      1 C1          2.2441    3.6769    1.0245 C.3       1 <0>        -0.0158
      2 C2          1.9498    2.2090    1.3829 C.3       1 <0>        -0.0943
      3 H1          1.2575    2.0912    2.2165 H         1 <0>         0.1265
      4 C3          1.2786    2.1093    0.0012 C.3       1 <0>        -0.0405
      5 H2          1.9550    1.7960   -0.7941 H         1 <0>         0.1539
      6 C4         -0.0161    1.3381    0.0094 C.2       1 <0>         0.4739
      7 O1         -1.0706    1.9279    0.0176 O.co2     1 <0>        -0.6242
      8 C5          3.2037    1.3434    1.5223 C.3       1 <0>        -0.1529
      9 C6          3.7101    1.4173    2.9397 C.2       1 <0>         0.4619
     10 O2          3.1279    2.0930    3.7548 O.co2     1 <0>        -0.6420
     11 H3          2.0791    4.3716    1.8481 H         1 <0>         0.1449
     12 H4          3.2033    3.8239    0.5282 H         1 <0>         0.1400
     13 H5          2.9607    0.3096    1.2767 H         1 <0>         0.0918
     14 H6          3.9737    1.7071    0.8419 H         1 <0>         0.0723
     15 N1          1.1783    3.4943    0.1419 N.4       1 <0>        -0.4581
     16 H7          1.3209    3.9870   -0.7475 H         1 <0>         0.3953
     17 H8          0.2810    3.7797    0.5513 H         1 <0>         0.4328
     18 O3          0.0021   -0.0041    0.0020 O.co2     1 <0>        -0.7005
     19 O4          4.8080    0.7325    3.2967 O.co2     1 <0>        -0.7650
@<TRIPOS>BOND
     1    1    2 1
     2    1   11 1
     3    1   12 1
     4    1   15 1
     5    2    3 1
     6    2    4 1
     7    2    8 1
     8    4    5 1
     9    4    6 1
    10    4   15 1
    11    6    7 2
    12    6   18 1
    13    8    9 1
    14    8   13 1
    15    8   14 1
    16    9   10 2
    17    9   19 1
    18   15   16 1
    19   15   17 1
@<TRIPOS>MOLECULE
ZINC01490608
   30    31     0     0     0
SMALL
USER_CHARGES

@<TRIPOS>ATOM
      1 C1         -0.0189    1.5401    0.0105 C.3       1 <0>        -0.1133
      2 C2          1.4878    1.8792   -0.0021 C.3       1 <0>        -0.0554
      3 C3          2.1649    0.6773    0.6185 C.2       1 <0>        -0.2360
      4 C4          1.3303   -0.3821    0.6214 C.2       1 <0>         0.1259
      5 N1          1.7575   -1.5758    1.1444 N.am      1 <0>        -0.5370
      6 C5          2.9954   -1.7011    1.6530 C.2       1 <0>         0.6956
      7 O1          3.3501   -2.7702    2.1109 O.2       1 <0>        -0.5145
      8 N2          3.8478   -0.6595    1.6621 N.am      1 <0>        -0.6548
      9 H1          4.7379   -0.7660    2.0327 H         1 <0>         0.4383
     10 C6          3.4674    0.5311    1.1585 C.2       1 <0>         0.5583
     11 O2          4.2377    1.4743    1.1657 O.2       1 <0>        -0.4963
     12 C7          0.8533   -2.7285    1.1491 C.3       1 <0>         0.1032
     13 C8          1.0316   -3.5219   -0.1470 C.3       1 <0>        -0.0656
     14 H2          2.0362   -3.9435   -0.1796 H         1 <0>         0.1438
     15 C9          0.0175   -4.6355   -0.1978 C.2       1 <0>         0.4939
     16 O3         -1.0741   -4.4431   -0.7056 O.co2     1 <0>        -0.6590
     17 O4          0.2887   -5.7287    0.2688 O.co2     1 <0>        -0.6196
     18 N3          0.8374   -2.6298   -1.2978 N.4       1 <0>        -0.6177
     19 C10         0.0021   -0.0041    0.0020 C.3       1 <0>        -0.0918
     20 H3         -0.4958    1.9183    0.9147 H         1 <0>         0.0891
     21 H4         -0.5130    1.9279   -0.8803 H         1 <0>         0.0974
     22 H5          1.8351    2.0233   -1.0251 H         1 <0>         0.0891
     23 H6          1.6801    2.7717    0.5934 H         1 <0>         0.0906
     24 H7          1.0842   -3.3679    2.0011 H         1 <0>         0.1445
     25 H8         -0.1773   -2.3816    1.2239 H         1 <0>         0.1217
     26 H9         -0.0926   -2.2394   -1.2676 H         1 <0>         0.4306
     27 H10         1.5163   -1.8842   -1.2637 H         1 <0>         0.4087
     28 H11        -0.8202   -0.3972    0.5999 H         1 <0>         0.1073
     29 H12        -0.0592   -0.3780   -1.0200 H         1 <0>         0.0864
     30 H13         0.9549   -3.1529   -2.1525 H         1 <0>         0.4368
@<TRIPOS>BOND
     1    1   19 1
     2    1    2 1
     3    1   20 1
     4    1   21 1
     5    2    3 1
     6    2   22 1
     7    2   23 1
     8    3   10 1
     9    3    4 2
    10    4    5 1
    11    4   19 1
    12    5    6 am
    13    5   12 1
    14    6    7 2
    15    6    8 am
    16    8    9 1
    17    8   10 am
    18   10   11 2
    19   12   13 1
    20   12   24 1
    21   12   25 1
    22   13   14 1
    23   13   15 1
    24   13   18 1
    25   15   16 2
    26   15   17 1
    27   18   26 1
    28   18   27 1
    29   18   30 1
    30   19   28 1
    31   19   29 1
@<TRIPOS>MOLECULE
ZINC27191322
   24    24     0     0     0
SMALL
USER_CHARGES
(2S)-2-amino-3-(5-nitro-2,4-dioxo-pyrimidin-1-yl)propanoic acid
@<TRIPOS>ATOM
      1 C1         -4.3360    2.3383   -1.1843 C.2       1 <0>         0.2387
      2 C2         -5.4567    3.0914   -1.1911 C.2       1 <0>        -0.2302
      3 C3         -5.3517    4.4804   -1.4441 C.2       1 <0>         0.5273
      4 O1         -6.3489    5.1792   -1.4603 O.3       1 <0>        -0.5263
      5 N1         -4.1374    5.0223   -1.6673 N.2       1 <0>        -0.6556
      6 C4         -3.0358    4.2491   -1.6496 C.2       1 <0>         0.6225
      7 O2         -1.9474    4.7517   -1.8523 O.2       1 <0>        -0.5910
      8 N2         -3.1220    2.9279   -1.4105 N.am      1 <0>        -0.5508
      9 C5         -1.9054    2.1118   -1.3981 C.3       1 <0>         0.0897
     10 C6         -1.3313    2.0738    0.0196 C.3       1 <0>        -0.0198
     11 H1         -2.0277    1.5801    0.7133 H         1 <0>         0.1315
     12 C7         -0.0161    1.3381    0.0094 C.2       1 <0>         0.4630
     13 O3          1.0219    1.9564    0.0028 O.co2     1 <0>        -0.6099
     14 O4          0.0021   -0.0041    0.0020 O.co2     1 <0>        -0.7075
     15 N3         -1.1210    3.4460    0.4998 N.4       1 <0>        -0.6602
     16 N4         -6.7780    2.4720   -0.9430 N.pl3     1 <0>         0.0579
     17 O5         -6.8589    1.2762   -0.7263 O.2       1 <0>        -0.2238
     18 O6         -7.7842    3.1581   -0.9557 O.3       1 <0>        -0.1303
     19 H2         -4.3969    1.2764   -0.9972 H         1 <0>         0.1796
     20 H3         -2.1466    1.0891   -1.7236 H         1 <0>         0.1277
     21 H4         -1.1636    2.5491   -2.0825 H         1 <0>         0.1251
     22 H5         -0.7083    3.4185    1.5191 H         1 <0>         0.4450
     23 H6         -2.0810    3.9830    0.5073 H         1 <0>         0.4349
     24 H7         -0.4163    3.9640   -0.1674 H         1 <0>         0.4626
@<TRIPOS>BOND
     1    1    8 1
     2    1    2 2
     3    1   19 1
     4    2    3 1
     5    2   16 1
     6    3    4 1
     7    3    5 2
     8    5    6 1
     9    6    7 2
    10    6    8 am
    11    8    9 1
    12    9   10 1
    13    9   20 1
    14    9   21 1
    15   10   11 1
    16   10   12 1
    17   10   15 1
    18   12   13 2
    19   12   14 1
    20   15   22 1
    21   15   23 1
    22   15   24 1
    23   16   17 2
    24   16   18 1
@<TRIPOS>MOLECULE
ZINC28108493
   24    24     0     0     0
SMALL
USER_CHARGES
(2R)-2-amino-3-(5-nitro-2,4-dioxo-pyrimidin-1-yl)propanoic acid
@<TRIPOS>ATOM
      1 C1          2.3402    1.4135   -0.0128 C.2       1 <0>         0.1985
      2 C2          2.3876    0.0642   -0.0205 C.2       1 <0>        -0.2156
      3 C3          1.1757   -0.6677   -0.0128 C.2       1 <0>         0.5225
      4 O1          1.1931   -1.8854   -0.0199 O.3       1 <0>        -0.5323
      5 N1          0.0021   -0.0041    0.0020 N.2       1 <0>        -0.6531
      6 C4         -0.0162    1.3418    0.0094 C.2       1 <0>         0.6292
      7 O2         -1.0821    1.9267    0.0176 O.2       1 <0>        -0.5621
      8 N2          1.1284    2.0489    0.0023 N.am      1 <0>        -0.5433
      9 C5          1.0768    3.5130    0.0107 C.3       1 <0>         0.0913
     10 C6          1.0726    4.0149    1.4560 C.3       1 <0>        -0.0213
     11 H1          0.1676    3.6825    1.9856 H         1 <0>         0.1436
     12 C7          1.1435    5.5202    1.4653 C.2       1 <0>         0.4639
     13 O3          2.1975    6.0741    1.6705 O.co2     1 <0>        -0.6182
     14 O4          0.0357    6.2456    1.2456 O.co2     1 <0>        -0.6962
     15 N3          2.2340    3.4656    2.1685 N.4       1 <0>        -0.6676
     16 N4          3.6892   -0.6404   -0.0372 N.pl3     1 <0>         0.0560
     17 O5          4.7269   -0.0027   -0.0438 O.2       1 <0>        -0.2312
     18 O6          3.7226   -1.8580   -0.0445 O.3       1 <0>        -0.1238
     19 H2          3.2543    1.9886   -0.0181 H         1 <0>         0.1722
     20 H3          1.9565    3.9139   -0.5141 H         1 <0>         0.1059
     21 H4          0.1614    3.8506   -0.4973 H         1 <0>         0.1459
     22 H5          2.2310    3.8265    3.2076 H         1 <0>         0.4549
     23 H6          3.1583    3.7922    1.6696 H         1 <0>         0.4488
     24 H7          2.1823    2.3668    2.1617 H         1 <0>         0.4320
@<TRIPOS>BOND
     1    1    8 1
     2    1    2 2
     3    1   19 1
     4    2    3 1
     5    2   16 1
     6    3    4 1
     7    3    5 2
     8    5    6 1
     9    6    7 2
    10    6    8 am
    11    8    9 1
    12    9   10 1
    13    9   20 1
    14    9   21 1
    15   10   11 1
    16   10   12 1
    17   10   15 1
    18   12   13 2
    19   12   14 1
    20   15   22 1
    21   15   23 1
    22   15   24 1
    23   16   17 2
    24   16   18 1
@<TRIPOS>MOLECULE
ZINC16052001
   38    39     0     0     0
SMALL
USER_CHARGES
3-[[3-[(2S)-2-amino-3-hydroxy-3-oxo-propyl]-5-methyl-2,6-dioxo-pyrimidin-1-yl]methyl]thiophene-2-carboxylic acid
@<TRIPOS>ATOM
      1 C1          2.4620    2.6055   -4.7370 C.3       1 <0>        -0.0862
      2 C2          2.5653    1.7178   -3.5236 C.2       1 <0>        -0.2207
      3 C3          1.9951    2.0857   -2.3563 C.2       1 <0>         0.1040
      4 N1          2.0988    1.2681   -1.2640 N.am      1 <0>        -0.5535
      5 C4          2.7681    0.1035   -1.3410 C.2       1 <0>         0.6824
      6 O1          2.8520   -0.6057   -0.3569 O.2       1 <0>        -0.5079
      7 N2          3.3416   -0.2901   -2.4933 N.am      1 <0>        -0.5455
      8 C5          3.2620    0.4873   -3.5922 C.2       1 <0>         0.5392
      9 O2          3.7848    0.1343   -4.6338 O.2       1 <0>        -0.4834
     10 C6          4.0599   -1.5655   -2.5524 C.3       1 <0>         0.1847
     11 C7          5.5237   -1.3306   -2.2821 C.2       1 <0>        -0.1346
     12 C8          5.9952   -0.0950   -1.9170 C.2       1 <0>        -0.1500
     13 C9          7.3247    0.0660   -1.6841 C.2       1 <0>        -0.2457
     14 S1          7.9712   -1.5171   -1.9691 S.3       1 <0>         0.1483
     15 C10         6.4526   -2.3555   -2.3859 C.2       1 <0>        -0.1442
     16 C11         6.2421   -3.7588   -2.7459 C.2       1 <0>         0.5259
     17 O3          5.1412   -4.1378   -3.0979 O.co2     1 <0>        -0.6108
     18 C12         1.4806    1.6674    0.0027 C.3       1 <0>         0.1118
     19 C13         0.0462    1.1381    0.0592 C.3       1 <0>        -0.0338
     20 H1          0.0614    0.0484    0.0767 H         1 <0>         0.1493
     21 C14        -0.6298    1.6511    1.3046 C.2       1 <0>         0.4610
     22 O4         -1.3789    2.5969    1.2395 O.co2     1 <0>        -0.6138
     23 H2          3.3055    3.2955   -4.7554 H         1 <0>         0.0760
     24 H3          2.4746    1.9921   -5.6380 H         1 <0>         0.0817
     25 H4          1.5310    3.1708   -4.6955 H         1 <0>         0.0700
     26 H5          1.4593    3.0208   -2.2851 H         1 <0>         0.1750
     27 H6          3.6562   -2.2450   -1.8017 H         1 <0>         0.1138
     28 H7          3.9392   -2.0050   -3.5426 H         1 <0>         0.1209
     29 H8          5.3179    0.7402   -1.8161 H         1 <0>         0.1052
     30 H9          7.8509    0.9630   -1.3927 H         1 <0>         0.1759
     31 H10         1.4697    2.7550    0.0747 H         1 <0>         0.1176
     32 H11         2.0534    1.2540    0.8328 H         1 <0>         0.1466
     33 H12        -0.7210    2.6065   -1.1630 H         1 <0>         0.4320
     34 H13        -0.2971    1.2150   -1.9692 H         1 <0>         0.4180
     35 O5          7.2690   -4.6316   -2.6873 O.co2     1 <0>        -0.7369
     36 O6         -0.3997    1.0573    2.4862 O.co2     1 <0>        -0.6867
     37 N3         -0.7155    1.5888   -1.1190 N.4       1 <0>        -0.6264
     38 H14        -1.6824    1.2514   -1.0451 H         1 <0>         0.4410
@<TRIPOS>BOND
     1    1    2 1
     2    1   23 1
     3    1   24 1
     4    1   25 1
     5    2    8 1
     6    2    3 2
     7    3    4 1
     8    3   26 1
     9    4    5 am
    10    4   18 1
    11    5    6 2
    12    5    7 am
    13    7    8 am
    14    7   10 1
    15    8    9 2
    16   10   11 1
    17   10   27 1
    18   10   28 1
    19   11   15 2
    20   11   12 1
    21   12   13 2
    22   12   29 1
    23   13   14 1
    24   13   30 1
    25   14   15 1
    26   15   16 1
    27   16   17 2
    28   16   35 1
    29   18   19 1
    30   18   31 1
    31   18   32 1
    32   19   20 1
    33   19   21 1
    34   19   37 1
    35   21   22 2
    36   21   36 1
    37   33   37 1
    38   34   37 1
    39   37   38 1
@<TRIPOS>MOLECULE
ZINC00896090
   21    20     0     0     0
SMALL
USER_CHARGES

@<TRIPOS>ATOM
      1 C1         -0.0187    1.5258    0.0104 C.3       1 <0>        -0.1308
      2 C2          0.0021   -0.0041    0.0020 C.3       1 <0>        -0.1701
      3 H1          0.5123   -0.3556   -0.8948 H         1 <0>         0.0501
      4 C3          0.7421   -0.5109    1.2415 C.3       1 <0>        -0.0958
      5 C4          2.2100   -0.0858    1.1685 C.3       1 <0>        -0.0542
      6 H2          2.2693    0.9948    1.0385 H         1 <0>         0.1290
      7 C5          2.9104   -0.4775    2.4441 C.2       1 <0>         0.4952
      8 O1          3.7364   -1.3742    2.4354 O.co2     1 <0>        -0.6861
      9 O2          2.6512    0.1025    3.4847 O.co2     1 <0>        -0.6418
     10 N1          2.8567   -0.7522    0.0303 N.4       1 <0>        -0.6107
     11 C6         -1.4117   -0.5257    0.0127 C.2       1 <0>         0.4958
     12 O3         -2.1751   -0.2365   -0.8929 O.co2     1 <0>        -0.6969
     13 O4         -1.7922   -1.2369    0.9270 O.co2     1 <0>        -0.6864
     14 H3          1.0039    1.9031    0.0027 H         1 <0>         0.0364
     15 H4         -0.5459    1.8868   -0.8726 H         1 <0>         0.0610
     16 H5         -0.5289    1.8773    0.9072 H         1 <0>         0.0564
     17 H6          0.2852   -0.0874    2.1360 H         1 <0>         0.1044
     18 H7          0.6803   -1.5984    1.2822 H         1 <0>         0.0789
     19 H8          2.3878   -0.4899   -0.8238 H         1 <0>         0.4136
     20 H9          3.8248   -0.4718   -0.0179 H         1 <0>         0.4225
     21 H10         2.8019   -1.7525    0.1506 H         1 <0>         0.4293
@<TRIPOS>BOND
     1    1    2 1
     2    1   14 1
     3    1   15 1
     4    1   16 1
     5    2    3 1
     6    2    4 1
     7    2   11 1
     8    4    5 1
     9    4   17 1
    10    4   18 1
    11    5    6 1
    12    5    7 1
    13    5   10 1
    14    7    8 2
    15    7    9 1
    16   10   19 1
    17   10   20 1
    18   10   21 1
    19   11   12 2
    20   11   13 1
@<TRIPOS>MOLECULE
ZINC04521465
   41    41     0     0     0
SMALL
USER_CHARGES
3-(carboxymethyl)-4-(5-carboxy-1-methyl-hexa-1,3-dienyl)-pyrrolidine-2-carboxylic acid
@<TRIPOS>ATOM
      1 C1          7.2949    5.8523   -1.2490 C.3       1 <0>        -0.1160
      2 C2          6.3027    5.0405   -2.0842 C.3       1 <0>        -0.1180
      3 H1          5.5375    5.7045   -2.4862 H         1 <0>         0.0744
      4 C3          5.6537    3.9936   -1.2159 C.2       1 <0>        -0.0636
      5 C4          4.3356    3.9931   -1.0488 C.2       1 <0>        -0.1782
      6 C5          3.7020    2.9711   -0.2012 C.2       1 <0>        -0.0889
      7 C6          2.3838    2.9705   -0.0341 C.2       1 <0>        -0.1361
      8 C7          1.5378    4.0167   -0.7129 C.3       1 <0>        -0.1207
      9 C8          1.7348    1.9237    0.8342 C.3       1 <0>        -0.0671
     10 H2          2.4899    1.3815    1.4033 H         1 <0>         0.0980
     11 C9          0.7114    2.5771    1.7876 C.3       1 <0>        -0.0033
     12 C10        -0.5410    1.0919    0.4745 C.3       1 <0>        -0.0122
     13 H3         -1.0873    1.8069   -0.1407 H         1 <0>         0.1260
     14 C11         0.9109    0.9467   -0.0296 C.3       1 <0>        -0.0638
     15 H4          1.2616   -0.0751    0.1155 H         1 <0>         0.1039
     16 C12         1.0042    1.3348   -1.5066 C.3       1 <0>        -0.1530
     17 C13         0.3589    0.2648   -2.3490 C.2       1 <0>         0.4474
     18 O1          0.0368   -0.7863   -1.8478 O.co2     1 <0>        -0.5902
     19 C14        -1.2353   -0.2456    0.4699 C.2       1 <0>         0.4784
     20 O2         -1.0972   -1.0011    1.4027 O.co2     1 <0>        -0.6513
     21 C15         7.0325    4.3697   -3.2193 C.2       1 <0>         0.4692
     22 O3          7.0262    3.1651   -3.3136 O.co2     1 <0>        -0.6306
     23 H5          8.0601    5.1882   -0.8470 H         1 <0>         0.0462
     24 H6          7.7643    6.6094   -1.8771 H         1 <0>         0.0609
     25 H7          6.7671    6.3375   -0.4280 H         1 <0>         0.0409
     26 H8          6.2600    3.2439   -0.7294 H         1 <0>         0.1053
     27 H9          3.7292    4.7428   -1.5353 H         1 <0>         0.1112
     28 H10         4.3083    2.2213    0.2853 H         1 <0>         0.1089
     29 H11         1.5253    4.9229   -0.1073 H         1 <0>         0.0571
     30 H12         1.9557    4.2413   -1.6942 H         1 <0>         0.0762
     31 H13         0.5205    3.6427   -0.8281 H         1 <0>         0.0653
     32 H14         1.1522    2.7279    2.7730 H         1 <0>         0.1242
     33 H15         0.3626    3.5255    1.3789 H         1 <0>         0.1246
     34 H16         0.4900    2.2825   -1.6664 H         1 <0>         0.0707
     35 H17         2.0518    1.4376   -1.7898 H         1 <0>         0.0774
     36 N1         -0.3862    1.6101    1.8344 N.4       1 <0>        -0.4942
     37 H18        -1.2518    2.0705    2.1394 H         1 <0>         0.4160
     38 H19        -0.1586    0.8461    2.4815 H         1 <0>         0.4295
     39 O4          0.1418    0.4795   -3.6561 O.co2     1 <0>        -0.7890
     40 O5         -2.0070   -0.5977   -0.5703 O.co2     1 <0>        -0.6622
     41 O6          7.6895    5.1103   -4.1257 O.co2     1 <0>        -0.7735
@<TRIPOS>BOND
     1    1    2 1
     2    1   23 1
     3    1   24 1
     4    1   25 1
     5    2    3 1
     6    2    4 1
     7    2   21 1
     8    4    5 2
     9    4   26 1
    10    5    6 1
    11    5   27 1
    12    6    7 2
    13    6   28 1
    14    7    8 1
    15    7    9 1
    16    8   29 1
    17    8   30 1
    18    8   31 1
    19    9   10 1
    20    9   14 1
    21    9   11 1
    22   11   32 1
    23   11   33 1
    24   11   36 1
    25   12   13 1
    26   12   14 1
    27   12   19 1
    28   12   36 1
    29   14   15 1
    30   14   16 1
    31   16   17 1
    32   16   34 1
    33   16   35 1
    34   17   18 2
    35   17   39 1
    36   19   20 2
    37   19   40 1
    38   21   22 2
    39   21   41 1
    40   36   37 1
    41   36   38 1
@<TRIPOS>MOLECULE
ZINC01482113
   18    17     0     0     0
SMALL
USER_CHARGES

@<TRIPOS>ATOM
      1 C1         -0.0187    1.5258    0.0104 C.3       1 <0>        -0.1000
      2 C2          0.0021   -0.0041    0.0020 C.3       1 <0>        -0.1962
      3 C3         -1.4117   -0.5257    0.0127 C.2       1 <0>         0.4893
      4 O1         -2.3491    0.2539    0.0259 O.co2     1 <0>        -0.6870
      5 O2         -1.6182   -1.7273    0.0082 O.co2     1 <0>        -0.7019
      6 C4          1.4167    2.0553   -0.0004 C.3       1 <0>        -0.0520
      7 H1          1.9535    1.6326   -0.8497 H         1 <0>         0.1269
      8 C5          1.3970    3.5578   -0.1160 C.2       1 <0>         0.4945
      9 O3          1.7295    4.2467    0.8334 O.co2     1 <0>        -0.6861
     10 O4          1.0484    4.0844   -1.1589 O.co2     1 <0>        -0.6413
     11 N1          2.0906    1.6690    1.2464 N.4       1 <0>        -0.6105
     12 H2         -0.5459    1.8868   -0.8726 H         1 <0>         0.1064
     13 H3         -0.5289    1.8773    0.9072 H         1 <0>         0.0773
     14 H4          0.5123   -0.3556   -0.8948 H         1 <0>         0.0672
     15 H5          0.5293   -0.3651    0.8851 H         1 <0>         0.0471
     16 H6          2.1039    0.6630    1.3237 H         1 <0>         0.4141
     17 H7          3.0372    2.0182    1.2392 H         1 <0>         0.4227
     18 H8          1.5937    2.0603    2.0325 H         1 <0>         0.4293
@<TRIPOS>BOND
     1    1    2 1
     2    1    6 1
     3    1   12 1
     4    1   13 1
     5    2    3 1
     6    2   14 1
     7    2   15 1
     8    3    4 2
     9    3    5 1
    10    6    7 1
    11    6    8 1
    12    6   11 1
    13    8    9 2
    14    8   10 1
    15   11   16 1
    16   11   17 1
    17   11   18 1
@<TRIPOS>MOLECULE
ZINC00895124
   18    17     0     0     0
SMALL
USER_CHARGES

@<TRIPOS>ATOM
      1 C1         -0.0187    1.5258    0.0104 C.3       1 <0>        -0.1010
      2 C2          0.0021   -0.0041    0.0020 C.3       1 <0>        -0.1959
      3 C3         -1.4117   -0.5257    0.0127 C.2       1 <0>         0.4893
      4 O1         -2.3491    0.2539    0.0259 O.co2     1 <0>        -0.6871
      5 O2         -1.6182   -1.7273    0.0082 O.co2     1 <0>        -0.7016
      6 C4          1.4167    2.0553   -0.0004 C.3       1 <0>        -0.0510
      7 H1          1.9696    1.6236    0.8338 H         1 <0>         0.1263
      8 C5          1.3993    3.5565    0.1316 C.2       1 <0>         0.4931
      9 O3          1.4342    4.0717    1.2361 O.co2     1 <0>        -0.6465
     10 O4          1.3504    4.2557   -0.8660 O.co2     1 <0>        -0.6784
     11 N1          2.0667    1.6824   -1.2639 N.4       1 <0>        -0.6121
     12 H2         -0.5459    1.8868   -0.8726 H         1 <0>         0.0805
     13 H3         -0.5289    1.8773    0.9072 H         1 <0>         0.1026
     14 H4          0.5123   -0.3556   -0.8948 H         1 <0>         0.0475
     15 H5          0.5293   -0.3651    0.8851 H         1 <0>         0.0673
     16 H6          3.0133    2.0317   -1.2711 H         1 <0>         0.4211
     17 H7          2.0783    0.6774   -1.3524 H         1 <0>         0.4148
     18 H8          1.5549    2.0821   -2.0362 H         1 <0>         0.4310
@<TRIPOS>BOND
     1    1    2 1
     2    1    6 1
     3    1   12 1
     4    1   13 1
     5    2    3 1
     6    2   14 1
     7    2   15 1
     8    3    4 2
     9    3    5 1
    10    6    7 1
    11    6    8 1
    12    6   11 1
    13    8    9 2
    14    8   10 1
    15   11   16 1
    16   11   17 1
    17   11   18 1
@<TRIPOS>MOLECULE
ZINC01747048
   21    20     0     0     0
SMALL
USER_CHARGES
2-amino-4-methyl-pentanedioic acid
@<TRIPOS>ATOM
      1 C1          1.1827    1.5728    0.2922 C.3       1 <0>        -0.1244
      2 C2          1.2370    3.0936    0.1336 C.3       1 <0>        -0.1462
      3 H1          0.7932    3.5663    1.0097 H         1 <0>         0.0555
      4 C3          2.6938    3.5403   -0.0040 C.3       1 <0>        -0.1014
      5 C4          2.7613    5.0688    0.0024 C.3       1 <0>        -0.0194
      6 H2          2.1102    5.4646   -0.7770 H         1 <0>         0.1591
      7 C5          4.1790    5.5102   -0.2552 C.2       1 <0>         0.4641
      8 O1          4.8834    5.8483    0.6663 O.co2     1 <0>        -0.6381
      9 C6          0.4691    3.4978   -1.0985 C.2       1 <0>         0.4538
     10 O2          1.0295    4.0832   -1.9946 O.co2     1 <0>        -0.6174
     11 H3          1.8103    1.2724    1.1312 H         1 <0>         0.0443
     12 H4          0.1543    1.2634    0.4787 H         1 <0>         0.0632
     13 H5          1.5449    1.0992   -0.6203 H         1 <0>         0.0544
     14 H6          3.2747    3.1475    0.8305 H         1 <0>         0.0649
     15 H7          3.1028    3.1626   -0.9411 H         1 <0>         0.1089
     16 H8          2.9098    5.2200    2.0502 H         1 <0>         0.4242
     17 H9          2.2956    6.5815    1.3190 H         1 <0>         0.4255
     18 O3          4.6591    5.5277   -1.5086 O.co2     1 <0>        -0.7033
     19 N1          2.2983    5.5629    1.3112 N.4       1 <0>        -0.6247
     20 H10         1.3442    5.2240    1.4817 H         1 <0>         0.4208
     21 O4         -0.8375    3.2076   -1.2003 O.co2     1 <0>        -0.7639
@<TRIPOS>BOND
     1    1    2 1
     2    1   11 1
     3    1   12 1
     4    1   13 1
     5    2    3 1
     6    2    4 1
     7    2    9 1
     8    4    5 1
     9    4   14 1
    10    4   15 1
    11    5    6 1
    12    5    7 1
    13    5   19 1
    14    7    8 2
    15    7   18 1
    16    9   10 2
    17    9   21 1
    18   16   19 1
    19   17   19 1
    20   19   20 1
@<TRIPOS>MOLECULE
ZINC08662575
   20    21     0     0     0
SMALL
USER_CHARGES

@<TRIPOS>ATOM
      1 C1         -0.0167    1.3839    0.0097 C.ar      1 <0>        -0.0629
      2 C2          1.1833    2.0914    0.0020 C.ar      1 <0>        -0.0261
      3 C3          2.4047    1.4046   -0.0133 C.ar      1 <0>         0.0013
      4 C4          2.4314    0.0433   -0.0214 C.ar      1 <0>        -0.0577
      5 C5          1.2325   -0.6870   -0.0143 C.ar      1 <0>         0.2039
      6 C6          0.0021   -0.0041    0.0020 C.ar      1 <0>         0.0788
      7 N1         -1.1855   -0.7142    0.0091 N.am      1 <0>        -0.6292
      8 C7         -1.1422   -2.0644    0.0010 C.2       1 <0>         0.4776
      9 C8          0.1685   -2.7399   -0.0151 C.2       1 <0>         0.4271
     10 N2          1.2689   -2.0352   -0.0232 N.2       1 <0>        -0.5994
     11 O1          0.2319   -4.0926   -0.0230 O.3       1 <0>        -0.5986
     12 O2         -2.1711   -2.7145    0.0073 O.2       1 <0>        -0.5067
     13 N3          3.6750    2.1645   -0.0214 N.pl3     1 <0>         0.0371
     14 O3          4.7312    1.5764   -0.0346 O.2       1 <0>        -0.1516
     15 O4          3.6563    3.3733   -0.0147 O.3       1 <0>        -0.1710
     16 C9          1.1687    3.5233    0.0093 C.1       1 <0>         0.2573
     17 N4          1.1571    4.6592    0.0152 N.1       1 <0>        -0.4011
     18 H1         -0.9580    1.9132    0.0260 H         1 <0>         0.1477
     19 H2          3.3781   -0.4763   -0.0335 H         1 <0>         0.1666
     20 H3         -2.0367   -0.2493    0.0200 H         1 <0>         0.4071
@<TRIPOS>BOND
     1    1    6 ar
     2    1    2 ar
     3    1   18 1
     4    2    3 ar
     5    2   16 1
     6    3    4 ar
     7    3   13 1
     8    4    5 ar
     9    4   19 1
    10    5   10 1
    11    5    6 ar
    12    6    7 1
    13    7    8 am
    14    7   20 1
    15    8    9 1
    16    8   12 2
    17    9   10 2
    18    9   11 1
    19   13   14 2
    20   13   15 1
    21   16   17 3
