@<TRIPOS>MOLECULE
ZINC00538633
   52    55     0     0     0
SMALL
USER_CHARGES
6-[(S)-2-[4-[(4-fluorophenyl)methyl]-1-piperidyl]ethylsulfinyl]-3H-1,3-benzoxazol-2-one
@<TRIPOS>ATOM
      1 C1         -0.8164    6.3912   -8.5652 C.ar      1 <0>        -0.0847
      2 C2          0.0023    6.1344   -9.6486 C.ar      1 <0>        -0.1488
      3 C3          0.0486    4.8628  -10.1945 C.ar      1 <0>         0.1050
      4 C4         -0.7209    3.8485   -9.6504 C.ar      1 <0>        -0.1515
      5 C5         -1.5342    4.1062   -8.5632 C.ar      1 <0>        -0.0912
      6 C6         -1.5800    5.3763   -8.0192 C.ar      1 <0>        -0.1074
      7 C7         -2.4676    5.6563   -6.8340 C.3       1 <0>        -0.0726
      8 C8         -1.6864    5.4084   -5.5420 C.3       1 <0>        -0.0961
      9 C9         -2.5449    5.8110   -4.3397 C.3       1 <0>        -0.1435
     10 C10        -1.7816    5.5057   -3.0489 C.3       1 <0>        -0.0033
     11 C11        -0.6057    3.6718   -4.1102 C.3       1 <0>        -0.0056
     12 C12        -1.3339    3.9224   -5.4327 C.3       1 <0>        -0.1470
     13 C13        -0.8581    3.7179   -1.7030 C.3       1 <0>         0.0177
     14 C14        -0.7755    2.1952   -1.5793 C.3       1 <0>        -0.5255
     15 S1         -0.0218    1.7577    0.0117 S.o       1 <0>         1.3861
     16 O1          1.3521    2.1202    0.0005 O.2       1 <0>        -0.8208
     17 C15         0.0021   -0.0041    0.0020 C.ar      1 <0>        -0.4726
     18 C16        -1.0728   -0.7103    0.5134 C.ar      1 <0>        -0.0169
     19 C17        -1.0638   -2.0916    0.5046 C.ar      1 <0>        -0.1157
     20 C18         0.0306   -2.7705   -0.0079 C.ar      1 <0>         0.1202
     21 C19         1.1164   -2.0598   -0.5186 C.ar      1 <0>         0.0225
     22 C20         1.0958   -0.6738   -0.5107 C.ar      1 <0>        -0.0080
     23 O2          2.0277   -2.9684   -0.9449 O.3       1 <0>        -0.2328
     24 C21         1.5554   -4.2048   -0.7213 C.2       1 <0>         0.6399
     25 O3          2.1364   -5.2380   -0.9924 O.2       1 <0>        -0.4635
     26 N1          0.3375   -4.1235   -0.1499 N.am      1 <0>        -0.6467
     27 H1         -0.2232   -4.8697    0.1141 H         1 <0>         0.4504
     28 F1          0.8437    4.6120  -11.2576 F         1 <0>        -0.1338
     29 H2         -0.8565    7.3842   -8.1424 H         1 <0>         0.1334
     30 H3          0.6024    6.9262  -10.0720 H         1 <0>         0.1395
     31 H4         -0.6859    2.8563  -10.0756 H         1 <0>         0.1382
     32 H5         -2.1345    3.3152   -8.1385 H         1 <0>         0.1304
     33 H6         -3.3352    4.9972   -6.8661 H         1 <0>         0.0809
     34 H7         -2.7985    6.6943   -6.8650 H         1 <0>         0.0861
     35 H8         -0.7711    6.0002   -5.5505 H         1 <0>         0.0915
     36 H9         -3.4774    5.2468   -4.3532 H         1 <0>         0.0904
     37 H10        -2.7635    6.8777   -4.3895 H         1 <0>         0.1144
     38 H11        -2.3959    5.7780   -2.1906 H         1 <0>         0.1327
     39 H12        -0.8558    6.0807   -3.0299 H         1 <0>         0.1304
     40 H13         0.3146    4.2554   -4.0860 H         1 <0>         0.1296
     41 H14        -0.3659    2.6121   -4.0227 H         1 <0>         0.1262
     42 H15        -2.2474    3.3285   -5.4633 H         1 <0>         0.0893
     43 H16        -0.6879    3.6395   -6.2638 H         1 <0>         0.1137
     44 H17        -1.4667    4.1159   -0.8910 H         1 <0>         0.1419
     45 H18         0.1445    4.1419   -1.6471 H         1 <0>         0.1328
     46 H19        -0.1669    1.7972   -2.3913 H         1 <0>         0.1118
     47 H20        -1.7781    1.7712   -1.6352 H         1 <0>         0.1406
     48 H21        -1.9228   -0.1799    0.9168 H         1 <0>         0.1583
     49 H22        -1.9051   -2.6410    0.9003 H         1 <0>         0.1507
     50 H23         1.9341   -0.1184   -0.9045 H         1 <0>         0.1468
     51 N2         -1.4941    4.0567   -2.9928 N.4       1 <0>        -0.3899
     52 H24        -2.3768    3.5387   -3.0756 H         1 <0>         0.4269
@<TRIPOS>BOND
     1    1    6 ar
     2    1    2 ar
     3    1   29 1
     4    2    3 ar
     5    2   30 1
     6    3    4 ar
     7    3   28 1
     8    4    5 ar
     9    4   31 1
    10    5    6 ar
    11    5   32 1
    12    6    7 1
    13    7    8 1
    14    7   33 1
    15    7   34 1
    16    8   12 1
    17    8    9 1
    18    8   35 1
    19    9   10 1
    20    9   36 1
    21    9   37 1
    22   10   38 1
    23   10   39 1
    24   10   51 1
    25   11   12 1
    26   11   40 1
    27   11   41 1
    28   11   51 1
    29   12   42 1
    30   12   43 1
    31   13   14 1
    32   13   44 1
    33   13   45 1
    34   13   51 1
    35   14   15 1
    36   14   46 1
    37   14   47 1
    38   15   16 2
    39   15   17 1
    40   17   22 ar
    41   17   18 ar
    42   18   19 ar
    43   18   48 1
    44   19   20 ar
    45   19   49 1
    46   20   26 1
    47   20   21 ar
    48   21   22 ar
    49   21   23 1
    50   22   50 1
    51   23   24 1
    52   24   25 2
    53   24   26 am
    54   26   27 1
    55   51   52 1
@<TRIPOS>MOLECULE
ZINC03982657
   52    55     0     0     0
SMALL
USER_CHARGES
6-[2-[4-[(4-fluorophenyl)methyl]-1-piperidyl]ethylsulfinyl]-3H-benzooxazol-2-one
@<TRIPOS>ATOM
      1 C1         -4.9927   10.6525   -7.9960 C.ar      1 <0>        -0.0845
      2 C2         -3.9185   11.2409   -8.6361 C.ar      1 <0>        -0.1487
      3 C3         -2.8893   10.4545   -9.1253 C.ar      1 <0>         0.1050
      4 C4         -2.9347    9.0797   -8.9671 C.ar      1 <0>        -0.1512
      5 C5         -4.0070    8.4940   -8.3213 C.ar      1 <0>        -0.0911
      6 C6         -5.0342    9.2802   -7.8337 C.ar      1 <0>        -0.1067
      7 C7         -6.2032    8.6403   -7.1301 C.3       1 <0>        -0.0736
      8 C8         -5.9073    8.5458   -5.6319 C.3       1 <0>        -0.0951
      9 C9         -7.1411    8.0115   -4.8993 C.3       1 <0>        -0.1444
     10 C10        -6.8198    7.8632   -3.4104 C.3       1 <0>        -0.0031
     11 C11        -4.4811    7.4552   -3.8968 C.3       1 <0>        -0.0061
     12 C12        -4.7326    7.5914   -5.4003 C.3       1 <0>        -0.1487
     13 C13        -5.4424    6.6658   -1.8200 C.3       1 <0>         0.0181
     14 C14        -4.4353    5.5214   -1.6894 C.3       1 <0>        -0.5243
     15 S1         -4.1293    5.1826    0.0662 S.o       1 <0>         1.3858
     16 O1         -5.2924    4.6098    0.6478 O.2       1 <0>        -0.8200
     17 C15        -2.9658    3.8595    0.0485 C.ar      1 <0>        -0.4735
     18 C16        -3.4125    2.5495    0.0462 C.ar      1 <0>        -0.0295
     19 C17        -2.5066    1.5068    0.0333 C.ar      1 <0>        -0.1138
     20 C18        -1.1468    1.7752    0.0164 C.ar      1 <0>         0.1198
     21 C19        -0.6956    3.0948    0.0240 C.ar      1 <0>         0.0212
     22 C20        -1.6123    4.1345    0.0374 C.ar      1 <0>         0.0057
     23 O2          0.6594    3.0571    0.0114 O.3       1 <0>        -0.2298
     24 C21         1.0648    1.7776    0.0014 C.2       1 <0>         0.6407
     25 O3          2.2232    1.4081   -0.0113 O.2       1 <0>        -0.4633
     26 N1         -0.0111    0.9658    0.0074 N.am      1 <0>        -0.6476
     27 H1          0.0021   -0.0041    0.0020 H         1 <0>         0.4500
     28 F1         -1.8417   11.0281   -9.7568 F         1 <0>        -0.1339
     29 H2         -5.7981   11.2652   -7.6188 H         1 <0>         0.1333
     30 H3         -3.8840   12.3134   -8.7585 H         1 <0>         0.1394
     31 H4         -2.1326    8.4653   -9.3486 H         1 <0>         0.1382
     32 H5         -4.0426    7.4217   -8.1978 H         1 <0>         0.1302
     33 H6         -6.3661    7.6403   -7.5320 H         1 <0>         0.0801
     34 H7         -7.0967    9.2448   -7.2865 H         1 <0>         0.0857
     35 H8         -5.6549    9.5341   -5.2475 H         1 <0>         0.0929
     36 H9         -7.4164    7.0404   -5.3107 H         1 <0>         0.0885
     37 H10        -7.9694    8.7088   -5.0252 H         1 <0>         0.1142
     38 H11        -7.6917    7.4694   -2.8882 H         1 <0>         0.1291
     39 H12        -6.5579    8.8371   -2.9968 H         1 <0>         0.1332
     40 H13        -4.2303    8.4310   -3.4808 H         1 <0>         0.1337
     41 H14        -3.6545    6.7651   -3.7279 H         1 <0>         0.1299
     42 H15        -4.9700    6.6136   -5.8195 H         1 <0>         0.0875
     43 H16        -3.8403    7.9881   -5.8846 H         1 <0>         0.1153
     44 H17        -6.3774    6.3840   -1.3359 H         1 <0>         0.1315
     45 H18        -5.0408    7.5594   -1.3421 H         1 <0>         0.1430
     46 H19        -3.5003    5.8032   -2.1734 H         1 <0>         0.1393
     47 H20        -4.8369    4.6278   -2.1672 H         1 <0>         0.1122
     48 H21        -4.4723    2.3419    0.0550 H         1 <0>         0.1456
     49 H22        -2.8569    0.4852    0.0319 H         1 <0>         0.1459
     50 H23        -1.2685    5.1584    0.0389 H         1 <0>         0.1596
     51 N2         -5.6975    6.9138   -3.2540 N.4       1 <0>        -0.3917
     52 H24        -5.9465    6.0264   -3.7066 H         1 <0>         0.4257
@<TRIPOS>BOND
     1    1    6 ar
     2    1    2 ar
     3    1   29 1
     4    2    3 ar
     5    2   30 1
     6    3    4 ar
     7    3   28 1
     8    4    5 ar
     9    4   31 1
    10    5    6 ar
    11    5   32 1
    12    6    7 1
    13    7    8 1
    14    7   33 1
    15    7   34 1
    16    8   12 1
    17    8    9 1
    18    8   35 1
    19    9   10 1
    20    9   36 1
    21    9   37 1
    22   10   38 1
    23   10   39 1
    24   10   51 1
    25   11   12 1
    26   11   40 1
    27   11   41 1
    28   11   51 1
    29   12   42 1
    30   12   43 1
    31   13   14 1
    32   13   44 1
    33   13   45 1
    34   13   51 1
    35   14   15 1
    36   14   46 1
    37   14   47 1
    38   15   16 2
    39   15   17 1
    40   17   22 ar
    41   17   18 ar
    42   18   19 ar
    43   18   48 1
    44   19   20 ar
    45   19   49 1
    46   20   26 1
    47   20   21 ar
    48   21   22 ar
    49   21   23 1
    50   22   50 1
    51   23   24 1
    52   24   25 2
    53   24   26 am
    54   26   27 1
    55   51   52 1
@<TRIPOS>MOLECULE
ZINC00007042
   55    57     0     0     0
SMALL
USER_CHARGES

@<TRIPOS>ATOM
      1 C1          0.9053   -2.1839   -0.5875 C.3       1 <0>        -0.1797
      2 C2          0.6167   -1.9912    0.9026 C.3       1 <0>        -0.1474
      3 H1          1.2762   -2.6333    1.4865 H         1 <0>         0.1056
      4 C3          0.8590   -0.5295    1.2842 C.3       1 <0>        -0.0041
      5 N1          2.2860   -0.2145    1.1345 N.4       1 <0>        -0.3834
      6 C4          2.4939    1.2221    1.3526 C.3       1 <0>        -0.0059
      7 C5          3.9655    1.5697    1.1183 C.3       1 <0>        -0.1431
      8 C6          4.8345    0.7725    2.0953 C.3       1 <0>        -0.0940
      9 C7          4.5544   -0.7216    1.9099 C.3       1 <0>        -0.1449
     10 C8          3.0610   -0.9844    2.1149 C.3       1 <0>        -0.0119
     11 C9          6.3116    1.0550    1.8139 C.3       1 <0>        -0.0745
     12 C10         7.1610    0.3678    2.8519 C.ar      1 <0>        -0.0948
     13 C11         7.4909    1.0265    4.0215 C.ar      1 <0>        -0.1160
     14 C12         8.2701    0.3962    4.9736 C.ar      1 <0>        -0.1135
     15 C13         8.7190   -0.8931    4.7562 C.ar      1 <0>        -0.1162
     16 C14         8.3883   -1.5521    3.5870 C.ar      1 <0>        -0.1161
     17 C15         7.6056   -0.9234    2.6368 C.ar      1 <0>        -0.1216
     18 C16        -0.8401   -2.3590    1.1916 C.3       1 <0>         0.1644
     19 H2         -1.0708   -2.1379    2.2337 H         1 <0>         0.1182
     20 C17        -1.0481   -3.8288    0.9320 C.ar      1 <0>        -0.1428
     21 C18        -1.2202   -4.2835   -0.3624 C.ar      1 <0>        -0.0943
     22 C19        -1.4115   -5.6303   -0.6029 C.ar      1 <0>        -0.1416
     23 C20        -1.4304   -6.5269    0.4555 C.ar      1 <0>         0.1220
     24 C21        -1.2571   -6.0683    1.7533 C.ar      1 <0>        -0.1412
     25 C22        -1.0610   -4.7211    1.9881 C.ar      1 <0>        -0.0884
     26 O1         -1.6189   -7.8523    0.2215 O.3       1 <0>        -0.4965
     27 O2         -1.7010   -1.5986    0.3415 O.3       1 <0>        -0.5471
     28 H3          1.9189   -1.8486   -0.8076 H         1 <0>         0.0573
     29 H4          0.8082   -3.2391   -0.8429 H         1 <0>         0.0917
     30 H5          0.1946   -1.6013   -1.1736 H         1 <0>         0.0762
     31 H6          0.2735    0.1182    0.6317 H         1 <0>         0.1379
     32 H7          0.5583   -0.3697    2.3196 H         1 <0>         0.1323
     33 H8          1.8724    1.7882    0.6587 H         1 <0>         0.1313
     34 H9          2.2192    1.4772    2.3761 H         1 <0>         0.1292
     35 H10         4.2412    1.3152    0.0949 H         1 <0>         0.0887
     36 H11         4.1181    2.6364    1.2825 H         1 <0>         0.1142
     37 H12         4.5947    1.0642    3.1178 H         1 <0>         0.0913
     38 H13         4.8423   -1.0237    0.9030 H         1 <0>         0.0874
     39 H14         5.1280   -1.2928    2.6399 H         1 <0>         0.1154
     40 H15         2.7742   -0.6822    3.1221 H         1 <0>         0.1294
     41 H16         2.8582   -2.0473    1.9838 H         1 <0>         0.1296
     42 H17         6.5715    0.6786    0.8245 H         1 <0>         0.0781
     43 H18         6.4897    2.1296    1.8521 H         1 <0>         0.0834
     44 H19         7.1402    2.0338    4.1914 H         1 <0>         0.1217
     45 H20         8.5284    0.9111    5.8871 H         1 <0>         0.1255
     46 H21         9.3283   -1.3853    5.4998 H         1 <0>         0.1254
     47 H22         8.7393   -2.5593    3.4170 H         1 <0>         0.1243
     48 H23         7.3441   -1.4396    1.7249 H         1 <0>         0.1191
     49 H24        -1.2053   -3.5850   -1.1860 H         1 <0>         0.1253
     50 H25        -1.5465   -5.9848   -1.6141 H         1 <0>         0.1348
     51 H26        -1.2715   -6.7643    2.5790 H         1 <0>         0.1353
     52 H27        -0.9216   -4.3641    2.9978 H         1 <0>         0.1295
     53 H28        -0.8005   -8.3463    0.0759 H         1 <0>         0.3975
     54 H29        -1.5515   -1.7456   -0.6025 H         1 <0>         0.3783
     55 H30         2.5872   -0.4582    0.2029 H         1 <0>         0.4190
@<TRIPOS>BOND
     1    1    2 1
     2    1   28 1
     3    1   29 1
     4    1   30 1
     5    2    3 1
     6    2    4 1
     7    2   18 1
     8    4    5 1
     9    4   31 1
    10    4   32 1
    11    5   10 1
    12    5    6 1
    13    5   55 1
    14    6    7 1
    15    6   33 1
    16    6   34 1
    17    7    8 1
    18    7   35 1
    19    7   36 1
    20    8    9 1
    21    8   11 1
    22    8   37 1
    23    9   10 1
    24    9   38 1
    25    9   39 1
    26   10   40 1
    27   10   41 1
    28   11   12 1
    29   11   42 1
    30   11   43 1
    31   12   17 ar
    32   12   13 ar
    33   13   14 ar
    34   13   44 1
    35   14   15 ar
    36   14   45 1
    37   15   16 ar
    38   15   46 1
    39   16   17 ar
    40   16   47 1
    41   17   48 1
    42   18   19 1
    43   18   20 1
    44   18   27 1
    45   20   25 ar
    46   20   21 ar
    47   21   22 ar
    48   21   49 1
    49   22   23 ar
    50   22   50 1
    51   23   24 ar
    52   23   26 1
    53   24   25 ar
    54   24   51 1
    55   25   52 1
    56   26   53 1
    57   27   54 1
@<TRIPOS>MOLECULE
ZINC28768623
   27    27     0     0     0
SMALL
USER_CHARGES
(2S,4R)-4-(phosphonomethyl)piperidine-2-carboxylic acid
@<TRIPOS>ATOM
      1 C1         -1.3745   -2.5417   -1.5677 C.3       1 <0>        -0.1674
      2 C2         -1.4183   -4.0649   -1.7090 C.3       1 <0>         0.0024
      3 N1         -2.7510   -4.5544   -1.3342 N.4       1 <0>        -0.5170
      4 C3         -3.0574   -4.2401    0.0671 C.3       1 <0>        -0.0095
      5 H1         -2.2856   -4.7142    0.6913 H         1 <0>         0.1270
      6 C4         -3.0626   -2.7222    0.2615 C.3       1 <0>        -0.1168
      7 C5         -1.6905   -2.1591   -0.1191 C.3       1 <0>        -0.0753
      8 H2         -0.9216   -2.5732    0.5497 H         1 <0>         0.0782
      9 C6         -1.7082   -0.6351    0.0149 C.3       1 <0>        -0.7309
     10 P1          0.0021   -0.0041    0.0020 P.3       1 <0>         2.2817
     11 O1          0.6948   -0.4814   -1.2156 O.2       1 <0>        -1.0838
     12 O2         -0.0198    1.6058    0.0109 O.3       1 <0>        -1.1192
     13 O3          0.7807   -0.5374    1.3064 O.3       1 <0>        -0.9391
     14 C7         -4.4124   -4.7964    0.4218 C.2       1 <0>         0.4598
     15 O4         -5.2035   -5.0629   -0.4516 O.co2     1 <0>        -0.6242
     16 O5         -4.7403   -4.9958    1.7081 O.co2     1 <0>        -0.7122
     17 H3         -2.1197   -2.0880   -2.2377 H         1 <0>         0.0765
     18 H4         -0.3717   -2.1757   -1.8332 H         1 <0>         0.1550
     19 H5         -1.2061   -4.3426   -2.7520 H         1 <0>         0.1238
     20 H6         -0.6633   -4.5163   -1.0486 H         1 <0>         0.1187
     21 H7         -3.5093   -4.0797   -1.9742 H         1 <0>         0.4435
     22 H8         -3.8358   -2.2731   -0.3792 H         1 <0>         0.0761
     23 H9         -3.2777   -2.4881    1.3146 H         1 <0>         0.0998
     24 H10        -2.2661   -0.1995   -0.8271 H         1 <0>         0.0895
     25 H11        -2.1950   -0.3558    0.9610 H         1 <0>         0.0777
     26 H12         1.8317   -0.2583    1.4720 H         1 <0>         0.4463
     27 H13        -2.7912   -5.6457   -1.4659 H         1 <0>         0.4396
@<TRIPOS>BOND
     1    1    7 1
     2    1    2 1
     3    1   17 1
     4    1   18 1
     5    2    3 1
     6    2   19 1
     7    2   20 1
     8    3    4 1
     9    3   21 1
    10    3   27 1
    11    4    5 1
    12    4    6 1
    13    4   14 1
    14    6    7 1
    15    6   22 1
    16    6   23 1
    17    7    8 1
    18    7    9 1
    19    9   10 1
    20    9   24 1
    21    9   25 1
    22   10   11 2
    23   10   12 1
    24   10   13 1
    25   13   26 1
    26   14   15 2
    27   14   16 1
