@<TRIPOS>MOLECULE
ZINC03964325
   57    59     0     0     0
SMALL
USER_CHARGES

@<TRIPOS>ATOM
      1 C1          0.1489    2.0884    0.1150 C.3       1 <0>        -0.1876
      2 C2          0.1348    0.5603    0.1888 C.3       1 <0>        -0.0191
      3 N1         -1.2520    0.0881    0.2979 N.4       1 <0>        -0.3822
      4 C3         -1.9779    0.4111   -0.9377 C.3       1 <0>        -0.0142
      5 C4         -3.4549    0.0484   -0.7712 C.3       1 <0>        -0.1895
      6 C5         -1.2593   -1.3663    0.5041 C.3       1 <0>        -0.0265
      7 C6         -0.6131   -1.6936    1.8518 C.3       1 <0>         0.0952
      8 N2         -0.6203   -3.1440    2.0575 N.am      1 <0>        -0.7289
      9 C7         -0.0988   -3.6675    3.1846 C.2       1 <0>         0.6111
     10 O1          0.3779   -2.9358    4.0309 O.2       1 <0>        -0.5184
     11 C8         -0.1061   -5.1270    3.3915 C.2       1 <0>        -0.2420
     12 C9          0.9071   -6.0320    3.0089 C.2       1 <0>        -0.0577
     13 C10         0.4868   -7.2892    3.3960 C.2       1 <0>        -0.0075
     14 N3         -0.7476   -7.1595    3.9982 N.pl3     1 <0>        -0.4910
     15 H1         -1.2731   -7.8879    4.3645 H         1 <0>         0.4270
     16 C11        -1.1044   -5.8642    4.0022 C.2       1 <0>         0.1158
     17 C12        -2.3825   -5.3072    4.5743 C.3       1 <0>        -0.0999
     18 C13         1.1957   -8.4957    3.2079 C.2       1 <0>         0.0729
     19 C14         0.5100   -9.6674    2.9570 C.2       1 <0>        -0.1889
     20 C15         1.0648  -11.0377    2.8871 C.ar      1 <0>        -0.0736
     21 C16         2.3472  -11.5557    3.0375 C.ar      1 <0>        -0.1000
     22 C17         2.5553  -12.9162    2.9116 C.ar      1 <0>         0.0861
     23 C18         1.4888  -13.7593    2.6366 C.ar      1 <0>        -0.1139
     24 C19         0.2139  -13.2531    2.4856 C.ar      1 <0>        -0.1021
     25 C20        -0.0144  -11.8871    2.6092 C.ar      1 <0>         0.1282
     26 N4         -1.1765  -11.1301    2.5069 N.am      1 <0>        -0.6466
     27 C21        -0.9294   -9.8245    2.7079 C.2       1 <0>         0.5595
     28 O2         -1.7538   -8.9280    2.6842 O.2       1 <0>        -0.5156
     29 F1          3.7984  -13.4252    3.0561 F         1 <0>        -0.1318
     30 C22         2.1990   -5.6919    2.3116 C.3       1 <0>        -0.0931
     31 H2          1.1793    2.4435    0.1331 H         1 <0>         0.1076
     32 H3         -0.3308    2.4121   -0.8087 H         1 <0>         0.0811
     33 H4         -0.3916    2.4984    0.9682 H         1 <0>         0.0809
     34 H5          0.5888    0.1488   -0.7126 H         1 <0>         0.1317
     35 H6          0.6996    0.2334    1.0619 H         1 <0>         0.1337
     36 H7         -1.8867    1.4775   -1.1444 H         1 <0>         0.1351
     37 H8         -1.5554   -0.1571   -1.7664 H         1 <0>         0.1307
     38 H9         -3.5537   -1.0316   -0.6617 H         1 <0>         0.0802
     39 H10        -3.8523    0.5414    0.1160 H         1 <0>         0.0808
     40 H11        -4.0109    0.3769   -1.6492 H         1 <0>         0.1074
     41 H12        -2.2871   -1.7292    0.4963 H         1 <0>         0.1397
     42 H13        -0.6973   -1.8494   -0.2952 H         1 <0>         0.1376
     43 H14         0.4147   -1.3306    1.8596 H         1 <0>         0.0893
     44 H15        -1.1751   -1.2105    2.6511 H         1 <0>         0.0890
     45 H16        -1.0005   -3.7277    1.3824 H         1 <0>         0.4099
     46 H17        -3.1529   -5.3000    3.8032 H         1 <0>         0.0840
     47 H18        -2.7087   -5.9289    5.4080 H         1 <0>         0.0782
     48 H19        -2.2103   -4.2898    4.9254 H         1 <0>         0.0840
     49 H20         2.2744   -8.5020    3.2604 H         1 <0>         0.1589
     50 H21         3.1765  -10.8977    3.2512 H         1 <0>         0.1436
     51 H22         1.6578  -14.8215    2.5394 H         1 <0>         0.1485
     52 H23        -0.6084  -13.9196    2.2712 H         1 <0>         0.1415
     53 H24        -2.0541  -11.4980    2.3189 H         1 <0>         0.4217
     54 H25         2.9686   -5.4822    3.0545 H         1 <0>         0.0785
     55 H26         2.5107   -6.5337    1.6932 H         1 <0>         0.0726
     56 H27         2.0522   -4.8138    1.6827 H         1 <0>         0.0634
     57 H28        -1.7009    0.5410    1.0799 H         1 <0>         0.4247
@<TRIPOS>BOND
     1    1    2 1
     2    1   31 1
     3    1   32 1
     4    1   33 1
     5    2    3 1
     6    2   34 1
     7    2   35 1
     8    3    4 1
     9    3    6 1
    10    3   57 1
    11    4    5 1
    12    4   36 1
    13    4   37 1
    14    5   38 1
    15    5   39 1
    16    5   40 1
    17    6    7 1
    18    6   41 1
    19    6   42 1
    20    7    8 1
    21    7   43 1
    22    7   44 1
    23    8    9 am
    24    8   45 1
    25    9   10 2
    26    9   11 1
    27   11   16 2
    28   11   12 1
    29   12   13 2
    30   12   30 1
    31   13   14 1
    32   13   18 1
    33   14   15 1
    34   14   16 1
    35   16   17 1
    36   17   46 1
    37   17   47 1
    38   17   48 1
    39   18   19 2
    40   18   49 1
    41   19   27 1
    42   19   20 1
    43   20   25 ar
    44   20   21 ar
    45   21   22 ar
    46   21   50 1
    47   22   23 ar
    48   22   29 1
    49   23   24 ar
    50   23   51 1
    51   24   25 ar
    52   24   52 1
    53   25   26 1
    54   26   27 am
    55   26   53 1
    56   27   28 2
    57   30   54 1
    58   30   55 1
    59   30   56 1
@<TRIPOS>MOLECULE
ZINC03871640
   66    69     0     0     0
SMALL
USER_CHARGES

@<TRIPOS>ATOM
      1 C1          0.0959    1.4674   -0.2512 C.ar      1 <0>        -0.1091
      2 C2          0.8146    0.9699   -1.3249 C.ar      1 <0>        -0.0948
      3 C3          1.9911    0.2592   -1.1091 C.ar      1 <0>        -0.1068
      4 C4          2.4469    0.0488    0.2089 C.ar      1 <0>        -0.1190
      5 C5          1.7091    0.5580    1.2818 C.ar      1 <0>         0.1242
      6 C6          0.5363    1.2651    1.0413 C.ar      1 <0>        -0.1480
      7 O1          2.1361    0.3623    2.5542 O.3       1 <0>        -0.4980
      8 C7          3.6928   -0.7035    0.4536 C.2       1 <0>         0.4852
      9 O2          4.7460   -0.1095    0.5851 O.2       1 <0>        -0.4322
     10 C8          3.6608   -2.1743    0.5387 C.ar      1 <0>        -0.1265
     11 C9          2.4342   -2.8546    0.5024 C.ar      1 <0>         0.1691
     12 C10         2.4088   -4.2360    0.5827 C.ar      1 <0>        -0.1057
     13 C11         3.6003   -4.9519    0.7000 C.ar      1 <0>        -0.0938
     14 C12         4.8221   -4.2796    0.7369 C.ar      1 <0>        -0.1165
     15 C13         4.8572   -2.8988    0.6505 C.ar      1 <0>         0.1730
     16 O3          6.0463   -2.2463    0.6804 O.3       1 <0>        -0.4652
     17 C14         3.5681   -6.4288    0.7860 C.2       1 <0>         0.5222
     18 O4          2.5055   -7.0158    0.7544 O.2       1 <0>        -0.4916
     19 O5          4.7174   -7.1220    0.8992 O.3       1 <0>        -0.3307
     20 C15         4.6117   -8.5449    0.9774 C.3       1 <0>         0.0657
     21 H1          3.7299   -8.8691    0.4248 H         1 <0>         0.1055
     22 C16         4.4640   -8.9632    2.4617 C.3       1 <0>        -0.1470
     23 C17         3.9653  -10.3824    2.5193 C.3       1 <0>        -0.1434
     24 C18         5.0937  -11.4275    2.5830 C.3       1 <0>        -0.0094
     25 N1          6.2180  -11.1401    1.6666 N.4       1 <0>        -0.4994
     26 C19         5.7588  -10.6833    0.3774 C.3       1 <0>        -0.0231
     27 C20         5.7981   -9.1464    0.3812 C.3       1 <0>         0.1310
     28 H2          6.6752   -8.8189    0.9394 H         1 <0>         0.1179
     29 N2          5.9207   -8.6760   -1.0008 N.am      1 <0>        -0.7209
     30 C21         7.1275   -8.6538   -1.6005 C.2       1 <0>         0.5793
     31 O6          8.1144   -9.0242   -0.9946 O.2       1 <0>        -0.5352
     32 C22         7.2511   -8.1798   -2.9929 C.ar      1 <0>        -0.1671
     33 C23         6.1190   -7.7483   -3.6891 C.ar      1 <0>        -0.0608
     34 C24         6.2385   -7.3064   -4.9878 C.ar      1 <0>        -0.1505
     35 C25         7.4831   -7.2896   -5.6064 C.ar      1 <0>         0.1533
     36 C26         8.6116   -7.7181   -4.9173 C.ar      1 <0>        -0.1554
     37 C27         8.5013   -8.1560   -3.6164 C.ar      1 <0>        -0.0342
     38 O7          7.5966   -6.8543   -6.8868 O.3       1 <0>        -0.4978
     39 O8          1.2748   -2.1593    0.3893 O.3       1 <0>        -0.4747
     40 C28         2.7579   -0.2720   -2.2534 C.2       1 <0>         0.5130
     41 O9          2.3100   -0.1755   -3.3872 O.co2     1 <0>        -0.6731
     42 O10         3.8408   -0.8086   -2.0675 O.co2     1 <0>        -0.6648
     43 H3         -0.8141    2.0219   -0.4264 H         1 <0>         0.1239
     44 H4          0.4610    1.1335   -2.3322 H         1 <0>         0.1348
     45 H5         -0.0334    1.6583    1.8704 H         1 <0>         0.1251
     46 H6          2.6589    1.0936    2.9105 H         1 <0>         0.3854
     47 H7          1.4651   -4.7604    0.5548 H         1 <0>         0.1491
     48 H8          5.7421   -4.8377    0.8285 H         1 <0>         0.1454
     49 H9          6.3403   -2.0050    1.5695 H         1 <0>         0.3934
     50 H10         5.4320   -8.8958    2.9582 H         1 <0>         0.0842
     51 H11         3.7505   -8.3050    2.9574 H         1 <0>         0.1075
     52 H12         3.3348  -10.4953    3.4013 H         1 <0>         0.1186
     53 H13         3.3599  -10.5759    1.6338 H         1 <0>         0.0921
     54 H14         5.4761  -11.4662    3.6030 H         1 <0>         0.1350
     55 H15         4.6795  -12.4038    2.3315 H         1 <0>         0.1342
     56 H16         6.8030  -10.4283    2.0779 H         1 <0>         0.4287
     57 H17         6.4137  -11.0674   -0.4047 H         1 <0>         0.1476
     58 H18         4.7384  -11.0263    0.2064 H         1 <0>         0.1422
     59 H19         5.1334   -8.3805   -1.4842 H         1 <0>         0.4133
     60 H20         5.1515   -7.7616   -3.2093 H         1 <0>         0.1278
     61 H21         5.3639   -6.9727   -5.5265 H         1 <0>         0.1421
     62 H22         9.5769   -7.7036   -5.4015 H         1 <0>         0.1409
     63 H23         9.3793   -8.4849   -3.0803 H         1 <0>         0.1415
     64 H24         7.7635   -5.9051   -6.9661 H         1 <0>         0.4053
     65 H25         0.9516   -2.0784   -0.5186 H         1 <0>         0.4012
     66 H26         6.7632  -11.9799    1.5424 H         1 <0>         0.4364
@<TRIPOS>BOND
     1    1    6 ar
     2    1    2 ar
     3    1   43 1
     4    2    3 ar
     5    2   44 1
     6    3    4 ar
     7    3   40 1
     8    4    5 ar
     9    4    8 1
    10    5    6 ar
    11    5    7 1
    12    6   45 1
    13    7   46 1
    14    8    9 2
    15    8   10 1
    16   10   15 ar
    17   10   11 ar
    18   11   12 ar
    19   11   39 1
    20   12   13 ar
    21   12   47 1
    22   13   14 ar
    23   13   17 1
    24   14   15 ar
    25   14   48 1
    26   15   16 1
    27   16   49 1
    28   17   18 2
    29   17   19 1
    30   19   20 1
    31   20   21 1
    32   20   27 1
    33   20   22 1
    34   22   23 1
    35   22   50 1
    36   22   51 1
    37   23   24 1
    38   23   52 1
    39   23   53 1
    40   24   25 1
    41   24   54 1
    42   24   55 1
    43   25   26 1
    44   25   56 1
    45   25   66 1
    46   26   27 1
    47   26   57 1
    48   26   58 1
    49   27   28 1
    50   27   29 1
    51   29   30 am
    52   29   59 1
    53   30   31 2
    54   30   32 1
    55   32   37 ar
    56   32   33 ar
    57   33   34 ar
    58   33   60 1
    59   34   35 ar
    60   34   61 1
    61   35   36 ar
    62   35   38 1
    63   36   37 ar
    64   36   62 1
    65   37   63 1
    66   38   64 1
    67   39   65 1
    68   40   41 2
    69   40   42 1
