@<TRIPOS>MOLECULE
ZINC06092461
   45    47     0     0     0
SMALL
USER_CHARGES
3-[1-(1-piperidyl)cyclohexyl]phenol
@<TRIPOS>ATOM
      1 C1          1.1504    1.7752    0.0622 C.ar      1 <0>        -0.0815
      2 C2          1.1385    3.1566   -0.0008 C.ar      1 <0>        -0.1768
      3 C3         -0.0559    3.8452    0.1007 C.ar      1 <0>        -0.0929
      4 C4         -1.2411    3.1545    0.2658 C.ar      1 <0>        -0.1219
      5 C5         -1.2325    1.7686    0.3231 C.ar      1 <0>         0.1336
      6 C6         -0.0318    1.0800    0.2268 C.ar      1 <0>        -0.1283
      7 O1         -2.3976    1.0866    0.4794 O.3       1 <0>        -0.4925
      8 C7         -0.0652    5.3506    0.0316 C.3       1 <0>         0.1193
      9 C8         -0.9064    5.9088    1.1812 C.3       1 <0>        -0.1365
     10 C9         -0.9158    7.4371    1.1111 C.3       1 <0>        -0.1337
     11 C10        -1.5166    7.8827   -0.2236 C.3       1 <0>        -0.1324
     12 C11        -0.6754    7.3246   -1.3733 C.3       1 <0>        -0.1364
     13 C12        -0.6660    5.7962   -1.3031 C.3       1 <0>        -0.1360
     14 C13         2.0692    5.5858   -1.0864 C.3       1 <0>        -0.0362
     15 C14         3.4451    6.2493   -0.9928 C.3       1 <0>        -0.1451
     16 C15         4.1924    5.6941    0.2228 C.3       1 <0>        -0.1400
     17 C16         3.3585    5.9437    1.4825 C.3       1 <0>        -0.1446
     18 C17         1.9851    5.2891    1.3172 C.3       1 <0>        -0.0405
     19 H1          2.0847    1.2394   -0.0176 H         1 <0>         0.1406
     20 H2          2.0639    3.6983   -0.1291 H         1 <0>         0.1454
     21 H3         -2.1739    3.6930    0.3454 H         1 <0>         0.1399
     22 H4         -0.0220    0.0012    0.2760 H         1 <0>         0.1422
     23 H5         -2.6410    0.9301    1.4021 H         1 <0>         0.4029
     24 H6         -1.9270    5.5350    1.0994 H         1 <0>         0.1121
     25 H7         -0.4784    5.5913    2.1321 H         1 <0>         0.0902
     26 H8          0.1048    7.8109    1.1929 H         1 <0>         0.0559
     27 H9         -1.5151    7.8348    1.9301 H         1 <0>         0.0959
     28 H10        -1.5234    8.9715   -0.2736 H         1 <0>         0.0824
     29 H11        -2.5373    7.5089   -0.3054 H         1 <0>         0.0811
     30 H12         0.3452    7.6983   -1.2915 H         1 <0>         0.0576
     31 H13        -1.1035    7.6420   -2.3241 H         1 <0>         0.0948
     32 H14        -0.0667    5.3986   -2.1222 H         1 <0>         0.0924
     33 H15        -1.6866    5.4224   -1.3849 H         1 <0>         0.1114
     34 H16         2.1924    4.5098   -1.2092 H         1 <0>         0.1453
     35 H17         1.5288    5.9894   -1.9427 H         1 <0>         0.1343
     36 H18         3.3228    7.3269   -0.8838 H         1 <0>         0.0866
     37 H19         4.0139    6.0367   -1.8980 H         1 <0>         0.1133
     38 H20         5.1557    6.1952    0.3184 H         1 <0>         0.0961
     39 H21         4.3501    4.6229    0.0967 H         1 <0>         0.0813
     40 H22         3.2349    7.0165    1.6304 H         1 <0>         0.0852
     41 H23         3.8655    5.5127    2.3459 H         1 <0>         0.1125
     42 H24         1.3838    5.4771    2.2066 H         1 <0>         0.1276
     43 H25         2.1089    4.2145    1.1831 H         1 <0>         0.1549
     44 N1          1.3079    5.8840    0.1455 N.4       1 <0>        -0.3834
     45 H26         1.2608    6.9022    0.2696 H         1 <0>         0.4240
@<TRIPOS>BOND
     1    1    6 ar
     2    1    2 ar
     3    1   19 1
     4    2    3 ar
     5    2   20 1
     6    3    4 ar
     7    3    8 1
     8    4    5 ar
     9    4   21 1
    10    5    6 ar
    11    5    7 1
    12    6   22 1
    13    7   23 1
    14    8   13 1
    15    8    9 1
    16    8   44 1
    17    9   10 1
    18    9   24 1
    19    9   25 1
    20   10   11 1
    21   10   26 1
    22   10   27 1
    23   11   12 1
    24   11   28 1
    25   11   29 1
    26   12   13 1
    27   12   30 1
    28   12   31 1
    29   13   32 1
    30   13   33 1
    31   14   15 1
    32   14   34 1
    33   14   35 1
    34   14   44 1
    35   15   16 1
    36   15   36 1
    37   15   37 1
    38   16   17 1
    39   16   38 1
    40   16   39 1
    41   17   18 1
    42   17   40 1
    43   17   41 1
    44   18   42 1
    45   18   43 1
    46   18   44 1
    47   44   45 1
@<TRIPOS>MOLECULE
ZINC25757829
   32    35     0     0     0
SMALL
USER_CHARGES

@<TRIPOS>ATOM
      1 C1         -0.0187    1.5258    0.0104 C.3       1 <0>        -0.1252
      2 C2          0.0021   -0.0041    0.0020 C.3       1 <0>         0.1700
      3 C3          0.7167   -0.5895   -1.2034 C.ar      1 <0>        -0.1069
      4 C4          0.8979    0.1802   -2.3343 C.ar      1 <0>        -0.1048
      5 C5          1.5405   -0.3573   -3.4350 C.ar      1 <0>        -0.1212
      6 C6          1.9955   -1.6623   -3.3949 C.ar      1 <0>        -0.1154
      7 C7          1.8143   -2.4276   -2.2597 C.ar      1 <0>        -0.1172
      8 C8          1.1755   -1.8892   -1.1532 C.ar      1 <0>        -0.0768
      9 C9          1.0113   -2.7345    0.0833 C.3       1 <0>        -0.1060
     10 C10         0.1766   -2.0033    1.1369 C.3       1 <0>         0.1001
     11 H1          0.2513   -2.4929    2.1079 H         1 <0>         0.1081
     12 N1          0.6774   -0.5970    1.1980 N.3       1 <0>        -0.6342
     13 C11        -1.2530   -1.8806    0.6988 C.ar      1 <0>        -0.0952
     14 C12        -1.3755   -0.6242    0.0348 C.ar      1 <0>        -0.0809
     15 C13        -2.5771   -0.1782   -0.4723 C.ar      1 <0>        -0.0931
     16 C14        -3.6801   -1.0063   -0.2906 C.ar      1 <0>        -0.1176
     17 C15        -3.5744   -2.2154    0.3646 C.ar      1 <0>        -0.1209
     18 C16        -2.3295   -2.7288    0.8705 C.ar      1 <0>        -0.0946
     19 H2          1.0039    1.9031    0.0027 H         1 <0>         0.0650
     20 H3         -0.5459    1.8868   -0.8726 H         1 <0>         0.0670
     21 H4         -0.5289    1.8773    0.9072 H         1 <0>         0.0732
     22 H5          0.5390    1.1985   -2.3601 H         1 <0>         0.1272
     23 H6          1.6860    0.2402   -4.3228 H         1 <0>         0.1244
     24 H7          2.4941   -2.0848   -4.2547 H         1 <0>         0.1231
     25 H8          2.1706   -3.4468   -2.2339 H         1 <0>         0.1229
     26 H9          0.5143   -3.6672   -0.1835 H         1 <0>         0.0854
     27 H10         1.9944   -2.9588    0.4973 H         1 <0>         0.0869
     28 H11         1.6807   -0.5800    1.0922 H         1 <0>         0.3441
     29 H12        -2.6584    0.7686   -0.9856 H         1 <0>         0.1300
     30 H13        -4.6417   -0.6950   -0.6711 H         1 <0>         0.1239
     31 H14        -4.4549   -2.8304    0.4782 H         1 <0>         0.1194
     32 H15        -2.2281   -3.6740    1.3830 H         1 <0>         0.1394
@<TRIPOS>BOND
     1    1    2 1
     2    1   19 1
     3    1   20 1
     4    1   21 1
     5    2   12 1
     6    2   14 1
     7    2    3 1
     8    3    8 ar
     9    3    4 ar
    10    4    5 ar
    11    4   22 1
    12    5    6 ar
    13    5   23 1
    14    6    7 ar
    15    6   24 1
    16    7    8 ar
    17    7   25 1
    18    8    9 1
    19    9   10 1
    20    9   26 1
    21    9   27 1
    22   10   11 1
    23   10   12 1
    24   10   13 1
    25   12   28 1
    26   13   18 ar
    27   13   14 ar
    28   14   15 ar
    29   15   16 ar
    30   15   29 1
    31   16   17 ar
    32   16   30 1
    33   17   18 ar
    34   17   31 1
    35   18   32 1
