@<TRIPOS>MOLECULE
ZINC12650333
   37    38     0     0     0
SMALL
USER_CHARGES
(2S,4S)-2-amino-4-(2-naphthylmethyl)pentanedioic acid
@<TRIPOS>ATOM
      1 C1         -3.1351    4.2810   -0.5541 C.ar      1 <0>        -0.1231
      2 C2         -3.3601    2.9056   -0.5361 C.ar      1 <0>        -0.1271
      3 C3         -2.3243    2.0273   -0.4480 C.ar      1 <0>        -0.0969
      4 C4         -1.0064    2.5108   -0.3798 C.ar      1 <0>        -0.0470
      5 C5          0.0882    1.6348   -0.2815 C.ar      1 <0>        -0.0841
      6 C6          1.3502    2.1394   -0.2116 C.ar      1 <0>        -0.0749
      7 C7          1.5752    3.5147   -0.2301 C.ar      1 <0>        -0.1018
      8 C8          0.5394    4.3930   -0.3187 C.ar      1 <0>        -0.1175
      9 C9         -0.7780    3.9094   -0.3927 C.ar      1 <0>        -0.0549
     10 C10        -1.8731    4.7855   -0.4845 C.ar      1 <0>        -0.1091
     11 C11         2.5219    1.1969   -0.1121 C.3       1 <0>        -0.0642
     12 C12         2.9648    0.7837   -1.5171 C.3       1 <0>        -0.1465
     13 H1          3.1610    1.6751   -2.1130 H         1 <0>         0.0824
     14 C13         4.2392   -0.0577   -1.4233 C.3       1 <0>        -0.1087
     15 C14         4.7659   -0.3442   -2.8309 C.3       1 <0>        -0.0082
     16 H2          4.8817    0.5940   -3.3735 H         1 <0>         0.1293
     17 C15         6.1005   -1.0378   -2.7363 C.2       1 <0>         0.4621
     18 O1          6.1693   -2.2365   -2.8717 O.co2     1 <0>        -0.6224
     19 C16         1.8746   -0.0267   -2.1695 C.2       1 <0>         0.4480
     20 O2          1.4561   -1.0227   -1.6284 O.co2     1 <0>        -0.6138
     21 H3         -3.9749    4.9564   -0.6246 H         1 <0>         0.1178
     22 H4         -4.3715    2.5313   -0.5933 H         1 <0>         0.1188
     23 H5         -2.5137    0.9641   -0.4352 H         1 <0>         0.1253
     24 H6         -0.0710    0.5667   -0.2660 H         1 <0>         0.1317
     25 H7          2.5866    3.8890   -0.1730 H         1 <0>         0.1217
     26 H8          0.7290    5.4562   -0.3324 H         1 <0>         0.1234
     27 H9         -1.7139    5.8536   -0.5002 H         1 <0>         0.1222
     28 H10         3.3468    1.6952    0.3971 H         1 <0>         0.0731
     29 H11         2.2289    0.3112    0.4516 H         1 <0>         0.0808
     30 H12         4.9940    0.4879   -0.8570 H         1 <0>         0.1030
     31 H13         4.0170   -0.9987   -0.9200 H         1 <0>         0.0846
     32 H14         4.1079   -1.3591   -4.4968 H         1 <0>         0.4153
     33 H15         3.6901   -2.0846   -3.0598 H         1 <0>         0.4248
     34 O3          7.2127   -0.3239   -2.5017 O.co2     1 <0>        -0.7201
     35 N1          3.7939   -1.1933   -3.5421 N.4       1 <0>        -0.6318
     36 H16         2.8844   -0.7176   -3.5663 H         1 <0>         0.4296
     37 O4          1.3685    0.3578   -3.3518 O.co2     1 <0>        -0.7419
@<TRIPOS>BOND
     1    1   10 ar
     2    1    2 ar
     3    1   21 1
     4    2    3 ar
     5    2   22 1
     6    3    4 ar
     7    3   23 1
     8    4    9 ar
     9    4    5 ar
    10    5    6 ar
    11    5   24 1
    12    6    7 ar
    13    6   11 1
    14    7    8 ar
    15    7   25 1
    16    8    9 ar
    17    8   26 1
    18    9   10 ar
    19   10   27 1
    20   11   12 1
    21   11   28 1
    22   11   29 1
    23   12   13 1
    24   12   14 1
    25   12   19 1
    26   14   15 1
    27   14   30 1
    28   14   31 1
    29   15   16 1
    30   15   17 1
    31   15   35 1
    32   17   18 2
    33   17   34 1
    34   19   20 2
    35   19   37 1
    36   32   35 1
    37   33   35 1
    38   35   36 1
@<TRIPOS>MOLECULE
ZINC03952369
   21    22     0     0     0
SMALL
USER_CHARGES

@<TRIPOS>ATOM
      1 C1         -0.0175    1.4395    0.0100 C.3       1 <0>         0.0569
      2 C2          1.4845    1.8218   -0.0023 C.3       1 <0>        -0.0309
      3 C3          2.1057    0.7278    0.8987 C.3       1 <0>        -0.1665
      4 H1          2.5986    1.0456    1.8176 H         1 <0>         0.1501
      5 C4          2.4853   -0.6071    0.2569 C.3       1 <0>        -0.1714
      6 H2          2.5720   -0.6357   -0.8293 H         1 <0>         0.0913
      7 C5          1.0707   -0.4136    0.8730 C.3       1 <0>         0.0195
      8 H3          0.8073   -0.9529    1.7829 H         1 <0>         0.1451
      9 O1          0.0021   -0.0041    0.0020 O.3       1 <0>        -0.3536
     10 C6          3.4472   -1.4908    1.0085 C.2       1 <0>         0.5190
     11 O2          3.3834   -2.7024    0.8879 O.co2     1 <0>        -0.6779
     12 O3          4.2892   -0.9941    1.7371 O.co2     1 <0>        -0.6728
     13 C7          1.6951    3.1905    0.5922 C.2       1 <0>         0.5139
     14 O4          1.3389    3.4199    1.7354 O.co2     1 <0>        -0.6287
     15 O5          2.2216    4.0684   -0.0701 O.co2     1 <0>        -0.6757
     16 N1          2.0314    1.7512   -1.3639 N.4       1 <0>        -0.6034
     17 H4         -0.5009    1.8118    0.9132 H         1 <0>         0.1073
     18 H5         -0.5180    1.8215   -0.8798 H         1 <0>         0.1024
     19 H6          1.5449    2.4074   -1.9562 H         1 <0>         0.4251
     20 H7          3.0138    1.9804   -1.3441 H         1 <0>         0.4352
     21 H8          1.9111    0.8174   -1.7267 H         1 <0>         0.4151
@<TRIPOS>BOND
     1    1    9 1
     2    1    2 1
     3    1   17 1
     4    1   18 1
     5    2    3 1
     6    2   13 1
     7    2   16 1
     8    3    4 1
     9    3    7 1
    10    3    5 1
    11    5    6 1
    12    5    7 1
    13    5   10 1
    14    7    8 1
    15    7    9 1
    16   10   11 2
    17   10   12 1
    18   13   14 2
    19   13   15 1
    20   16   19 1
    21   16   20 1
    22   16   21 1
@<TRIPOS>MOLECULE
ZINC02568218
   19    19     0     0     0
SMALL
USER_CHARGES

@<TRIPOS>ATOM
      1 C1         -0.0187    1.5258    0.0104 C.3       1 <0>        -0.1511
      2 C2          1.3165    0.7789   -0.0063 C.3       1 <0>        -0.1797
      3 H1          1.9064    0.7818    0.9103 H         1 <0>         0.1189
      4 C3          0.0021   -0.0041    0.0020 C.3       1 <0>        -0.1676
      5 H2         -0.2904   -0.5063   -0.9201 H         1 <0>         0.1108
      6 C4         -0.3780   -0.7121    1.2769 C.2       1 <0>         0.5163
      7 O1         -1.4157   -1.3497    1.3340 O.co2     1 <0>        -0.6874
      8 O2          0.3522   -0.6474    2.2511 O.co2     1 <0>        -0.7014
      9 C5          2.1201    0.7974   -1.3082 C.3       1 <0>        -0.0198
     10 H3          2.3141   -0.2258   -1.6300 H         1 <0>         0.1277
     11 C6          1.3346    1.5185   -2.3731 C.2       1 <0>         0.4973
     12 O3          1.7040    2.6111   -2.7685 O.co2     1 <0>        -0.6872
     13 O4          0.3296    1.0093   -2.8393 O.co2     1 <0>        -0.6316
     14 N1          3.3958    1.4912   -1.0865 N.4       1 <0>        -0.6073
     15 H4         -0.3072    2.0201    0.9381 H         1 <0>         0.0879
     16 H5         -0.3248    2.0300   -0.9061 H         1 <0>         0.1060
     17 H6          3.2162    2.4384   -0.7886 H         1 <0>         0.4297
     18 H7          3.9217    1.0084   -0.3735 H         1 <0>         0.4144
     19 H8          3.9257    1.5034   -1.9450 H         1 <0>         0.4241
@<TRIPOS>BOND
     1    1    4 1
     2    1    2 1
     3    1   15 1
     4    1   16 1
     5    2    3 1
     6    2    4 1
     7    2    9 1
     8    4    5 1
     9    4    6 1
    10    6    7 2
    11    6    8 1
    12    9   10 1
    13    9   11 1
    14    9   14 1
    15   11   12 2
    16   11   13 1
    17   14   17 1
    18   14   18 1
    19   14   19 1
@<TRIPOS>MOLECULE
ZINC38145309
   21    21     0     0     0
SMALL
USER_CHARGES

@<TRIPOS>ATOM
      1 C1         -1.1097    2.0192   -0.9979 C.3       1 <0>        -0.1893
      2 H1         -1.5271    1.6019   -1.9143 H         1 <0>         0.0930
      3 C2          0.4145    2.0775   -0.8783 C.3       1 <0>        -0.1523
      4 H2          0.8457    2.9276   -0.3496 H         1 <0>         0.0922
      5 C3         -0.3792    1.0618   -0.0543 C.3       1 <0>        -0.1502
      6 C4         -0.2904   -0.4082   -0.4691 C.3       1 <0>        -0.0130
      7 H3          0.1504   -0.4792   -1.4635 H         1 <0>         0.1312
      8 C5          0.5694   -1.1572    0.5162 C.2       1 <0>         0.5003
      9 O1          0.0520   -1.8805    1.3503 O.co2     1 <0>        -0.7074
     10 O2          1.7824   -1.0399    0.4792 O.co2     1 <0>        -0.6180
     11 N1         -1.6375   -0.9940   -0.4878 N.4       1 <0>        -0.6058
     12 C6          1.2238    1.5541   -2.0368 C.2       1 <0>         0.5156
     13 O3          0.7723    1.6047   -3.1682 O.co2     1 <0>        -0.7068
     14 O4          2.3302    1.0799   -1.8426 O.co2     1 <0>        -0.6734
     15 C7         -1.9004    3.1412   -0.3756 C.2       1 <0>         0.5202
     16 O5         -2.0343    4.1963   -0.9717 O.co2     1 <0>        -0.6934
     17 O6         -2.4061    2.9938    0.7239 O.co2     1 <0>        -0.7060
     18 H4         -0.4702    1.2436    1.0166 H         1 <0>         0.1092
     19 H5         -2.2132   -0.4925   -1.1475 H         1 <0>         0.4124
     20 H6         -1.5789   -1.9634   -0.7614 H         1 <0>         0.4151
     21 H7         -2.0456   -0.9283    0.4327 H         1 <0>         0.4266
@<TRIPOS>BOND
     1    1    2 1
     2    1    5 1
     3    1    3 1
     4    1   15 1
     5    3    4 1
     6    3    5 1
     7    3   12 1
     8    5    6 1
     9    5   18 1
    10    6    7 1
    11    6    8 1
    12    6   11 1
    13    8    9 2
    14    8   10 1
    15   11   19 1
    16   11   20 1
    17   11   21 1
    18   12   13 2
    19   12   14 1
    20   15   16 2
    21   15   17 1
@<TRIPOS>MOLECULE
ZINC26282536
   42    44     0     0     0
SMALL
USER_CHARGES
1-[(Z)-2-(cycloheptoxy)-2-(2,6-dichlorophenyl)vinyl]-1,2,4-triazole
@<TRIPOS>ATOM
      1 C1          2.7797    7.1281    3.7434 C.ar      1 <0>        -0.0805
      2 C2          2.8648    5.8930    4.3607 C.ar      1 <0>        -0.1079
      3 C3          2.8174    4.7364    3.6078 C.ar      1 <0>        -0.0122
      4 C4          2.6831    4.8157    2.2198 C.ar      1 <0>        -0.0703
      5 C5          2.6030    6.0664    1.6029 C.ar      1 <0>         0.0027
      6 C6          2.6470    7.2144    2.3690 C.ar      1 <0>        -0.1084
      7 Cl1         2.4426    6.1771   -0.1221 Cl        1 <0>        -0.0351
      8 C7          2.6320    3.5825    1.4071 C.2       1 <0>         0.1077
      9 C8          3.7296    2.8287    1.2645 C.2       1 <0>         0.0497
     10 N1          3.7169    1.7352    0.3993 N.pl3     1 <0>        -0.3177
     11 C9          4.7595    0.9420    0.0843 C.2       1 <0>         0.2503
     12 N2          4.3371    0.0326   -0.7577 N.2       1 <0>        -0.5367
     13 C10         3.0400    0.2109   -1.0027 C.2       1 <0>         0.1878
     14 N3          2.6133    1.2375   -0.3127 N.2       1 <0>        -0.2765
     15 O1          1.4705    3.2131    0.8042 O.3       1 <0>        -0.2890
     16 C11         0.3735    2.8814    1.6578 C.3       1 <0>         0.1080
     17 C12        -0.9061    3.3203    0.9988 C.3       1 <0>        -0.1178
     18 C13        -1.8827    3.7965    2.0935 C.3       1 <0>        -0.1134
     19 C14        -2.5520    2.6891    2.7598 C.3       1 <0>        -0.1232
     20 C15        -1.5628    1.7575    3.4895 C.3       1 <0>        -0.1225
     21 C16        -0.9403    0.8343    2.4773 C.3       1 <0>        -0.1171
     22 C17         0.4019    1.3671    1.9403 C.3       1 <0>        -0.1314
     23 Cl2         2.9238    3.1876    4.3846 Cl        1 <0>        -0.0457
     24 H1          2.8174    8.0294    4.3372 H         1 <0>         0.1472
     25 H2          2.9683    5.8332    5.4341 H         1 <0>         0.1454
     26 H3          2.5815    8.1820    1.8938 H         1 <0>         0.1458
     27 H4          4.6412    3.0721    1.8299 H         1 <0>         0.1785
     28 H5          5.7671    1.0390    0.4608 H         1 <0>         0.2200
     29 H6          2.4367   -0.3969   -1.6608 H         1 <0>         0.2169
     30 H7          0.4908    3.4473    2.5938 H         1 <0>         0.0560
     31 H8         -0.6952    4.1434    0.3002 H         1 <0>         0.0775
     32 H9         -1.3435    2.4747    0.4477 H         1 <0>         0.0762
     33 H10        -1.3303    4.3670    2.8547 H         1 <0>         0.0587
     34 H11        -2.6543    4.4380    1.6428 H         1 <0>         0.0667
     35 H12        -3.2598    3.0828    3.5041 H         1 <0>         0.0609
     36 H13        -3.0976    2.0896    2.0163 H         1 <0>         0.0635
     37 H14        -0.7827    2.3607    3.9770 H         1 <0>         0.0618
     38 H15        -2.1022    1.1726    4.2491 H         1 <0>         0.0636
     39 H16        -0.7547   -0.1460    2.9405 H         1 <0>         0.0603
     40 H17        -1.6227    0.7129    1.6232 H         1 <0>         0.0646
     41 H18         0.6307    0.8250    1.0109 H         1 <0>         0.0832
     42 H19         1.1748    1.1487    2.6919 H         1 <0>         0.0522
@<TRIPOS>BOND
     1    1    6 ar
     2    1    2 ar
     3    1   24 1
     4    2    3 ar
     5    2   25 1
     6    3    4 ar
     7    3   23 1
     8    4    5 ar
     9    4    8 1
    10    5    6 ar
    11    5    7 1
    12    6   26 1
    13    8    9 2
    14    8   15 1
    15    9   10 1
    16    9   27 1
    17   10   14 1
    18   10   11 1
    19   11   12 2
    20   11   28 1
    21   12   13 1
    22   13   14 2
    23   13   29 1
    24   15   16 1
    25   16   22 1
    26   16   17 1
    27   16   30 1
    28   17   18 1
    29   17   31 1
    30   17   32 1
    31   18   19 1
    32   18   33 1
    33   18   34 1
    34   19   20 1
    35   19   35 1
    36   19   36 1
    37   20   21 1
    38   20   37 1
    39   20   38 1
    40   21   22 1
    41   21   39 1
    42   21   40 1
    43   22   41 1
    44   22   42 1
@<TRIPOS>MOLECULE
ZINC13777244
   22    22     0     0     0
SMALL
USER_CHARGES
(1S,2S)-2-[(1R)-1-amino-2-hydroxy-1-methyl-2-oxo-ethyl]cyclopropane-1-carboxylic acid
@<TRIPOS>ATOM
      1 C1          2.8506   -2.6989    0.5168 C.3       1 <0>        -0.1527
      2 C2          1.5072   -2.0067    0.7554 C.3       1 <0>         0.0492
      3 C3          1.4311   -0.7350   -0.0919 C.3       1 <0>        -0.1388
      4 H1          1.1668   -0.8829   -1.1390 H         1 <0>         0.1530
      5 C4          0.9302    0.5398    0.5899 C.3       1 <0>        -0.1716
      6 C5          2.4116    0.3926    0.2368 C.3       1 <0>        -0.1767
      7 H2          3.1109    0.2284    1.0567 H         1 <0>         0.0969
      8 C6          2.9381    1.2138   -0.9119 C.2       1 <0>         0.4849
      9 O1          2.5834    0.9704   -2.0410 O.co2     1 <0>        -0.6219
     10 C7          0.3869   -2.9369    0.3670 C.2       1 <0>         0.4666
     11 O2         -0.0921   -2.8762   -0.7406 O.co2     1 <0>        -0.5712
     12 H3          3.6609   -2.0262    0.7978 H         1 <0>         0.0734
     13 H4          2.9048   -3.6049    1.1205 H         1 <0>         0.0752
     14 H5          2.9432   -2.9588   -0.5377 H         1 <0>         0.0996
     15 H6          0.6546    0.4726    1.6424 H         1 <0>         0.0768
     16 H7          0.3364    1.2306   -0.0086 H         1 <0>         0.1089
     17 H8          0.5026   -1.1976    2.3600 H         1 <0>         0.4284
     18 H9          1.4939   -2.4714    2.7610 H         1 <0>         0.4326
     19 O3          3.7967    2.2191   -0.6801 O.co2     1 <0>        -0.7617
     20 O4         -0.0788   -3.8327    1.2515 O.co2     1 <0>        -0.7474
     21 N1          1.4019   -1.6405    2.1789 N.4       1 <0>        -0.6220
     22 H10         2.1533   -0.9816    2.4144 H         1 <0>         0.4183
@<TRIPOS>BOND
     1    1    2 1
     2    1   12 1
     3    1   13 1
     4    1   14 1
     5    2    3 1
     6    2   10 1
     7    2   21 1
     8    3    4 1
     9    3    6 1
    10    3    5 1
    11    5    6 1
    12    5   15 1
    13    5   16 1
    14    6    7 1
    15    6    8 1
    16    8    9 2
    17    8   19 1
    18   10   11 2
    19   10   20 1
    20   17   21 1
    21   18   21 1
    22   21   22 1
@<TRIPOS>MOLECULE
ZINC14952270
   22    22     0     0     0
SMALL
USER_CHARGES
(1S,2R)-2-[(1R)-1-amino-2-hydroxy-1-methyl-2-oxo-ethyl]cyclopropane-1-carboxylic acid
@<TRIPOS>ATOM
      1 C1          1.5731    3.9105    1.2135 C.3       1 <0>        -0.1501
      2 C2          0.3051    3.2859    0.6278 C.3       1 <0>         0.0523
      3 C3          0.4699    1.7664    0.5590 C.3       1 <0>        -0.1292
      4 H1          0.9271    1.3028    1.4331 H         1 <0>         0.1281
      5 C4          0.7743    1.1501   -0.8079 C.3       1 <0>        -0.1834
      6 C5         -0.6091    0.9715   -0.1791 C.3       1 <0>        -0.1720
      7 H2         -0.8617   -0.0151    0.2094 H         1 <0>         0.1153
      8 C6         -1.7530    1.7447   -0.7830 C.2       1 <0>         0.4573
      9 O1         -2.1328    2.7668   -0.2624 O.co2     1 <0>        -0.5705
     10 C7         -0.8728    3.6242    1.5050 C.2       1 <0>         0.5078
     11 O2         -1.2322    2.8490    2.3592 O.co2     1 <0>        -0.6042
     12 H3          2.4250    3.6658    0.5790 H         1 <0>         0.0626
     13 H4          1.4556    4.9930    1.2625 H         1 <0>         0.0737
     14 H5          1.7420    3.5175    2.2160 H         1 <0>         0.0896
     15 H6          1.4317    0.2810   -0.8330 H         1 <0>         0.1033
     16 H7          0.8570    1.8268   -1.6584 H         1 <0>         0.0791
     17 H8          0.9163    3.7565   -1.2809 H         1 <0>         0.3917
     18 H9         -0.6902    3.3400   -1.1735 H         1 <0>         0.4289
     19 O3         -2.3498    1.2980   -1.8992 O.co2     1 <0>        -0.7439
     20 O4         -1.5225    4.7867    1.3372 O.co2     1 <0>        -0.7472
     21 N1          0.0716    3.8395   -0.7177 N.4       1 <0>        -0.6191
     22 H10        -0.1801    4.8315   -0.6355 H         1 <0>         0.4297
@<TRIPOS>BOND
     1    1    2 1
     2    1   12 1
     3    1   13 1
     4    1   14 1
     5    2    3 1
     6    2   10 1
     7    2   21 1
     8    3    4 1
     9    3    6 1
    10    3    5 1
    11    5    6 1
    12    5   15 1
    13    5   16 1
    14    6    7 1
    15    6    8 1
    16    8    9 2
    17    8   19 1
    18   10   11 2
    19   10   20 1
    20   17   21 1
    21   18   21 1
    22   21   22 1
@<TRIPOS>MOLECULE
ZINC03973446
   23    24     0     0     0
SMALL
USER_CHARGES

@<TRIPOS>ATOM
      1 C1         -2.6783   -2.2665    1.3191 C.3       1 <0>        -0.1098
      2 C2         -1.7673   -1.0222    1.4638 C.3       1 <0>        -0.1125
      3 C3         -1.2926   -0.7753    0.0102 C.3       1 <0>         0.0380
      4 C4         -1.0821   -2.1900   -0.5678 C.3       1 <0>        -0.1558
      5 H1         -0.0694   -2.4666   -0.8610 H         1 <0>         0.1654
      6 C5         -1.9623   -3.1393    0.2677 C.3       1 <0>        -0.1500
      7 H2         -1.6162   -4.1234    0.5840 H         1 <0>         0.1365
      8 C6         -2.2766   -2.8954   -1.2096 C.3       1 <0>         0.0366
      9 C7         -1.9848   -4.0142   -2.1761 C.2       1 <0>         0.4879
     10 O1         -0.8622   -4.4501   -2.2746 O.co2     1 <0>        -0.5965
     11 F1         -3.3991   -2.1164   -1.5103 F         1 <0>        -0.1809
     12 C8          0.0021   -0.0041    0.0020 C.2       1 <0>         0.4704
     13 O2          1.0565   -0.5939   -0.0112 O.co2     1 <0>        -0.5731
     14 H3         -2.7530   -2.7970    2.2684 H         1 <0>         0.0939
     15 H4         -3.6672   -1.9761    0.9644 H         1 <0>         0.0733
     16 H5         -0.9204   -1.2372    2.1154 H         1 <0>         0.1090
     17 H6         -2.3349   -0.1689    1.8350 H         1 <0>         0.0884
     18 H7         -2.4879    0.8592   -0.3618 H         1 <0>         0.4276
     19 H8         -2.0729    0.0057   -1.7275 H         1 <0>         0.4305
     20 O3         -2.9720   -4.5265   -2.9277 O.co2     1 <0>        -0.7303
     21 O4         -0.0161    1.3381    0.0094 O.co2     1 <0>        -0.7420
     22 N1         -2.3422   -0.0720   -0.7482 N.4       1 <0>        -0.6254
     23 H9         -3.2188   -0.6027   -0.6829 H         1 <0>         0.4190
@<TRIPOS>BOND
     1    1    6 1
     2    1    2 1
     3    1   14 1
     4    1   15 1
     5    2    3 1
     6    2   16 1
     7    2   17 1
     8    3    4 1
     9    3   12 1
    10    3   22 1
    11    4    5 1
    12    4    8 1
    13    4    6 1
    14    6    7 1
    15    6    8 1
    16    8    9 1
    17    8   11 1
    18    9   10 2
    19    9   20 1
    20   12   13 2
    21   12   21 1
    22   18   22 1
    23   19   22 1
    24   22   23 1
@<TRIPOS>MOLECULE
ZINC03981368
   23    24     0     0     0
SMALL
USER_CHARGES
4-amino-3-fluoro-bicyclo[3.1.0]hexane-4,6-dicarboxylic acid
@<TRIPOS>ATOM
      1 C1          3.2619    2.4661   -1.2994 C.3       1 <0>        -0.1281
      2 C2          3.6801    1.4352   -0.2307 C.3       1 <0>        -0.1385
      3 H1          4.3721    0.6474   -0.5285 H         1 <0>         0.1295
      4 C3          3.6035    1.8475    1.2407 C.3       1 <0>        -0.1452
      5 H2          3.4843    2.9086    1.4598 H         1 <0>         0.0905
      6 C4          2.4202    1.1231    0.5957 C.3       1 <0>        -0.1550
      7 H3          2.1746    0.1110    0.9176 H         1 <0>         0.1596
      8 C5          1.2804    1.9752    0.0004 C.3       1 <0>         0.0146
      9 C6          1.7352    2.2555   -1.4534 C.3       1 <0>         0.0968
     10 H4          1.5261    1.3998   -2.0953 H         1 <0>         0.1290
     11 F1          1.1229    3.4112   -1.9503 F         1 <0>        -0.1992
     12 C7         -0.0143    1.2041    0.0087 C.2       1 <0>         0.4702
     13 O1          0.0021   -0.0041    0.0020 O.co2     1 <0>        -0.5669
     14 C8          4.4413    1.0714    2.2240 C.2       1 <0>         0.4862
     15 O2          4.1674   -0.0782    2.4759 O.co2     1 <0>        -0.6158
     16 H5          3.4747    3.4787   -0.9565 H         1 <0>         0.0823
     17 H6          3.7716    2.2666   -2.2420 H         1 <0>         0.1014
     18 H7          0.4099    3.8086    0.3460 H         1 <0>         0.4364
     19 H8          0.9536    3.0528    1.7240 H         1 <0>         0.4372
     20 O3         -1.1857    1.8593    0.0178 O.co2     1 <0>        -0.7345
     21 N1          1.1568    3.2415    0.7438 N.4       1 <0>        -0.6147
     22 H9          2.0413    3.7589    0.6786 H         1 <0>         0.4175
     23 O4          5.4917    1.6572    2.8200 O.co2     1 <0>        -0.7537
@<TRIPOS>BOND
     1    1    9 1
     2    1    2 1
     3    1   16 1
     4    1   17 1
     5    2    3 1
     6    2    6 1
     7    2    4 1
     8    4    5 1
     9    4    6 1
    10    4   14 1
    11    6    7 1
    12    6    8 1
    13    8    9 1
    14    8   12 1
    15    8   21 1
    16    9   10 1
    17    9   11 1
    18   12   13 2
    19   12   20 1
    20   14   15 2
    21   14   23 1
    22   18   21 1
    23   19   21 1
    24   21   22 1
@<TRIPOS>MOLECULE
ZINC02004213
   22    22     0     0     0
SMALL
USER_CHARGES

@<TRIPOS>ATOM
      1 C1         -0.0189    1.5447    0.0105 C.3       1 <0>        -0.0986
      2 C2          1.4713    1.9433   -0.0016 C.3       1 <0>        -0.1173
      3 C3          2.2394    0.7548   -0.6059 C.3       1 <0>        -0.0300
      4 C4          1.1891   -0.3246   -0.9400 C.3       1 <0>        -0.0872
      5 C5          0.0021   -0.0041    0.0020 C.3       1 <0>        -0.1481
      6 H1          0.1874   -0.3934    1.0031 H         1 <0>         0.0877
      7 C6         -1.2858   -0.5526   -0.5561 C.2       1 <0>         0.4983
      8 O1         -2.1746    0.2083   -0.8991 O.co2     1 <0>        -0.6973
      9 O2         -1.4391   -1.7573   -0.6645 O.co2     1 <0>        -0.6962
     10 C7          3.2307    0.2184    0.3944 C.2       1 <0>         0.5052
     11 O3          2.8455   -0.1825    1.4795 O.co2     1 <0>        -0.6273
     12 O4          4.4178    0.1853    0.1186 O.co2     1 <0>        -0.6905
     13 N1          2.9355    1.1752   -1.8293 N.4       1 <0>        -0.6069
     14 H2         -0.5055    1.9146    0.9130 H         1 <0>         0.0668
     15 H3         -0.5226    1.9242   -0.8785 H         1 <0>         0.0752
     16 H4          1.6151    2.8321   -0.6160 H         1 <0>         0.0625
     17 H5          1.8155    2.1321    1.0153 H         1 <0>         0.0904
     18 H6          0.8805   -0.2469   -1.9825 H         1 <0>         0.0658
     19 H7          1.5841   -1.3188   -0.7312 H         1 <0>         0.0838
     20 H8          3.6040    1.8968   -1.6047 H         1 <0>         0.4237
     21 H9          3.4164    0.3845   -2.2312 H         1 <0>         0.4272
     22 H10         2.2642    1.5331   -2.4921 H         1 <0>         0.4125
@<TRIPOS>BOND
     1    1    5 1
     2    1    2 1
     3    1   14 1
     4    1   15 1
     5    2    3 1
     6    2   16 1
     7    2   17 1
     8    3    4 1
     9    3   10 1
    10    3   13 1
    11    4    5 1
    12    4   18 1
    13    4   19 1
    14    5    6 1
    15    5    7 1
    16    7    8 2
    17    7    9 1
    18   10   11 2
    19   10   12 1
    20   13   20 1
    21   13   21 1
    22   13   22 1
@<TRIPOS>MOLECULE
ZINC12650213
   34    34     0     0     0
SMALL
USER_CHARGES
(2S,4S)-2-amino-4-(p-tolylmethyl)pentanedioic acid
@<TRIPOS>ATOM
      1 C1          1.6374   -4.0518   -2.7402 C.3       1 <0>        -0.1095
      2 C2          1.2291   -2.7353   -2.1310 C.ar      1 <0>        -0.0996
      3 C3          1.1263   -2.6112   -0.7581 C.ar      1 <0>        -0.1206
      4 C4          0.7526   -1.4033   -0.1994 C.ar      1 <0>        -0.0857
      5 C5          0.4821   -0.3194   -1.0135 C.ar      1 <0>        -0.0761
      6 C6          0.5798   -0.4449   -2.3867 C.ar      1 <0>        -0.1236
      7 C7          0.9577   -1.6516   -2.9452 C.ar      1 <0>        -0.1288
      8 C8          0.0748    0.9974   -0.4043 C.3       1 <0>        -0.0708
      9 C9          1.3205    1.8479   -0.1481 C.3       1 <0>        -0.1323
     10 H1          1.8713    1.9755   -1.0800 H         1 <0>         0.0577
     11 C10         0.9011    3.2181    0.3881 C.3       1 <0>        -0.1089
     12 C11         0.1020    3.9624   -0.6835 C.3       1 <0>        -0.0178
     13 H2         -0.7266    3.3381   -1.0179 H         1 <0>         0.1370
     14 C12        -0.4372    5.2461   -0.1070 C.2       1 <0>         0.4626
     15 O1          0.1245    6.2921   -0.3316 O.co2     1 <0>        -0.6247
     16 C13         2.1991    1.1596    0.8645 C.2       1 <0>         0.4744
     17 O2          1.7012    0.5498    1.7811 O.co2     1 <0>        -0.6238
     18 H3          0.7493   -4.6530   -2.9352 H         1 <0>         0.0646
     19 H4          2.1664   -3.8708   -3.6759 H         1 <0>         0.0612
     20 H5          2.2920   -4.5841   -2.0499 H         1 <0>         0.0633
     21 H6          1.3383   -3.4579   -0.1220 H         1 <0>         0.1172
     22 H7          0.6723   -1.3064    0.8733 H         1 <0>         0.1379
     23 H8          0.3643    0.4007   -3.0229 H         1 <0>         0.1110
     24 H9          1.0384   -1.7485   -4.0178 H         1 <0>         0.1141
     25 H10        -0.5903    1.5241   -1.0887 H         1 <0>         0.0581
     26 H11        -0.4423    0.8173    0.5381 H         1 <0>         0.0883
     27 H12         0.2834    3.0871    1.2766 H         1 <0>         0.1104
     28 H13         1.7895    3.7951    0.6451 H         1 <0>         0.0828
     29 H14         0.4577    4.7013   -2.5718 H         1 <0>         0.4253
     30 H15         1.7533    4.8452   -1.5391 H         1 <0>         0.4339
     31 O3         -1.5414    5.2276    0.6559 O.co2     1 <0>        -0.7084
     32 N1          0.9843    4.2436   -1.8296 N.4       1 <0>        -0.6252
     33 H16         1.3666    3.3598   -2.1861 H         1 <0>         0.4229
     34 O4          3.5348    1.2240    0.7482 O.co2     1 <0>        -0.7667
@<TRIPOS>BOND
     1    1    2 1
     2    1   18 1
     3    1   19 1
     4    1   20 1
     5    2    7 ar
     6    2    3 ar
     7    3    4 ar
     8    3   21 1
     9    4    5 ar
    10    4   22 1
    11    5    6 ar
    12    5    8 1
    13    6    7 ar
    14    6   23 1
    15    7   24 1
    16    8    9 1
    17    8   25 1
    18    8   26 1
    19    9   10 1
    20    9   11 1
    21    9   16 1
    22   11   12 1
    23   11   27 1
    24   11   28 1
    25   12   13 1
    26   12   14 1
    27   12   32 1
    28   14   15 2
    29   14   31 1
    30   16   17 2
    31   16   34 1
    32   29   32 1
    33   30   32 1
    34   32   33 1
@<TRIPOS>MOLECULE
ZINC00019969
   37    38     0     0     0
SMALL
USER_CHARGES
2-amino-4-(2-naphthylmethyl)pentanedioic acid
@<TRIPOS>ATOM
      1 C1         -9.9189    5.0129   -2.6144 C.ar      1 <0>        -0.1226
      2 C2         -9.9097    3.6224   -2.5202 C.ar      1 <0>        -0.1379
      3 C3         -8.7400    2.9268   -2.5356 C.ar      1 <0>        -0.0856
      4 C4         -7.5214    3.6179   -2.6471 C.ar      1 <0>        -0.0518
      5 C5         -6.2941    2.9337   -2.6726 C.ar      1 <0>        -0.0052
      6 C6         -5.1334    3.6366   -2.7770 C.ar      1 <0>        -0.0886
      7 C7         -5.1426    5.0271   -2.8706 C.ar      1 <0>        -0.0972
      8 C8         -6.3122    5.7228   -2.8552 C.ar      1 <0>        -0.1389
      9 C9         -7.5308    5.0319   -2.7428 C.ar      1 <0>        -0.0493
     10 C10        -8.7585    5.7156   -2.7240 C.ar      1 <0>        -0.1164
     11 C11        -3.8189    2.8999   -2.7980 C.3       1 <0>        -0.0551
     12 C12        -3.2967    2.7478   -1.3680 C.3       1 <0>        -0.1395
     13 H1         -3.2376    3.7288   -0.8965 H         1 <0>         0.0569
     14 C13        -1.9054    2.1118   -1.3981 C.3       1 <0>        -0.1014
     15 C14        -1.3313    2.0738    0.0196 C.3       1 <0>        -0.0197
     16 H2         -2.0296    1.5605    0.6807 H         1 <0>         0.1619
     17 C15        -0.0161    1.3381    0.0094 C.2       1 <0>         0.4638
     18 O1          1.0219    1.9564    0.0028 O.co2     1 <0>        -0.6379
     19 C16        -4.2342    1.8681   -0.5817 C.2       1 <0>         0.4515
     20 O2         -3.8310    0.8382   -0.0953 O.co2     1 <0>        -0.6193
     21 H3        -10.8610    5.5408   -2.6005 H         1 <0>         0.1142
     22 H4        -10.8447    3.0889   -2.4340 H         1 <0>         0.1157
     23 H5         -8.7482    1.8494   -2.4618 H         1 <0>         0.1234
     24 H6         -6.2719    1.8560   -2.6057 H         1 <0>         0.1242
     25 H7         -4.2075    5.5606   -2.9571 H         1 <0>         0.1107
     26 H8         -6.3039    6.8003   -2.9292 H         1 <0>         0.1160
     27 H9         -8.7811    6.7929   -2.7965 H         1 <0>         0.1179
     28 H10        -3.0970    3.4617   -3.3907 H         1 <0>         0.0630
     29 H11        -3.9622    1.9135   -3.2393 H         1 <0>         0.0702
     30 H12        -1.2503    2.7012   -2.0396 H         1 <0>         0.0649
     31 H13        -1.9784    1.0966   -1.7879 H         1 <0>         0.1089
     32 H14        -0.8030    3.4493    1.4574 H         1 <0>         0.4257
     33 H15        -0.4769    3.9432   -0.0969 H         1 <0>         0.4239
     34 O3          0.0021   -0.0041    0.0020 O.co2     1 <0>        -0.7034
     35 N1         -1.1446    3.4550    0.4977 N.4       1 <0>        -0.6254
     36 H16        -2.0448    3.9479    0.4655 H         1 <0>         0.4206
     37 O4         -5.5172    2.2287   -0.4217 O.co2     1 <0>        -0.7383
@<TRIPOS>BOND
     1    1   10 ar
     2    1    2 ar
     3    1   21 1
     4    2    3 ar
     5    2   22 1
     6    3    4 ar
     7    3   23 1
     8    4    9 ar
     9    4    5 ar
    10    5    6 ar
    11    5   24 1
    12    6    7 ar
    13    6   11 1
    14    7    8 ar
    15    7   25 1
    16    8    9 ar
    17    8   26 1
    18    9   10 ar
    19   10   27 1
    20   11   12 1
    21   11   28 1
    22   11   29 1
    23   12   13 1
    24   12   14 1
    25   12   19 1
    26   14   15 1
    27   14   30 1
    28   14   31 1
    29   15   16 1
    30   15   17 1
    31   15   35 1
    32   17   18 2
    33   17   34 1
    34   19   20 2
    35   19   37 1
    36   32   35 1
    37   33   35 1
    38   35   36 1
@<TRIPOS>MOLECULE
ZINC12650594
   34    34     0     0     0
SMALL
USER_CHARGES
(2S,4S)-2-amino-4-[[4-(trifluoromethyl)phenyl]methyl]pentanedioic acid
@<TRIPOS>ATOM
      1 C1         -0.1484    1.4684   -4.1973 C.ar      1 <0>        -0.1271
      2 C2         -0.1988    2.0507   -5.4501 C.ar      1 <0>        -0.0755
      3 C3          0.2032    3.3625   -5.6192 C.ar      1 <0>        -0.1940
      4 C4          0.6526    4.0929   -4.5350 C.ar      1 <0>        -0.0627
      5 C5          0.6993    3.5118   -3.2816 C.ar      1 <0>        -0.0802
      6 C6          0.2961    2.2005   -3.1123 C.ar      1 <0>        -0.0317
      7 C7          0.3469    1.5670   -1.7458 C.3       1 <0>        -0.0761
      8 C8         -0.9829    1.8001   -1.0258 C.3       1 <0>        -0.1349
      9 H1         -1.8008    1.4322   -1.6453 H         1 <0>         0.0595
     10 C9         -0.9779    1.0525    0.3091 C.3       1 <0>        -0.1071
     11 C10        -0.9408   -0.4548    0.0493 C.3       1 <0>        -0.0198
     12 H2         -0.0825   -0.6943   -0.5783 H         1 <0>         0.1358
     13 C11        -0.8242   -1.1878    1.3609 C.2       1 <0>         0.4626
     14 O1         -1.8052   -1.6777    1.8684 O.co2     1 <0>        -0.6248
     15 C12        -1.1666    3.2747   -0.7751 C.2       1 <0>         0.4672
     16 O2         -0.6492    3.7932    0.1858 O.co2     1 <0>        -0.6268
     17 C13         0.1518    3.9961   -6.9855 C.3       1 <0>         0.5101
     18 F1          1.3678    3.7839   -7.6440 F         1 <0>        -0.1814
     19 F2         -0.8864    3.4221   -7.7271 F         1 <0>        -0.1808
     20 F3         -0.0736    5.3705   -6.8540 F         1 <0>        -0.1772
     21 H3         -0.4593    0.4425   -4.0658 H         1 <0>         0.1243
     22 H4         -0.5496    1.4799   -6.2972 H         1 <0>         0.1291
     23 H5          0.9670    5.1177   -4.6672 H         1 <0>         0.1314
     24 H6          1.0504    4.0825   -2.4346 H         1 <0>         0.1335
     25 H7          1.1560    2.0138   -1.1681 H         1 <0>         0.0871
     26 H8          0.5219    0.4961   -1.8481 H         1 <0>         0.0687
     27 H9         -0.0997    1.3436    0.8853 H         1 <0>         0.1157
     28 H10        -1.8791    1.3027    0.8689 H         1 <0>         0.0803
     29 H11        -2.1860   -1.8606   -0.7942 H         1 <0>         0.4267
     30 H12        -2.9898   -0.5744   -0.1120 H         1 <0>         0.4331
     31 O3          0.3694   -1.2965    1.9652 O.co2     1 <0>        -0.7079
     32 N1         -2.1732   -0.8517   -0.6542 N.4       1 <0>        -0.6255
     33 H13        -2.2046   -0.3862   -1.5689 H         1 <0>         0.4220
     34 O4         -1.9052    4.0121   -1.6193 O.co2     1 <0>        -0.7534
@<TRIPOS>BOND
     1    1    6 ar
     2    1    2 ar
     3    1   21 1
     4    2    3 ar
     5    2   22 1
     6    3    4 ar
     7    3   17 1
     8    4    5 ar
     9    4   23 1
    10    5    6 ar
    11    5   24 1
    12    6    7 1
    13    7    8 1
    14    7   25 1
    15    7   26 1
    16    8    9 1
    17    8   10 1
    18    8   15 1
    19   10   11 1
    20   10   27 1
    21   10   28 1
    22   11   12 1
    23   11   13 1
    24   11   32 1
    25   13   14 2
    26   13   31 1
    27   15   16 2
    28   15   34 1
    29   17   18 1
    30   17   19 1
    31   17   20 1
    32   29   32 1
    33   30   32 1
    34   32   33 1
@<TRIPOS>MOLECULE
ZINC06256449
   33    35     0     0     0
SMALL
USER_CHARGES

@<TRIPOS>ATOM
      1 C1         -0.6491    1.4702    0.0739 C.3       1 <0>        -0.1154
      2 C2         -0.5179   -0.0310    0.0545 C.ar      1 <0>        -0.0754
      3 C3         -0.6936   -0.7225   -1.1289 C.ar      1 <0>        -0.1147
      4 C4         -0.5742   -2.1012   -1.1541 C.ar      1 <0>        -0.1327
      5 C5         -0.2778   -2.7894    0.0104 C.ar      1 <0>         0.1351
      6 C6         -0.1001   -2.0917    1.2043 C.ar      1 <0>         0.1530
      7 C7         -0.2162   -0.7122    1.2211 C.ar      1 <0>        -0.1391
      8 N1          0.2023   -2.6043    2.4767 N.am      1 <0>        -0.6784
      9 C8          0.3911   -3.8892    2.8377 C.2       1 <0>         0.5734
     10 O1          0.6445   -4.0722    4.0149 O.2       1 <0>        -0.5400
     11 C9          0.3351   -5.0501    2.0405 C.2       1 <0>        -0.3178
     12 C10         0.0775   -5.1672    0.7084 C.2       1 <0>         0.2798
     13 N2         -0.1969   -4.1737   -0.2087 N.pl3     1 <0>        -0.6563
     14 C11         0.0947   -6.5435    0.1731 C.ar      1 <0>        -0.0906
     15 C12        -0.5848   -7.5645    0.8412 C.ar      1 <0>        -0.0824
     16 C13        -0.5648   -8.8476    0.3353 C.ar      1 <0>        -0.1177
     17 C14         0.1262   -9.1243   -0.8312 C.ar      1 <0>        -0.1008
     18 C15         0.8016   -8.1174   -1.4982 C.ar      1 <0>        -0.1181
     19 C16         0.7857   -6.8288   -1.0066 C.ar      1 <0>        -0.0990
     20 H1          0.3220    1.9223   -0.1281 H         1 <0>         0.0733
     21 H2         -1.3612    1.7825   -0.6899 H         1 <0>         0.0694
     22 H3         -1.0027    1.7914    1.0535 H         1 <0>         0.0681
     23 H4         -0.9252   -0.1855   -2.0369 H         1 <0>         0.1306
     24 H5         -0.7124   -2.6394   -2.0802 H         1 <0>         0.1353
     25 H6         -0.0751   -0.1687    2.1437 H         1 <0>         0.1365
     26 H7          0.2864   -1.9492    3.1870 H         1 <0>         0.4092
     27 H8          0.5235   -5.9783    2.5595 H         1 <0>         0.1524
     28 H9         -0.3535   -4.4688   -1.1194 H         1 <0>         0.4117
     29 H10        -1.1242   -7.3501    1.7519 H         1 <0>         0.1336
     30 H11        -1.0895   -9.6383    0.8511 H         1 <0>         0.1316
     31 H12         0.1388  -10.1307   -1.2226 H         1 <0>         0.1286
     32 H13         1.3390   -8.3403   -2.4082 H         1 <0>         0.1300
     33 H14         1.3096   -6.0430   -1.5306 H         1 <0>         0.1266
@<TRIPOS>BOND
     1    1    2 1
     2    1   20 1
     3    1   21 1
     4    1   22 1
     5    2    7 ar
     6    2    3 ar
     7    3    4 ar
     8    3   23 1
     9    4    5 ar
    10    4   24 1
    11    5    6 ar
    12    5   13 1
    13    6    7 ar
    14    6    8 1
    15    7   25 1
    16    8   26 1
    17    8    9 am
    18    9   10 2
    19    9   11 1
    20   11   27 1
    21   11   12 2
    22   12   14 1
    23   12   13 1
    24   13   28 1
    25   14   19 ar
    26   14   15 ar
    27   15   16 ar
    28   15   29 1
    29   16   17 ar
    30   16   30 1
    31   17   18 ar
    32   17   31 1
    33   18   19 ar
    34   18   32 1
    35   19   33 1
@<TRIPOS>MOLECULE
ZINC04262475
   29    30     0     0     0
SMALL
USER_CHARGES
(1S,2S,3R)-2-[(1S)-1-amino-2-hydroxy-2-oxo-ethyl]-3-phenyl-cyclopropane-1-carboxylic acid
@<TRIPOS>ATOM
      1 C1         -4.5423    5.3764   -1.8043 C.ar      1 <0>        -0.1285
      2 C2         -4.4353    4.4381   -2.8138 C.ar      1 <0>        -0.1103
      3 C3         -3.6837    3.2946   -2.6177 C.ar      1 <0>        -0.1000
      4 C4         -3.0395    3.0892   -1.4120 C.ar      1 <0>        -0.0358
      5 C5         -3.1512    4.0248   -0.4005 C.ar      1 <0>        -0.1363
      6 C6         -3.8984    5.1708   -0.5984 C.ar      1 <0>        -0.1178
      7 C7         -2.2206    1.8423   -1.1981 C.3       1 <0>        -0.0713
      8 H1         -1.8839    1.3395   -2.1047 H         1 <0>         0.1228
      9 C8         -2.5682    0.9670    0.0077 C.3       1 <0>        -0.1414
     10 H2         -2.4602   -0.1117   -0.1057 H         1 <0>         0.1366
     11 C9         -1.2901    1.8080    0.0159 C.3       1 <0>        -0.1693
     12 H3         -1.2699    2.6873    0.6597 H         1 <0>         0.1015
     13 C10         0.0218    1.0815   -0.1332 C.2       1 <0>         0.4838
     14 O1          0.0364   -0.1207   -0.2536 O.co2     1 <0>        -0.6233
     15 C11        -3.7207    1.4246    0.9040 C.3       1 <0>         0.0018
     16 H4         -4.0949    2.3860    0.5523 H         1 <0>         0.1417
     17 C12        -4.8299    0.4056    0.8554 C.2       1 <0>         0.4660
     18 O2         -4.9501   -0.3996    1.7481 O.co2     1 <0>        -0.6242
     19 H5         -5.1291    6.2700   -1.9576 H         1 <0>         0.1198
     20 H6         -4.9386    4.5986   -3.7558 H         1 <0>         0.1228
     21 H7         -3.6002    2.5615   -3.4064 H         1 <0>         0.1260
     22 H8         -2.6515    3.8622    0.5430 H         1 <0>         0.1115
     23 H9         -3.9823    5.9037    0.1904 H         1 <0>         0.1202
     24 H10        -2.8125    0.7062    2.6062 H         1 <0>         0.4370
     25 H11        -2.6056    2.3398    2.3728 H         1 <0>         0.4169
     26 O3          1.1738    1.7704   -0.1380 O.co2     1 <0>        -0.7542
     27 O4         -5.6845    0.3927   -0.1797 O.co2     1 <0>        -0.7040
     28 N1         -3.2637    1.5659    2.2977 N.4       1 <0>        -0.6223
     29 H12        -4.0729    1.7545    2.9008 H         1 <0>         0.4303
@<TRIPOS>BOND
     1    1    6 ar
     2    1    2 ar
     3    1   19 1
     4    2    3 ar
     5    2   20 1
     6    3    4 ar
     7    3   21 1
     8    4    5 ar
     9    4    7 1
    10    5    6 ar
    11    5   22 1
    12    6   23 1
    13    7    8 1
    14    7   11 1
    15    7    9 1
    16    9   10 1
    17    9   11 1
    18    9   15 1
    19   11   12 1
    20   11   13 1
    21   13   14 2
    22   13   26 1
    23   15   16 1
    24   15   17 1
    25   15   28 1
    26   17   18 2
    27   17   27 1
    28   24   28 1
    29   25   28 1
    30   28   29 1
@<TRIPOS>MOLECULE
ZINC05225893
   31    31     0     0     0
SMALL
USER_CHARGES
2-amino-4-benzyl-pentanedioic acid
@<TRIPOS>ATOM
      1 C1          0.9565    2.5086    1.1938 C.ar      1 <0>        -0.1302
      2 C2         -0.1825    1.7504    0.9969 C.ar      1 <0>        -0.1264
      3 C3         -1.3808    2.3691    0.6935 C.ar      1 <0>        -0.1234
      4 C4         -1.4425    3.7467    0.5973 C.ar      1 <0>        -0.0618
      5 C5         -0.3036    4.5050    0.7942 C.ar      1 <0>        -0.0838
      6 C6          0.8959    3.8859    1.0924 C.ar      1 <0>        -0.1146
      7 C7         -2.7500    4.4215    0.2718 C.3       1 <0>        -0.0700
      8 C8         -2.9568    4.4285   -1.2442 C.3       1 <0>        -0.1333
      9 H1         -2.8907    3.4092   -1.6246 H         1 <0>         0.0583
     10 C9         -4.3364    5.0052   -1.5681 C.3       1 <0>        -0.1039
     11 C10        -5.4199    4.0672   -1.0323 C.3       1 <0>        -0.0198
     12 H2         -5.2670    3.9076    0.0350 H         1 <0>         0.1363
     13 C11        -6.7758    4.6848   -1.2587 C.2       1 <0>         0.4599
     14 O1         -7.4543    4.3273   -2.1924 O.co2     1 <0>        -0.6264
     15 C12        -1.8930    5.2765   -1.8924 C.2       1 <0>         0.4690
     16 O2         -2.0434    6.4722   -1.9793 O.co2     1 <0>        -0.6309
     17 H3          1.8937    2.0250    1.4264 H         1 <0>         0.1141
     18 H4         -0.1351    0.6743    1.0758 H         1 <0>         0.1137
     19 H5         -2.2697    1.7764    0.5353 H         1 <0>         0.1089
     20 H6         -0.3508    5.5810    0.7147 H         1 <0>         0.1183
     21 H7          1.7858    4.4783    1.2459 H         1 <0>         0.1164
     22 H8         -3.5672    3.8792    0.7474 H         1 <0>         0.0627
     23 H9         -2.7314    5.4471    0.6406 H         1 <0>         0.0798
     24 H10        -4.4398    5.9844   -1.1005 H         1 <0>         0.1146
     25 H11        -4.4440    5.1052   -2.6482 H         1 <0>         0.0783
     26 H12        -5.3821    2.9112   -2.7355 H         1 <0>         0.4325
     27 H13        -4.5159    2.2698   -1.4689 H         1 <0>         0.4200
     28 O3         -7.2298    5.6321   -0.4230 O.co2     1 <0>        -0.7084
     29 N1         -5.3657    2.7688   -1.7270 N.4       1 <0>        -0.6242
     30 H14        -6.1803    2.2061   -1.4548 H         1 <0>         0.4293
     31 O4         -0.7784    4.7036   -2.3731 O.co2     1 <0>        -0.7551
@<TRIPOS>BOND
     1    1    6 ar
     2    1    2 ar
     3    1   17 1
     4    2    3 ar
     5    2   18 1
     6    3    4 ar
     7    3   19 1
     8    4    5 ar
     9    4    7 1
    10    5    6 ar
    11    5   20 1
    12    6   21 1
    13    7    8 1
    14    7   22 1
    15    7   23 1
    16    8    9 1
    17    8   10 1
    18    8   15 1
    19   10   11 1
    20   10   24 1
    21   10   25 1
    22   11   12 1
    23   11   13 1
    24   11   29 1
    25   13   14 2
    26   13   28 1
    27   15   16 2
    28   15   31 1
    29   26   29 1
    30   27   29 1
    31   29   30 1
@<TRIPOS>MOLECULE
ZINC03826602
   44    47     0     0     0
SMALL
USER_CHARGES

@<TRIPOS>ATOM
      1 C1         -2.0652   -0.8598    0.6816 C.ar      1 <0>        -0.1307
      2 C2         -1.4521   -0.1116   -0.3067 C.ar      1 <0>        -0.0780
      3 C3         -0.2478   -0.5258   -0.8385 C.ar      1 <0>        -0.1082
      4 C4          0.3518   -1.6944   -0.3817 C.ar      1 <0>         0.1485
      5 C5         -0.2642   -2.4413    0.6088 C.ar      1 <0>        -0.1566
      6 C6         -1.4726   -2.0216    1.1374 C.ar      1 <0>        -0.0298
      7 C7          0.3651   -3.7076    1.1223 C.3       1 <0>        -0.0043
      8 C8          1.4114   -4.2062    0.1633 C.ar      1 <0>        -0.1792
      9 C9          1.8465   -5.5168    0.2561 C.ar      1 <0>        -0.0847
     10 C10         2.8075   -5.9936   -0.6143 C.ar      1 <0>        -0.1422
     11 C11         3.3387   -5.1614   -1.5827 C.ar      1 <0>        -0.0829
     12 C12         2.9082   -3.8538   -1.6802 C.ar      1 <0>        -0.1445
     13 C13         1.9410   -3.3703   -0.8057 C.ar      1 <0>         0.0839
     14 O1          1.5344   -2.0829   -0.9159 O.3       1 <0>        -0.2343
     15 C14         1.0151   -3.4331    2.4799 C.3       1 <0>        -0.1014
     16 C15         2.0274   -2.2945    2.3397 C.3       1 <0>         0.0088
     17 C16         2.6935   -2.0348    3.6924 C.3       1 <0>        -0.1343
     18 H1          2.0566   -2.1784    4.5653 H         1 <0>         0.1359
     19 C17         4.1741   -2.3945    3.8314 C.3       1 <0>        -0.1905
     20 C18         3.7460   -0.9265    3.7605 C.3       1 <0>        -0.1789
     21 H2          3.9640   -0.3823    2.8415 H         1 <0>         0.1011
     22 C19         3.8233   -0.1172    5.0294 C.2       1 <0>         0.5190
     23 O2          4.8881    0.3579    5.3855 O.co2     1 <0>        -0.6942
     24 O3          2.8209    0.0625    5.6998 O.co2     1 <0>        -0.6777
     25 C20         1.3189   -1.0461    1.8808 C.2       1 <0>         0.5149
     26 O4          0.2686   -0.7142    2.4034 O.co2     1 <0>        -0.6129
     27 O5          1.7961   -0.3680    0.9869 O.co2     1 <0>        -0.6652
     28 N1          3.0505   -2.6674    1.3537 N.4       1 <0>        -0.6246
     29 H3         -3.0057   -0.5334    1.1005 H         1 <0>         0.1165
     30 H4         -1.9159    0.7965   -0.6627 H         1 <0>         0.1212
     31 H5          0.2297    0.0586   -1.6110 H         1 <0>         0.1216
     32 H6         -1.9536   -2.6040    1.9093 H         1 <0>         0.1161
     33 H7         -0.4056   -4.4692    1.2411 H         1 <0>         0.1043
     34 H8          1.4338   -6.1688    1.0117 H         1 <0>         0.1387
     35 H9          3.1445   -7.0168   -0.5382 H         1 <0>         0.1347
     36 H10         4.0905   -5.5346   -2.2623 H         1 <0>         0.1391
     37 H11         3.3234   -3.2047   -2.4369 H         1 <0>         0.1440
     38 H12         0.2472   -3.1500    3.1998 H         1 <0>         0.1175
     39 H13         1.5249   -4.3318    2.8270 H         1 <0>         0.0757
     40 H14         4.5114   -2.7742    4.7958 H         1 <0>         0.1075
     41 H15         4.6737   -2.8160    2.9592 H         1 <0>         0.0689
     42 H16         2.8070   -2.2812    0.4539 H         1 <0>         0.4233
     43 H17         3.9459   -2.3044    1.6444 H         1 <0>         0.4120
     44 H18         3.1012   -3.6729    1.2856 H         1 <0>         0.4021
@<TRIPOS>BOND
     1    1    6 ar
     2    1    2 ar
     3    1   29 1
     4    2    3 ar
     5    2   30 1
     6    3    4 ar
     7    3   31 1
     8    4   14 1
     9    4    5 ar
    10    5    6 ar
    11    5    7 1
    12    6   32 1
    13    7    8 1
    14    7   15 1
    15    7   33 1
    16    8   13 ar
    17    8    9 ar
    18    9   10 ar
    19    9   34 1
    20   10   11 ar
    21   10   35 1
    22   11   12 ar
    23   11   36 1
    24   12   13 ar
    25   12   37 1
    26   13   14 1
    27   15   16 1
    28   15   38 1
    29   15   39 1
    30   16   17 1
    31   16   25 1
    32   16   28 1
    33   17   18 1
    34   17   20 1
    35   17   19 1
    36   19   20 1
    37   19   40 1
    38   19   41 1
    39   20   21 1
    40   20   22 1
    41   22   23 2
    42   22   24 1
    43   25   26 2
    44   25   27 1
    45   28   42 1
    46   28   43 1
    47   28   44 1
@<TRIPOS>MOLECULE
ZINC01482113
   18    17     0     0     0
SMALL
USER_CHARGES

@<TRIPOS>ATOM
      1 C1         -0.0187    1.5258    0.0104 C.3       1 <0>        -0.1000
      2 C2          0.0021   -0.0041    0.0020 C.3       1 <0>        -0.1962
      3 C3         -1.4117   -0.5257    0.0127 C.2       1 <0>         0.4893
      4 O1         -2.3491    0.2539    0.0259 O.co2     1 <0>        -0.6870
      5 O2         -1.6182   -1.7273    0.0082 O.co2     1 <0>        -0.7019
      6 C4          1.4167    2.0553   -0.0004 C.3       1 <0>        -0.0520
      7 H1          1.9535    1.6326   -0.8497 H         1 <0>         0.1269
      8 C5          1.3970    3.5578   -0.1160 C.2       1 <0>         0.4945
      9 O3          1.7295    4.2467    0.8334 O.co2     1 <0>        -0.6861
     10 O4          1.0484    4.0844   -1.1589 O.co2     1 <0>        -0.6413
     11 N1          2.0906    1.6690    1.2464 N.4       1 <0>        -0.6105
     12 H2         -0.5459    1.8868   -0.8726 H         1 <0>         0.1064
     13 H3         -0.5289    1.8773    0.9072 H         1 <0>         0.0773
     14 H4          0.5123   -0.3556   -0.8948 H         1 <0>         0.0672
     15 H5          0.5293   -0.3651    0.8851 H         1 <0>         0.0471
     16 H6          2.1039    0.6630    1.3237 H         1 <0>         0.4141
     17 H7          3.0372    2.0182    1.2392 H         1 <0>         0.4227
     18 H8          1.5937    2.0603    2.0325 H         1 <0>         0.4293
@<TRIPOS>BOND
     1    1    2 1
     2    1    6 1
     3    1   12 1
     4    1   13 1
     5    2    3 1
     6    2   14 1
     7    2   15 1
     8    3    4 2
     9    3    5 1
    10    6    7 1
    11    6    8 1
    12    6   11 1
    13    8    9 2
    14    8   10 1
    15   11   16 1
    16   11   17 1
    17   11   18 1
@<TRIPOS>MOLECULE
ZINC06718473
   63    67     0     0     0
SMALL
USER_CHARGES
4-[3-[(2-cyclopentyl-6,7-dimethyl-1-oxo-indan-5-yl)oxymethyl]phenyl]benzoic acid
@<TRIPOS>ATOM
      1 C1          3.6951    0.3485   -4.0368 C.3       1 <0>        -0.1060
      2 C2          4.5094   -0.1039   -2.8522 C.ar      1 <0>        -0.1373
      3 C3          5.6973   -0.7676   -3.0475 C.ar      1 <0>         0.0259
      4 C4          6.4542   -1.1948   -1.9427 C.ar      1 <0>        -0.2366
      5 C5          5.9911   -0.9331   -0.6511 C.ar      1 <0>        -0.0046
      6 C6          4.8094   -0.2664   -0.4678 C.ar      1 <0>        -0.2188
      7 C7          4.0622    0.1549   -1.5610 C.ar      1 <0>         0.1802
      8 O1          2.8924    0.8144   -1.3685 O.3       1 <0>        -0.2952
      9 C8          2.4903    1.0411   -0.0161 C.3       1 <0>         0.1020
     10 C9          1.1777    1.7812    0.0004 C.ar      1 <0>        -0.0982
     11 C10        -0.0126    1.0758    0.0080 C.ar      1 <0>        -0.1043
     12 C11        -1.2212    1.7483    0.0174 C.ar      1 <0>        -0.1186
     13 C12        -1.2460    3.1282    0.0308 C.ar      1 <0>        -0.1037
     14 C13        -0.0501    3.8442    0.0236 C.ar      1 <0>        -0.0246
     15 C14         1.1651    3.1609    0.0084 C.ar      1 <0>        -0.0900
     16 C15        -0.0702    5.3267    0.0328 C.ar      1 <0>        -0.0682
     17 C16         1.1289    6.0400    0.0318 C.ar      1 <0>        -0.1230
     18 C17         1.1116    7.4164    0.0346 C.ar      1 <0>        -0.0777
     19 C18        -0.1078    8.0993    0.0499 C.ar      1 <0>        -0.1031
     20 C19        -1.3081    7.3834    0.0565 C.ar      1 <0>        -0.0869
     21 C20        -1.2881    6.0072    0.0481 C.ar      1 <0>        -0.1219
     22 C21        -0.1278    9.5750    0.0594 C.2       1 <0>         0.4865
     23 O2         -1.1880   10.1681    0.0731 O.co2     1 <0>        -0.6297
     24 C22         6.9699   -1.4851    0.3579 C.3       1 <0>        -0.0837
     25 C23         8.1058   -2.1262   -0.4511 C.3       1 <0>        -0.1230
     26 H1          8.9714   -1.6819   -0.2201 H         1 <0>         0.1013
     27 C24         7.7333   -1.9164   -1.8986 C.2       1 <0>         0.4170
     28 O3          8.3782   -2.2806   -2.8592 O.2       1 <0>        -0.4418
     29 C25         8.2002   -3.6211   -0.1394 C.3       1 <0>        -0.0766
     30 C26         8.6148   -3.8290    1.3319 C.3       1 <0>        -0.1192
     31 C27         9.5503   -5.0628    1.2923 C.3       1 <0>        -0.1258
     32 C28        10.3398   -4.8510   -0.0234 C.3       1 <0>        -0.1250
     33 C29         9.2970   -4.2709   -1.0011 C.3       1 <0>        -0.1280
     34 C30         6.1850   -1.0431   -4.4465 C.3       1 <0>        -0.1271
     35 H2          4.0032    1.3529   -4.3272 H         1 <0>         0.0708
     36 H3          3.8548   -0.3357   -4.8701 H         1 <0>         0.0678
     37 H4          2.6383    0.3555   -3.7699 H         1 <0>         0.0729
     38 H5          4.4560   -0.0663    0.5329 H         1 <0>         0.1340
     39 H6          3.2488    1.6352    0.4937 H         1 <0>         0.0751
     40 H7          2.3746    0.0847    0.4937 H         1 <0>         0.0739
     41 H8          0.0021   -0.0041    0.0020 H         1 <0>         0.1208
     42 H9         -2.1472    1.1926    0.0184 H         1 <0>         0.1252
     43 H10        -2.1903    3.6523    0.0426 H         1 <0>         0.1289
     44 H11         2.0948    3.7104    0.0024 H         1 <0>         0.1280
     45 H12         2.0710    5.5120    0.0248 H         1 <0>         0.1183
     46 H13         2.0399    7.9683    0.0294 H         1 <0>         0.1333
     47 H14        -2.2511    7.9099    0.0687 H         1 <0>         0.1297
     48 H15        -2.2155    5.4538    0.0536 H         1 <0>         0.1195
     49 H16         7.3612   -0.6797    0.9795 H         1 <0>         0.0931
     50 H17         6.4830   -2.2362    0.9800 H         1 <0>         0.0949
     51 H18         7.2413   -4.1032   -0.3296 H         1 <0>         0.0757
     52 H19         9.1505   -2.9558    1.7043 H         1 <0>         0.0702
     53 H20         7.7401   -4.0331    1.9495 H         1 <0>         0.0677
     54 H21         8.9713   -5.9854    1.2511 H         1 <0>         0.0663
     55 H22        10.2227   -5.0654    2.1501 H         1 <0>         0.0663
     56 H23        10.7240   -5.8010   -0.3948 H         1 <0>         0.0635
     57 H24        11.1553   -4.1439    0.1283 H         1 <0>         0.0647
     58 H25         8.8705   -5.0690   -1.6088 H         1 <0>         0.0632
     59 H26         9.7614   -3.5215   -1.6420 H         1 <0>         0.0801
     60 H27         5.7973   -2.0044   -4.7837 H         1 <0>         0.0781
     61 H28         5.8357   -0.2559   -5.1147 H         1 <0>         0.0739
     62 H29         7.2747   -1.0683   -4.4530 H         1 <0>         0.0823
     63 O4          1.0298   10.2645    0.0530 O.co2     1 <0>        -0.7524
@<TRIPOS>BOND
     1    1    2 1
     2    1   35 1
     3    1   36 1
     4    1   37 1
     5    2    7 ar
     6    2    3 ar
     7    3    4 ar
     8    3   34 1
     9    4   27 1
    10    4    5 ar
    11    5    6 ar
    12    5   24 1
    13    6    7 ar
    14    6   38 1
    15    7    8 1
    16    8    9 1
    17    9   10 1
    18    9   39 1
    19    9   40 1
    20   10   15 ar
    21   10   11 ar
    22   11   12 ar
    23   11   41 1
    24   12   13 ar
    25   12   42 1
    26   13   14 ar
    27   13   43 1
    28   14   15 ar
    29   14   16 1
    30   15   44 1
    31   16   21 ar
    32   16   17 ar
    33   17   18 ar
    34   17   45 1
    35   18   19 ar
    36   18   46 1
    37   19   20 ar
    38   19   22 1
    39   20   21 ar
    40   20   47 1
    41   21   48 1
    42   22   23 2
    43   22   63 1
    44   24   25 1
    45   24   49 1
    46   24   50 1
    47   25   26 1
    48   25   27 1
    49   25   29 1
    50   27   28 2
    51   29   33 1
    52   29   30 1
    53   29   51 1
    54   30   31 1
    55   30   52 1
    56   30   53 1
    57   31   32 1
    58   31   54 1
    59   31   55 1
    60   32   33 1
    61   32   56 1
    62   32   57 1
    63   33   58 1
    64   33   59 1
    65   34   60 1
    66   34   61 1
    67   34   62 1
@<TRIPOS>MOLECULE
ZINC13978659
   63    67     0     0     0
SMALL
USER_CHARGES
4-[3-[[(2R)-2-cyclopentyl-6,7-dimethyl-1-oxo-indan-5-yl]oxymethyl]phenyl]benzoic acid
@<TRIPOS>ATOM
      1 C1          4.9418    2.4101   -0.0327 C.3       1 <0>        -0.1074
      2 C2          3.4760    2.7596   -0.0166 C.ar      1 <0>        -0.1372
      3 C3          2.5311    1.7611   -0.0124 C.ar      1 <0>         0.0255
      4 C4          1.1638    2.0867    0.0022 C.ar      1 <0>        -0.2364
      5 C5          0.7781    3.4293    0.0122 C.ar      1 <0>        -0.0048
      6 C6          1.7273    4.4159    0.0079 C.ar      1 <0>        -0.2189
      7 C7          3.0787    4.0923   -0.0065 C.ar      1 <0>         0.1802
      8 O1          4.0113    5.0775   -0.0102 O.3       1 <0>        -0.2951
      9 C8          3.5327    6.4239    0.0007 C.3       1 <0>         0.1020
     10 C9          4.7032    7.3731   -0.0053 C.ar      1 <0>        -0.0981
     11 C10         5.2468    7.8066    1.1908 C.ar      1 <0>        -0.1044
     12 C11         6.3247    8.6733    1.1930 C.ar      1 <0>        -0.1186
     13 C12         6.8571    9.1197    0.0004 C.ar      1 <0>        -0.1038
     14 C13         6.3100    8.6908   -1.2078 C.ar      1 <0>        -0.0246
     15 C14         5.2271    7.8126   -1.2037 C.ar      1 <0>        -0.0900
     16 C15         6.8777    9.1664   -2.4923 C.ar      1 <0>        -0.0682
     17 C16         6.3315    8.7302   -3.6997 C.ar      1 <0>        -0.1230
     18 C17         6.8545    9.1746   -4.8928 C.ar      1 <0>        -0.0777
     19 C18         7.9401   10.0549   -4.8945 C.ar      1 <0>        -0.1032
     20 C19         8.4897   10.4870   -3.6842 C.ar      1 <0>        -0.0869
     21 C20         7.9614   10.0451   -2.4925 C.ar      1 <0>        -0.1219
     22 C21         8.5059   10.5275   -6.1731 C.2       1 <0>         0.4866
     23 O2          9.4497   11.2924   -6.1739 O.co2     1 <0>        -0.6297
     24 C22        -0.7293    3.5216    0.0265 C.3       1 <0>        -0.0841
     25 C23        -1.2486    2.0774    0.0185 C.3       1 <0>        -0.1228
     26 H1         -1.8148    1.9313   -0.7927 H         1 <0>         0.1012
     27 C24        -0.0144    1.2087    0.0087 C.2       1 <0>         0.4169
     28 O3          0.0021   -0.0041    0.0020 O.2       1 <0>        -0.4416
     29 C25        -2.0765    1.8077    1.2766 C.3       1 <0>        -0.0773
     30 C26        -2.6003    0.3567    1.2636 C.3       1 <0>        -0.1181
     31 C27        -4.0179    0.4591    1.8792 C.3       1 <0>        -0.1265
     32 C28        -4.5469    1.7941    1.2989 C.3       1 <0>        -0.1254
     33 C29        -3.3142    2.7216    1.2991 C.3       1 <0>        -0.1209
     34 C30         2.9614    0.3169   -0.0239 C.3       1 <0>        -0.1287
     35 H2          5.2852    2.3310   -1.0642 H         1 <0>         0.0711
     36 H3          5.5067    3.1890    0.4796 H         1 <0>         0.0723
     37 H4          5.0939    1.4576    0.4749 H         1 <0>         0.0696
     38 H5          1.4239    5.4523    0.0161 H         1 <0>         0.1339
     39 H6          2.9188    6.5985   -0.8828 H         1 <0>         0.0751
     40 H7          2.9350    6.5898    0.8970 H         1 <0>         0.0739
     41 H8          4.8307    7.4634    2.1265 H         1 <0>         0.1208
     42 H9          6.7478    9.0049    2.1297 H         1 <0>         0.1252
     43 H10         7.6958    9.8001    0.0033 H         1 <0>         0.1289
     44 H11         4.7989    7.4773   -2.1368 H         1 <0>         0.1280
     45 H12         5.4955    8.0464   -3.6981 H         1 <0>         0.1183
     46 H13         6.4289    8.8401   -5.8273 H         1 <0>         0.1333
     47 H14         9.3288   11.1669   -3.6841 H         1 <0>         0.1297
     48 H15         8.3861   10.3785   -1.5571 H         1 <0>         0.1195
     49 H16        -1.0643    4.0387    0.9257 H         1 <0>         0.0954
     50 H17        -1.0807    4.0474   -0.8613 H         1 <0>         0.0926
     51 H18        -1.4700    1.9785    2.1661 H         1 <0>         0.0757
     52 H19        -2.6542   -0.0202    0.2423 H         1 <0>         0.0715
     53 H20        -1.9644   -0.2839    1.8746 H         1 <0>         0.0671
     54 H21        -3.9643    0.5049    2.9669 H         1 <0>         0.0656
     55 H22        -4.6402   -0.3758    1.5569 H         1 <0>         0.0659
     56 H23        -5.3317    2.2025    1.9357 H         1 <0>         0.0645
     57 H24        -4.9153    1.6493    0.2833 H         1 <0>         0.0655
     58 H25        -3.3089    3.3354    2.1999 H         1 <0>         0.0668
     59 H26        -3.3251    3.3573    0.4137 H         1 <0>         0.0690
     60 H27         3.0554   -0.0260   -1.0542 H         1 <0>         0.0794
     61 H28         3.9229    0.2202    0.4805 H         1 <0>         0.0752
     62 H29         2.2171   -0.2881    0.4939 H         1 <0>         0.0814
     63 O4          7.9755   10.1107   -7.3394 O.co2     1 <0>        -0.7524
@<TRIPOS>BOND
     1    1    2 1
     2    1   35 1
     3    1   36 1
     4    1   37 1
     5    2    7 ar
     6    2    3 ar
     7    3    4 ar
     8    3   34 1
     9    4   27 1
    10    4    5 ar
    11    5    6 ar
    12    5   24 1
    13    6    7 ar
    14    6   38 1
    15    7    8 1
    16    8    9 1
    17    9   10 1
    18    9   39 1
    19    9   40 1
    20   10   15 ar
    21   10   11 ar
    22   11   12 ar
    23   11   41 1
    24   12   13 ar
    25   12   42 1
    26   13   14 ar
    27   13   43 1
    28   14   15 ar
    29   14   16 1
    30   15   44 1
    31   16   21 ar
    32   16   17 ar
    33   17   18 ar
    34   17   45 1
    35   18   19 ar
    36   18   46 1
    37   19   20 ar
    38   19   22 1
    39   20   21 ar
    40   20   47 1
    41   21   48 1
    42   22   23 2
    43   22   63 1
    44   24   25 1
    45   24   49 1
    46   24   50 1
    47   25   26 1
    48   25   27 1
    49   25   29 1
    50   27   28 2
    51   29   33 1
    52   29   30 1
    53   29   51 1
    54   30   31 1
    55   30   52 1
    56   30   53 1
    57   31   32 1
    58   31   54 1
    59   31   55 1
    60   32   33 1
    61   32   56 1
    62   32   57 1
    63   33   58 1
    64   33   59 1
    65   34   60 1
    66   34   61 1
    67   34   62 1
@<TRIPOS>MOLECULE
ZINC00895124
   18    17     0     0     0
SMALL
USER_CHARGES

@<TRIPOS>ATOM
      1 C1         -0.0187    1.5258    0.0104 C.3       1 <0>        -0.1010
      2 C2          0.0021   -0.0041    0.0020 C.3       1 <0>        -0.1959
      3 C3         -1.4117   -0.5257    0.0127 C.2       1 <0>         0.4893
      4 O1         -2.3491    0.2539    0.0259 O.co2     1 <0>        -0.6871
      5 O2         -1.6182   -1.7273    0.0082 O.co2     1 <0>        -0.7016
      6 C4          1.4167    2.0553   -0.0004 C.3       1 <0>        -0.0510
      7 H1          1.9696    1.6236    0.8338 H         1 <0>         0.1263
      8 C5          1.3993    3.5565    0.1316 C.2       1 <0>         0.4931
      9 O3          1.4342    4.0717    1.2361 O.co2     1 <0>        -0.6465
     10 O4          1.3504    4.2557   -0.8660 O.co2     1 <0>        -0.6784
     11 N1          2.0667    1.6824   -1.2639 N.4       1 <0>        -0.6121
     12 H2         -0.5459    1.8868   -0.8726 H         1 <0>         0.0805
     13 H3         -0.5289    1.8773    0.9072 H         1 <0>         0.1026
     14 H4          0.5123   -0.3556   -0.8948 H         1 <0>         0.0475
     15 H5          0.5293   -0.3651    0.8851 H         1 <0>         0.0673
     16 H6          3.0133    2.0317   -1.2711 H         1 <0>         0.4211
     17 H7          2.0783    0.6774   -1.3524 H         1 <0>         0.4148
     18 H8          1.5549    2.0821   -2.0362 H         1 <0>         0.4310
@<TRIPOS>BOND
     1    1    2 1
     2    1    6 1
     3    1   12 1
     4    1   13 1
     5    2    3 1
     6    2   14 1
     7    2   15 1
     8    3    4 2
     9    3    5 1
    10    6    7 1
    11    6    8 1
    12    6   11 1
    13    8    9 2
    14    8   10 1
    15   11   16 1
    16   11   17 1
    17   11   18 1
@<TRIPOS>MOLECULE
ZINC03824390
   23    24     0     0     0
SMALL
USER_CHARGES
2-aminobicyclo[3.1.0]hexane-2,6-dicarboxylic acid
@<TRIPOS>ATOM
      1 C1         -2.8517    2.1110    0.0150 C.3       1 <0>        -0.1067
      2 C2         -2.2767    1.0905   -0.9984 C.3       1 <0>        -0.1133
      3 C3         -0.7955    1.5269   -1.1198 C.3       1 <0>         0.0379
      4 C4         -0.8470    3.0680   -1.0739 C.3       1 <0>        -0.1546
      5 H1         -0.5145    3.6079   -1.9605 H         1 <0>         0.1525
      6 C5         -2.1573    3.4393   -0.3503 C.3       1 <0>        -0.1429
      7 H2         -2.7904    4.2610   -0.6851 H         1 <0>         0.1203
      8 C6         -0.8062    3.7506    0.2967 C.3       1 <0>        -0.1503
      9 H3         -0.5067    3.1443    1.1515 H         1 <0>         0.0874
     10 C7         -0.3725    5.1932    0.3401 C.2       1 <0>         0.4848
     11 O1         -0.0833    5.7681   -0.6825 O.co2     1 <0>        -0.6180
     12 C8         -0.2129    1.0574   -2.4279 C.2       1 <0>         0.4702
     13 O2         -0.2515    1.7755   -3.3988 O.co2     1 <0>        -0.5717
     14 H4         -3.9315    2.1998   -0.1040 H         1 <0>         0.0871
     15 H5         -2.6041    1.8167    1.0349 H         1 <0>         0.0675
     16 H6         -2.7838    1.1731   -1.9597 H         1 <0>         0.1061
     17 H7         -2.3494    0.0743   -0.6110 H         1 <0>         0.0842
     18 H8          0.0021   -0.0041    0.0020 H         1 <0>         0.4316
     19 H9          0.9253    1.3792    0.0006 H         1 <0>         0.4332
     20 O3         -0.3074    5.8394    1.5148 O.co2     1 <0>        -0.7579
     21 O4          0.3490   -0.1586   -2.5144 O.co2     1 <0>        -0.7467
     22 N1         -0.0252    1.0139    0.0269 N.4       1 <0>        -0.6174
     23 H10        -0.4761    1.3157    0.8986 H         1 <0>         0.4165
@<TRIPOS>BOND
     1    1    6 1
     2    1    2 1
     3    1   14 1
     4    1   15 1
     5    2    3 1
     6    2   16 1
     7    2   17 1
     8    3    4 1
     9    3   12 1
    10    3   22 1
    11    4    5 1
    12    4    8 1
    13    4    6 1
    14    6    7 1
    15    6    8 1
    16    8    9 1
    17    8   10 1
    18   10   11 2
    19   10   20 1
    20   12   13 2
    21   12   21 1
    22   18   22 1
    23   19   22 1
    24   22   23 1
@<TRIPOS>MOLECULE
ZINC03952370
   21    22     0     0     0
SMALL
USER_CHARGES
2-amino-4-thiabicyclo[3.1.0]hexane-2,6-dicarboxylic acid
@<TRIPOS>ATOM
      1 C1         -0.7605    1.9628    1.2814 C.3       1 <0>        -0.0682
      2 C2         -0.0178    1.4648    0.0101 C.3       1 <0>         0.0399
      3 C3          1.4185    1.9913   -0.0008 C.3       1 <0>        -0.1615
      4 H1          1.6722    2.6978   -0.7911 H         1 <0>         0.1679
      5 C4          2.5334    1.0646    0.4961 C.3       1 <0>        -0.1316
      6 H2          2.2600    0.0403    0.7493 H         1 <0>         0.1000
      7 C5          2.0174    2.1769    1.4072 C.3       1 <0>        -0.0777
      8 H3          2.6663    3.0140    1.6644 H         1 <0>         0.1514
      9 S1          0.5956    1.8151    2.5179 S.3       1 <0>        -0.2550
     10 C6          3.9032    1.2403   -0.1071 C.2       1 <0>         0.4868
     11 O1          4.0885    2.0870   -0.9489 O.co2     1 <0>        -0.6093
     12 C7         -0.7409    1.9610   -1.2155 C.2       1 <0>         0.4720
     13 O2         -0.3883    2.9845   -1.7520 O.co2     1 <0>        -0.5632
     14 H4         -1.0767    3.0006    1.1759 H         1 <0>         0.1269
     15 H5         -1.6028    1.3166    1.5283 H         1 <0>         0.1282
     16 H6         -0.9349   -0.3784    0.0090 H         1 <0>         0.4344
     17 H7          0.5256   -0.3543   -0.7863 H         1 <0>         0.4369
     18 O3          4.9174    0.4561    0.2907 O.co2     1 <0>        -0.7455
     19 O4         -1.7767    1.2658   -1.7111 O.co2     1 <0>        -0.7347
     20 N1          0.0141   -0.0084    0.0239 N.4       1 <0>        -0.6190
     21 H8          0.4848   -0.3278    0.8787 H         1 <0>         0.4213
@<TRIPOS>BOND
     1    1    9 1
     2    1    2 1
     3    1   14 1
     4    1   15 1
     5    2    3 1
     6    2   12 1
     7    2   20 1
     8    3    4 1
     9    3    7 1
    10    3    5 1
    11    5    6 1
    12    5    7 1
    13    5   10 1
    14    7    8 1
    15    7    9 1
    16   10   11 2
    17   10   18 1
    18   12   13 2
    19   12   19 1
    20   16   20 1
    21   17   20 1
    22   20   21 1
