@<TRIPOS>MOLECULE
ZINC13644423
   26    27     0     0     0
SMALL
USER_CHARGES
(1S,2S,4R,5R,6S)-2-amino-4-methyl-bicyclo[3.1.0]hexane-2,6-dicarboxylic acid
@<TRIPOS>ATOM
      1 C1          1.6400    1.6255   -2.3681 C.3       1 <0>        -0.1466
      2 C2          1.9883    0.5185   -1.3711 C.3       1 <0>        -0.0830
      3 H1          3.0692    0.4348   -1.2576 H         1 <0>         0.0991
      4 C3          1.3851   -0.8327   -1.8287 C.3       1 <0>        -0.1094
      5 C4         -0.0867   -0.7268   -1.3580 C.3       1 <0>         0.0392
      6 C5          0.0021   -0.0041    0.0020 C.3       1 <0>        -0.1543
      7 H2         -0.3420   -0.5470    0.8823 H         1 <0>         0.1524
      8 C6          1.3214    0.7877   -0.0063 C.3       1 <0>        -0.1364
      9 H3          1.9637    0.8282    0.8734 H         1 <0>         0.1216
     10 C7         -0.0187    1.5258    0.0104 C.3       1 <0>        -0.1532
     11 H4         -0.3267    2.0293   -0.9059 H         1 <0>         0.0880
     12 C8         -0.4202    2.2083    1.2926 C.2       1 <0>         0.4853
     13 O1         -0.7100    1.5491    2.2628 O.co2     1 <0>        -0.6182
     14 C9         -0.6861   -2.0990   -1.1879 C.2       1 <0>         0.4705
     15 O2         -0.6051   -2.6660   -0.1240 O.co2     1 <0>        -0.5727
     16 H5          0.5566    1.7085   -2.4550 H         1 <0>         0.0356
     17 H6          2.0500    2.5726   -2.0174 H         1 <0>         0.0841
     18 H7          2.0652    1.3840   -3.3423 H         1 <0>         0.0698
     19 H8          1.8884   -1.6662   -1.3386 H         1 <0>         0.1077
     20 H9          1.4376   -0.9351   -2.9126 H         1 <0>         0.0849
     21 H10        -0.9412   -0.4018   -3.2026 H         1 <0>         0.4287
     22 H11        -1.7957    0.2628   -1.9400 H         1 <0>         0.4291
     23 O3         -0.4558    3.5486    1.3569 O.co2     1 <0>        -0.7577
     24 O4         -1.3099   -2.6913   -2.2182 O.co2     1 <0>        -0.7470
     25 N1         -0.8638    0.0850   -2.3111 N.4       1 <0>        -0.6288
     26 H12        -0.3856    0.9814   -2.4593 H         1 <0>         0.4112
@<TRIPOS>BOND
     1    1    2 1
     2    1   16 1
     3    1   17 1
     4    1   18 1
     5    2    3 1
     6    2    8 1
     7    2    4 1
     8    4    5 1
     9    4   19 1
    10    4   20 1
    11    5    6 1
    12    5   14 1
    13    5   25 1
    14    6    7 1
    15    6   10 1
    16    6    8 1
    17    8    9 1
    18    8   10 1
    19   10   11 1
    20   10   12 1
    21   12   13 2
    22   12   23 1
    23   14   15 2
    24   14   24 1
    25   21   25 1
    26   22   25 1
    27   25   26 1
@<TRIPOS>MOLECULE
ZINC03952369
   21    22     0     0     0
SMALL
USER_CHARGES

@<TRIPOS>ATOM
      1 C1         -0.0175    1.4395    0.0100 C.3       1 <0>         0.0569
      2 C2          1.4845    1.8218   -0.0023 C.3       1 <0>        -0.0309
      3 C3          2.1057    0.7278    0.8987 C.3       1 <0>        -0.1665
      4 H1          2.5986    1.0456    1.8176 H         1 <0>         0.1501
      5 C4          2.4853   -0.6071    0.2569 C.3       1 <0>        -0.1714
      6 H2          2.5720   -0.6357   -0.8293 H         1 <0>         0.0913
      7 C5          1.0707   -0.4136    0.8730 C.3       1 <0>         0.0195
      8 H3          0.8073   -0.9529    1.7829 H         1 <0>         0.1451
      9 O1          0.0021   -0.0041    0.0020 O.3       1 <0>        -0.3536
     10 C6          3.4472   -1.4908    1.0085 C.2       1 <0>         0.5190
     11 O2          3.3834   -2.7024    0.8879 O.co2     1 <0>        -0.6779
     12 O3          4.2892   -0.9941    1.7371 O.co2     1 <0>        -0.6728
     13 C7          1.6951    3.1905    0.5922 C.2       1 <0>         0.5139
     14 O4          1.3389    3.4199    1.7354 O.co2     1 <0>        -0.6287
     15 O5          2.2216    4.0684   -0.0701 O.co2     1 <0>        -0.6757
     16 N1          2.0314    1.7512   -1.3639 N.4       1 <0>        -0.6034
     17 H4         -0.5009    1.8118    0.9132 H         1 <0>         0.1073
     18 H5         -0.5180    1.8215   -0.8798 H         1 <0>         0.1024
     19 H6          1.5449    2.4074   -1.9562 H         1 <0>         0.4251
     20 H7          3.0138    1.9804   -1.3441 H         1 <0>         0.4352
     21 H8          1.9111    0.8174   -1.7267 H         1 <0>         0.4151
@<TRIPOS>BOND
     1    1    9 1
     2    1    2 1
     3    1   17 1
     4    1   18 1
     5    2    3 1
     6    2   13 1
     7    2   16 1
     8    3    4 1
     9    3    7 1
    10    3    5 1
    11    5    6 1
    12    5    7 1
    13    5   10 1
    14    7    8 1
    15    7    9 1
    16   10   11 2
    17   10   12 1
    18   13   14 2
    19   13   15 1
    20   16   19 1
    21   16   20 1
    22   16   21 1
@<TRIPOS>MOLECULE
ZINC04391801
   23    24     0     0     0
SMALL
USER_CHARGES
3-aminobicyclo[2.1.1]hexane-3,5-dicarboxylic acid
@<TRIPOS>ATOM
      1 C1         -0.1932    1.8486    1.3557 C.3       1 <0>        -0.1075
      2 C2         -0.0127    1.0858    0.0080 C.3       1 <0>        -0.1190
      3 H1          0.0021   -0.0041    0.0020 H         1 <0>         0.1102
      4 C3         -0.8680    1.8164   -1.0830 C.3       1 <0>        -0.1018
      5 C4         -0.5567    3.3008   -0.6708 C.3       1 <0>         0.0043
      6 C5          0.4072    3.0300    0.5346 C.3       1 <0>        -0.1028
      7 H2          0.8428    3.8891    1.0448 H         1 <0>         0.1136
      8 C6          1.3119    1.8907   -0.0003 C.3       1 <0>        -0.1477
      9 H3          1.7207    2.0692   -0.9949 H         1 <0>         0.0572
     10 C7          2.3393    1.4013    0.9875 C.2       1 <0>         0.4810
     11 O1          2.4893    1.9777    2.0388 O.co2     1 <0>        -0.6253
     12 C8         -1.7980    4.0331   -0.2304 C.2       1 <0>         0.4745
     13 O2         -2.1775    3.9453    0.9133 O.co2     1 <0>        -0.5698
     14 H4         -1.2312    1.9915    1.6558 H         1 <0>         0.0810
     15 H5          0.4460    1.4918    2.1633 H         1 <0>         0.1155
     16 H6         -0.5164    1.5826   -2.0879 H         1 <0>         0.0842
     17 H7         -1.9293    1.5935   -0.9730 H         1 <0>         0.0957
     18 H8         -0.4992    4.1875   -2.5280 H         1 <0>         0.4340
     19 H9          0.5323    4.8784   -1.4215 H         1 <0>         0.4272
     20 O3          3.0880    0.3250    0.6995 O.co2     1 <0>        -0.7600
     21 O4         -2.4821    4.7830   -1.1088 O.co2     1 <0>        -0.7509
     22 N1          0.1452    3.9998   -1.7617 N.4       1 <0>        -0.6124
     23 H10         0.9103    3.4072   -2.1050 H         1 <0>         0.4190
@<TRIPOS>BOND
     1    1    6 1
     2    1    2 1
     3    1   14 1
     4    1   15 1
     5    2    3 1
     6    2    8 1
     7    2    4 1
     8    4    5 1
     9    4   16 1
    10    4   17 1
    11    5    6 1
    12    5   12 1
    13    5   22 1
    14    6    7 1
    15    6    8 1
    16    8    9 1
    17    8   10 1
    18   10   11 2
    19   10   20 1
    20   12   13 2
    21   12   21 1
    22   18   22 1
    23   19   22 1
    24   22   23 1
@<TRIPOS>MOLECULE
ZINC13910898
   23    24     0     0     0
SMALL
USER_CHARGES
(1S,2S,5R,6S)-2-amino-4,4-dioxo-4$l^{6}-thiabicyclo[3.1.0]hexane-2,6-dicarboxylic acid
@<TRIPOS>ATOM
      1 C1          1.3623    2.9422   -1.5545 C.3       1 <0>        -0.5662
      2 C2         -0.1732    3.1723   -1.4825 C.3       1 <0>         0.0343
      3 C3         -0.8712    1.9109   -0.9706 C.3       1 <0>        -0.1480
      4 H1         -1.5211    1.3987   -1.6801 H         1 <0>         0.1823
      5 C4         -1.2341    1.8283    0.5469 C.3       1 <0>        -0.0988
      6 H2         -1.0552    2.7172    1.1517 H         1 <0>         0.1113
      7 C5         -0.0127    1.0858    0.0080 C.3       1 <0>        -0.5759
      8 H3          0.0021   -0.0041    0.0020 H         1 <0>         0.1841
      9 S1          1.6009    1.9701   -0.0026 S.o2      1 <0>         2.3722
     10 O1          1.6525    2.8610    1.1032 O.2       1 <0>        -0.9340
     11 O2          2.6479    1.0291   -0.1962 O.2       1 <0>        -0.9134
     12 C6         -2.4293    1.0017    0.9459 C.2       1 <0>         0.4880
     13 O3         -3.0756    0.4273    0.1019 O.co2     1 <0>        -0.6052
     14 C7         -0.6931    3.5061   -2.8571 C.2       1 <0>         0.4801
     15 O4         -1.1223    2.6300   -3.5699 O.co2     1 <0>        -0.5589
     16 H4          1.9074    3.8855   -1.5202 H         1 <0>         0.1600
     17 H5          1.6368    2.3601   -2.4342 H         1 <0>         0.1771
     18 H6         -0.0349    5.1433   -0.9042 H         1 <0>         0.4423
     19 H7         -1.4494    4.4039   -0.4369 H         1 <0>         0.4447
     20 O5         -2.7760    0.9035    2.2390 O.co2     1 <0>        -0.7394
     21 O6         -0.6794    4.7768   -3.2895 O.co2     1 <0>        -0.7273
     22 N1         -0.4445    4.2805   -0.5500 N.4       1 <0>        -0.6293
     23 H8         -0.0289    4.0626    0.3633 H         1 <0>         0.4202
@<TRIPOS>BOND
     1    1    9 1
     2    1    2 1
     3    1   16 1
     4    1   17 1
     5    2    3 1
     6    2   14 1
     7    2   22 1
     8    3    4 1
     9    3    7 1
    10    3    5 1
    11    5    6 1
    12    5    7 1
    13    5   12 1
    14    7    8 1
    15    7    9 1
    16    9   10 2
    17    9   11 2
    18   12   13 2
    19   12   20 1
    20   14   15 2
    21   14   21 1
    22   18   22 1
    23   19   22 1
    24   22   23 1
@<TRIPOS>MOLECULE
ZINC00895124
   18    17     0     0     0
SMALL
USER_CHARGES

@<TRIPOS>ATOM
      1 C1         -0.0187    1.5258    0.0104 C.3       1 <0>        -0.1010
      2 C2          0.0021   -0.0041    0.0020 C.3       1 <0>        -0.1959
      3 C3         -1.4117   -0.5257    0.0127 C.2       1 <0>         0.4893
      4 O1         -2.3491    0.2539    0.0259 O.co2     1 <0>        -0.6871
      5 O2         -1.6182   -1.7273    0.0082 O.co2     1 <0>        -0.7016
      6 C4          1.4167    2.0553   -0.0004 C.3       1 <0>        -0.0510
      7 H1          1.9696    1.6236    0.8338 H         1 <0>         0.1263
      8 C5          1.3993    3.5565    0.1316 C.2       1 <0>         0.4931
      9 O3          1.4342    4.0717    1.2361 O.co2     1 <0>        -0.6465
     10 O4          1.3504    4.2557   -0.8660 O.co2     1 <0>        -0.6784
     11 N1          2.0667    1.6824   -1.2639 N.4       1 <0>        -0.6121
     12 H2         -0.5459    1.8868   -0.8726 H         1 <0>         0.0805
     13 H3         -0.5289    1.8773    0.9072 H         1 <0>         0.1026
     14 H4          0.5123   -0.3556   -0.8948 H         1 <0>         0.0475
     15 H5          0.5293   -0.3651    0.8851 H         1 <0>         0.0673
     16 H6          3.0133    2.0317   -1.2711 H         1 <0>         0.4211
     17 H7          2.0783    0.6774   -1.3524 H         1 <0>         0.4148
     18 H8          1.5549    2.0821   -2.0362 H         1 <0>         0.4310
@<TRIPOS>BOND
     1    1    2 1
     2    1    6 1
     3    1   12 1
     4    1   13 1
     5    2    3 1
     6    2   14 1
     7    2   15 1
     8    3    4 2
     9    3    5 1
    10    6    7 1
    11    6    8 1
    12    6   11 1
    13    8    9 2
    14    8   10 1
    15   11   16 1
    16   11   17 1
    17   11   18 1
@<TRIPOS>MOLECULE
ZINC03824390
   23    24     0     0     0
SMALL
USER_CHARGES
2-aminobicyclo[3.1.0]hexane-2,6-dicarboxylic acid
@<TRIPOS>ATOM
      1 C1         -2.8517    2.1110    0.0150 C.3       1 <0>        -0.1067
      2 C2         -2.2767    1.0905   -0.9984 C.3       1 <0>        -0.1133
      3 C3         -0.7955    1.5269   -1.1198 C.3       1 <0>         0.0379
      4 C4         -0.8470    3.0680   -1.0739 C.3       1 <0>        -0.1546
      5 H1         -0.5145    3.6079   -1.9605 H         1 <0>         0.1525
      6 C5         -2.1573    3.4393   -0.3503 C.3       1 <0>        -0.1429
      7 H2         -2.7904    4.2610   -0.6851 H         1 <0>         0.1203
      8 C6         -0.8062    3.7506    0.2967 C.3       1 <0>        -0.1503
      9 H3         -0.5067    3.1443    1.1515 H         1 <0>         0.0874
     10 C7         -0.3725    5.1932    0.3401 C.2       1 <0>         0.4848
     11 O1         -0.0833    5.7681   -0.6825 O.co2     1 <0>        -0.6180
     12 C8         -0.2129    1.0574   -2.4279 C.2       1 <0>         0.4702
     13 O2         -0.2515    1.7755   -3.3988 O.co2     1 <0>        -0.5717
     14 H4         -3.9315    2.1998   -0.1040 H         1 <0>         0.0871
     15 H5         -2.6041    1.8167    1.0349 H         1 <0>         0.0675
     16 H6         -2.7838    1.1731   -1.9597 H         1 <0>         0.1061
     17 H7         -2.3494    0.0743   -0.6110 H         1 <0>         0.0842
     18 H8          0.0021   -0.0041    0.0020 H         1 <0>         0.4316
     19 H9          0.9253    1.3792    0.0006 H         1 <0>         0.4332
     20 O3         -0.3074    5.8394    1.5148 O.co2     1 <0>        -0.7579
     21 O4          0.3490   -0.1586   -2.5144 O.co2     1 <0>        -0.7467
     22 N1         -0.0252    1.0139    0.0269 N.4       1 <0>        -0.6174
     23 H10        -0.4761    1.3157    0.8986 H         1 <0>         0.4165
@<TRIPOS>BOND
     1    1    6 1
     2    1    2 1
     3    1   14 1
     4    1   15 1
     5    2    3 1
     6    2   16 1
     7    2   17 1
     8    3    4 1
     9    3   12 1
    10    3   22 1
    11    4    5 1
    12    4    8 1
    13    4    6 1
    14    6    7 1
    15    6    8 1
    16    8    9 1
    17    8   10 1
    18   10   11 2
    19   10   20 1
    20   12   13 2
    21   12   21 1
    22   18   22 1
    23   19   22 1
    24   22   23 1
@<TRIPOS>MOLECULE
ZINC03952370
   21    22     0     0     0
SMALL
USER_CHARGES
2-amino-4-thiabicyclo[3.1.0]hexane-2,6-dicarboxylic acid
@<TRIPOS>ATOM
      1 C1         -0.7605    1.9628    1.2814 C.3       1 <0>        -0.0682
      2 C2         -0.0178    1.4648    0.0101 C.3       1 <0>         0.0399
      3 C3          1.4185    1.9913   -0.0008 C.3       1 <0>        -0.1615
      4 H1          1.6722    2.6978   -0.7911 H         1 <0>         0.1679
      5 C4          2.5334    1.0646    0.4961 C.3       1 <0>        -0.1316
      6 H2          2.2600    0.0403    0.7493 H         1 <0>         0.1000
      7 C5          2.0174    2.1769    1.4072 C.3       1 <0>        -0.0777
      8 H3          2.6663    3.0140    1.6644 H         1 <0>         0.1514
      9 S1          0.5956    1.8151    2.5179 S.3       1 <0>        -0.2550
     10 C6          3.9032    1.2403   -0.1071 C.2       1 <0>         0.4868
     11 O1          4.0885    2.0870   -0.9489 O.co2     1 <0>        -0.6093
     12 C7         -0.7409    1.9610   -1.2155 C.2       1 <0>         0.4720
     13 O2         -0.3883    2.9845   -1.7520 O.co2     1 <0>        -0.5632
     14 H4         -1.0767    3.0006    1.1759 H         1 <0>         0.1269
     15 H5         -1.6028    1.3166    1.5283 H         1 <0>         0.1282
     16 H6         -0.9349   -0.3784    0.0090 H         1 <0>         0.4344
     17 H7          0.5256   -0.3543   -0.7863 H         1 <0>         0.4369
     18 O3          4.9174    0.4561    0.2907 O.co2     1 <0>        -0.7455
     19 O4         -1.7767    1.2658   -1.7111 O.co2     1 <0>        -0.7347
     20 N1          0.0141   -0.0084    0.0239 N.4       1 <0>        -0.6190
     21 H8          0.4848   -0.3278    0.8787 H         1 <0>         0.4213
@<TRIPOS>BOND
     1    1    9 1
     2    1    2 1
     3    1   14 1
     4    1   15 1
     5    2    3 1
     6    2   12 1
     7    2   20 1
     8    3    4 1
     9    3    7 1
    10    3    5 1
    11    5    6 1
    12    5    7 1
    13    5   10 1
    14    7    8 1
    15    7    9 1
    16   10   11 2
    17   10   18 1
    18   12   13 2
    19   12   19 1
    20   16   20 1
    21   17   20 1
    22   20   21 1
