@<TRIPOS>MOLECULE
ZINC58593499
   26    27     0     0     0
SMALL
USER_CHARGES

@<TRIPOS>ATOM
      1 C1         -0.0167    1.3796    0.0096 C.ar      1 <0>        -0.1115
      2 C2          1.1681    2.0946    0.0022 C.ar      1 <0>        -0.1219
      3 C3          2.3774    1.4318   -0.0130 C.ar      1 <0>        -0.0982
      4 C4          2.4043    0.0345   -0.0208 C.ar      1 <0>        -0.0736
      5 C5          1.2037   -0.6807   -0.0131 C.ar      1 <0>        -0.1055
      6 C6          0.0021   -0.0041    0.0020 C.ar      1 <0>        -0.1212
      7 C7          3.6924   -0.6811   -0.0374 C.2       1 <0>        -0.0397
      8 C8          3.7144   -2.0244   -0.0449 C.2       1 <0>        -0.1364
      9 C9          5.0014   -2.7395   -0.0615 C.ar      1 <0>         0.2520
     10 C10         5.0378   -4.1406   -0.0753 C.ar      1 <0>        -0.2806
     11 C11         6.2699   -4.7664   -0.0911 C.ar      1 <0>         0.1942
     12 N1          7.3711   -4.0305   -0.0928 N.ar      1 <0>        -0.5785
     13 C12         7.3090   -2.7067   -0.0796 C.ar      1 <0>         0.5703
     14 N2          6.1522   -2.0643   -0.0693 N.ar      1 <0>        -0.5729
     15 N3          8.4851   -1.9769   -0.0819 N.pl3     1 <0>        -0.8226
     16 H1         -0.9607    1.9041    0.0260 H         1 <0>         0.1240
     17 H2          1.1457    3.1744    0.0078 H         1 <0>         0.1257
     18 H3          3.3013    1.9911   -0.0191 H         1 <0>         0.1268
     19 H4          1.2168   -1.7606   -0.0191 H         1 <0>         0.1270
     20 H5         -0.9266   -0.5554    0.0079 H         1 <0>         0.1256
     21 H6          4.6186   -0.1258   -0.0436 H         1 <0>         0.1356
     22 H7          2.7882   -2.5797   -0.0386 H         1 <0>         0.1372
     23 H8          4.1247   -4.7174   -0.0732 H         1 <0>         0.1458
     24 H9          6.3342   -5.8444   -0.1017 H         1 <0>         0.1692
     25 H10         9.3401   -2.4349   -0.0931 H         1 <0>         0.4151
     26 H11         8.4543   -1.0074   -0.0723 H         1 <0>         0.4140
@<TRIPOS>BOND
     1    1    6 ar
     2    1    2 ar
     3    1   16 1
     4    2    3 ar
     5    2   17 1
     6    3    4 ar
     7    3   18 1
     8    4    5 ar
     9    4    7 1
    10    5    6 ar
    11    5   19 1
    12    6   20 1
    13    7    8 2
    14    7   21 1
    15    8    9 1
    16    8   22 1
    17    9   14 ar
    18    9   10 ar
    19   10   11 ar
    20   10   23 1
    21   11   12 ar
    22   11   24 1
    23   12   13 ar
    24   13   14 ar
    25   13   15 1
    26   15   25 1
    27   15   26 1
@<TRIPOS>MOLECULE
ZINC04084933
   25    26     0     0     0
SMALL
USER_CHARGES

@<TRIPOS>ATOM
      1 C1         -0.0167    1.3798    0.0096 C.ar      1 <0>        -0.1018
      2 C2          1.1681    2.0951    0.0022 C.ar      1 <0>        -0.1235
      3 C3          2.3774    1.4327   -0.0134 C.ar      1 <0>        -0.0873
      4 C4          2.4047    0.0348   -0.0212 C.ar      1 <0>        -0.0888
      5 C5          1.2035   -0.6808   -0.0131 C.ar      1 <0>        -0.0967
      6 C6          0.0021   -0.0041    0.0020 C.ar      1 <0>        -0.1246
      7 C7          3.6918   -0.6801   -0.0383 C.2       1 <0>         0.0072
      8 C8          3.7140   -2.0267   -0.0458 C.2       1 <0>        -0.1707
      9 C9          4.9972   -2.7394   -0.0629 C.2       1 <0>         0.2922
     10 C10         5.0265   -4.1540   -0.0766 C.2       1 <0>        -0.2362
     11 C11         6.2256   -4.7838   -0.0922 C.2       1 <0>         0.1642
     12 N1          7.3693   -4.0411   -0.0942 N.pl3     1 <0>        -0.5703
     13 C12         7.3094   -2.6972   -0.0804 C.2       1 <0>         0.4637
     14 S1          8.7618   -1.7908   -0.0833 S.2       1 <0>        -0.5667
     15 N2          6.1413   -2.0598   -0.0710 N.2       1 <0>        -0.4901
     16 H1         -0.9607    1.9041    0.0260 H         1 <0>         0.1261
     17 H2          1.1454    3.1748    0.0082 H         1 <0>         0.1284
     18 H3          3.3012    1.9923   -0.0200 H         1 <0>         0.1310
     19 H4          1.2165   -1.7607   -0.0194 H         1 <0>         0.1285
     20 H5         -0.9266   -0.5554    0.0083 H         1 <0>         0.1274
     21 H6          4.6180   -0.1247   -0.0449 H         1 <0>         0.1438
     22 H7          2.7878   -2.5821   -0.0392 H         1 <0>         0.1453
     23 H8          4.1080   -4.7221   -0.0744 H         1 <0>         0.1703
     24 H9          6.2754   -5.8626   -0.1025 H         1 <0>         0.1915
     25 H10         8.2317   -4.4849   -0.1053 H         1 <0>         0.4373
@<TRIPOS>BOND
     1    1    6 ar
     2    1    2 ar
     3    1   16 1
     4    2    3 ar
     5    2   17 1
     6    3    4 ar
     7    3   18 1
     8    4    5 ar
     9    4    7 1
    10    5    6 ar
    11    5   19 1
    12    6   20 1
    13    7    8 2
    14    7   21 1
    15    8    9 1
    16    8   22 1
    17    9   15 2
    18    9   10 1
    19   10   11 2
    20   10   23 1
    21   11   12 1
    22   11   24 1
    23   12   13 1
    24   12   25 1
    25   13   14 2
    26   13   15 1
@<TRIPOS>MOLECULE
ZINC58511927
   29    30     0     0     0
SMALL
USER_CHARGES

@<TRIPOS>ATOM
      1 C1         -0.0184    1.5028    0.0103 C.3       1 <0>        -0.1077
      2 C2          0.0021   -0.0041    0.0020 C.ar      1 <0>         0.2205
      3 C3          0.0059   -0.6958   -1.1949 C.ar      1 <0>        -0.2799
      4 C4          0.0250   -2.0964   -1.1556 C.ar      1 <0>         0.2533
      5 N1          0.0389   -2.7083    0.0303 N.ar      1 <0>        -0.5766
      6 C5          0.0345   -2.0045    1.1505 C.ar      1 <0>         0.5748
      7 N2          0.0221   -0.6790    1.1411 N.ar      1 <0>        -0.5791
      8 N3          0.0487   -2.6697    2.3643 N.pl3     1 <0>        -0.8228
      9 C6          0.0294   -2.8801   -2.4021 C.2       1 <0>        -0.1349
     10 C7          0.0478   -4.2225   -2.3515 C.2       1 <0>        -0.0406
     11 C8          0.0522   -5.0068   -3.5990 C.ar      1 <0>        -0.0730
     12 C9          0.0429   -4.3576   -4.8366 C.ar      1 <0>        -0.1057
     13 C10         0.0470   -5.0983   -5.9999 C.ar      1 <0>        -0.1212
     14 C11         0.0598   -6.4810   -5.9439 C.ar      1 <0>        -0.1117
     15 C12         0.0685   -7.1307   -4.7221 C.ar      1 <0>        -0.1218
     16 C13         0.0713   -6.4033   -3.5504 C.ar      1 <0>        -0.0984
     17 H1          1.0042    1.8801    0.0026 H         1 <0>         0.0861
     18 H2         -0.5455    1.8639   -0.8728 H         1 <0>         0.0823
     19 H3         -0.5286    1.8543    0.9071 H         1 <0>         0.0818
     20 H4         -0.0060   -0.1693   -2.1378 H         1 <0>         0.1447
     21 H5          0.0617   -3.6394    2.3859 H         1 <0>         0.4141
     22 H6          0.0458   -2.1661    3.1934 H         1 <0>         0.4147
     23 H7          0.0177   -2.3758   -3.3570 H         1 <0>         0.1368
     24 H8          0.0595   -4.7268   -1.3966 H         1 <0>         0.1357
     25 H9          0.0322   -3.2786   -4.8819 H         1 <0>         0.1269
     26 H10         0.0399   -4.5981   -6.9571 H         1 <0>         0.1255
     27 H11         0.0625   -7.0558   -6.8582 H         1 <0>         0.1240
     28 H12         0.0777   -8.2101   -4.6861 H         1 <0>         0.1256
     29 H13         0.0834   -6.9117   -2.5976 H         1 <0>         0.1267
@<TRIPOS>BOND
     1    1    2 1
     2    1   17 1
     3    1   18 1
     4    1   19 1
     5    2    7 ar
     6    2    3 ar
     7    3    4 ar
     8    3   20 1
     9    4    5 ar
    10    4    9 1
    11    5    6 ar
    12    6    7 ar
    13    6    8 1
    14    8   21 1
    15    8   22 1
    16    9   10 2
    17    9   23 1
    18   10   11 1
    19   10   24 1
    20   11   16 ar
    21   11   12 ar
    22   12   13 ar
    23   12   25 1
    24   13   14 ar
    25   13   26 1
    26   14   15 ar
    27   14   27 1
    28   15   16 ar
    29   15   28 1
    30   16   29 1
@<TRIPOS>MOLECULE
ZINC39473582
   30    31     0     0     0
SMALL
USER_CHARGES

@<TRIPOS>ATOM
      1 C1         -0.0173    1.4248    0.0099 C.3       1 <0>         0.0378
      2 O1          0.0021   -0.0041    0.0020 O.3       1 <0>        -0.2994
      3 C2          0.6242   -0.6167    1.0387 C.ar      1 <0>         0.4049
      4 C3          0.6900   -2.0048    1.0993 C.ar      1 <0>        -0.2931
      5 C4          1.3423   -2.5916    2.1874 C.ar      1 <0>         0.2757
      6 N1          1.8757   -1.8028    3.1244 N.ar      1 <0>        -0.5901
      7 C5          1.7903   -0.4863    3.0278 C.ar      1 <0>         0.6068
      8 N2          1.1833    0.1012    2.0066 N.ar      1 <0>        -0.6306
      9 N3          2.3549    0.2992    4.0177 N.pl3     1 <0>        -0.8195
     10 C6          1.4395   -4.0569    2.2994 C.2       1 <0>        -0.1339
     11 C7          2.0686   -4.6099    3.3494 C.2       1 <0>        -0.0369
     12 C8          2.1659   -6.0761    3.4615 C.ar      1 <0>        -0.0738
     13 C9          1.6098   -6.8942    2.4744 C.ar      1 <0>        -0.1050
     14 C10         1.7047   -8.2655    2.5862 C.ar      1 <0>        -0.1214
     15 C11         2.3487   -8.8317    3.6723 C.ar      1 <0>        -0.1114
     16 C12         2.9018   -8.0280    4.6537 C.ar      1 <0>        -0.1223
     17 C13         2.8197   -6.6550    4.5526 C.ar      1 <0>        -0.0978
     18 H1          1.0053    1.8021    0.0021 H         1 <0>         0.0615
     19 H2         -0.5445    1.7859   -0.8732 H         1 <0>         0.1004
     20 H3         -0.5275    1.7763    0.9067 H         1 <0>         0.0615
     21 H4          0.2478   -2.6140    0.3249 H         1 <0>         0.1510
     22 H5          2.8056   -0.1170    4.7691 H         1 <0>         0.4164
     23 H6          2.3000    1.2659    3.9600 H         1 <0>         0.4145
     24 H7          1.0049   -4.6868    1.5373 H         1 <0>         0.1382
     25 H8          2.5032   -3.9800    4.1115 H         1 <0>         0.1370
     26 H9          1.1066   -6.4537    1.6264 H         1 <0>         0.1276
     27 H10         1.2751   -8.8991    1.8243 H         1 <0>         0.1255
     28 H11         2.4196   -9.9063    3.7546 H         1 <0>         0.1238
     29 H12         3.4029   -8.4770    5.4985 H         1 <0>         0.1255
     30 H13         3.2561   -6.0289    5.3168 H         1 <0>         0.1270
@<TRIPOS>BOND
     1    1    2 1
     2    1   18 1
     3    1   19 1
     4    1   20 1
     5    2    3 1
     6    3    8 ar
     7    3    4 ar
     8    4    5 ar
     9    4   21 1
    10    5    6 ar
    11    5   10 1
    12    6    7 ar
    13    7    8 ar
    14    7    9 1
    15    9   22 1
    16    9   23 1
    17   10   11 2
    18   10   24 1
    19   11   12 1
    20   11   25 1
    21   12   17 ar
    22   12   13 ar
    23   13   14 ar
    24   13   26 1
    25   14   15 ar
    26   14   27 1
    27   15   16 ar
    28   15   28 1
    29   16   17 ar
    30   16   29 1
    31   17   30 1
@<TRIPOS>MOLECULE
ZINC39473582
   31    32     0     0     0
SMALL
USER_CHARGES

@<TRIPOS>ATOM
      1 C1         -0.0173    1.4248    0.0099 C.3       1 <0>         0.0215
      2 O1          0.0021   -0.0041    0.0020 O.3       1 <0>        -0.2605
      3 C2          0.6042   -0.6055   -1.0529 C.ar      1 <0>         0.4699
      4 C3          0.6586   -1.9929   -1.1353 C.ar      1 <0>        -0.2332
      5 C4          1.2894   -2.5680   -2.2422 C.ar      1 <0>         0.2948
      6 N1          1.8143   -1.7690   -3.1754 N.ar      1 <0>        -0.5725
      7 C5          1.7408   -0.4535   -3.0576 C.ar      1 <0>         0.6703
      8 N2          1.1448    0.1229   -2.0235 N.ar      1 <0>        -0.5822
      9 N3          2.2963    0.3428   -4.0440 N.pl3     1 <0>        -0.7882
     10 C6          1.3746   -4.0321   -2.3773 C.2       1 <0>        -0.1892
     11 C7          1.9832   -4.5737   -3.4452 C.2       1 <0>         0.0125
     12 C8          2.0685   -6.0387   -3.5803 C.ar      1 <0>        -0.1104
     13 C9          1.5123   -6.8676   -2.6023 C.ar      1 <0>        -0.0848
     14 C10         1.5960   -8.2377   -2.7356 C.ar      1 <0>        -0.1217
     15 C11         2.2288   -8.7921   -3.8343 C.ar      1 <0>        -0.0815
     16 C12         2.7819   -7.9776   -4.8068 C.ar      1 <0>        -0.1225
     17 C13         2.7009   -6.6058   -4.6900 C.ar      1 <0>        -0.0811
     18 H1          1.0053    1.8021    0.0021 H         1 <0>         0.0788
     19 H2         -0.5445    1.7859   -0.8732 H         1 <0>         0.0788
     20 H3         -0.5275    1.7763    0.9067 H         1 <0>         0.1236
     21 H4          0.2244   -2.6106   -0.3631 H         1 <0>         0.1974
     22 H5          2.7321   -0.0653   -4.8085 H         1 <0>         0.4312
     23 H6          2.2499    1.3089   -3.9707 H         1 <0>         0.4469
     24 H7          0.9478   -4.6702   -1.6177 H         1 <0>         0.1742
     25 H8          2.4101   -3.9356   -4.2048 H         1 <0>         0.1220
     26 H9          1.0184   -6.4363   -1.7441 H         1 <0>         0.1320
     27 H10         1.1669   -8.8796   -1.9804 H         1 <0>         0.1352
     28 H11         2.2916   -9.8657   -3.9332 H         1 <0>         0.1342
     29 H12         3.2743   -8.4173   -5.6616 H         1 <0>         0.1347
     30 H13         3.1288   -5.9714   -5.4522 H         1 <0>         0.1303
     31 H14         2.2544   -2.1576   -3.9476 H         1 <0>         0.4395
@<TRIPOS>BOND
     1    1    2 1
     2    1   18 1
     3    1   19 1
     4    1   20 1
     5    2    3 1
     6    3    8 ar
     7    3    4 ar
     8    4    5 ar
     9    4   21 1
    10    5    6 ar
    11    5   10 1
    12    6    7 ar
    13    6   31 1
    14    7    8 ar
    15    7    9 1
    16    9   22 1
    17    9   23 1
    18   10   11 2
    19   10   24 1
    20   11   12 1
    21   11   25 1
    22   12   17 ar
    23   12   13 ar
    24   13   14 ar
    25   13   26 1
    26   14   15 ar
    27   14   27 1
    28   15   16 ar
    29   15   28 1
    30   16   17 ar
    31   16   29 1
    32   17   30 1
@<TRIPOS>MOLECULE
ZINC34327129
   28    29     0     0     0
SMALL
USER_CHARGES

@<TRIPOS>ATOM
      1 C1         -0.0167    1.3796    0.0096 C.ar      1 <0>        -0.0861
      2 C2          1.1681    2.0945    0.0022 C.ar      1 <0>        -0.1212
      3 C3          2.3774    1.4316   -0.0129 C.ar      1 <0>        -0.0860
      4 C4          2.4043    0.0344   -0.0206 C.ar      1 <0>        -0.1040
      5 C5          1.2037   -0.6807   -0.0130 C.ar      1 <0>        -0.0892
      6 C6          0.0021   -0.0041    0.0020 C.ar      1 <0>        -0.1205
      7 C7          3.6924   -0.6813   -0.0372 C.2       1 <0>        -0.0109
      8 C8          3.7145   -2.0241   -0.0446 C.2       1 <0>        -0.1812
      9 C9          5.0021   -2.7395   -0.0611 C.ar      1 <0>         0.2279
     10 C10         5.0181   -4.1352   -0.0745 C.ar      1 <0>        -0.1605
     11 C11         6.2347   -4.7969   -0.0900 C.ar      1 <0>         0.0397
     12 C12         7.3988   -4.0460   -0.0918 C.ar      1 <0>        -0.2050
     13 C13         7.3150   -2.6564   -0.0780 C.ar      1 <0>         0.4555
     14 N1          6.1398   -2.0498   -0.0687 N.ar      1 <0>        -0.5148
     15 N2          8.4797   -1.8980   -0.0792 N.pl3     1 <0>        -0.8244
     16 H1         -0.9606    1.9041    0.0260 H         1 <0>         0.1334
     17 H2          1.1458    3.1743    0.0078 H         1 <0>         0.1337
     18 H3          3.3013    1.9909   -0.0191 H         1 <0>         0.1285
     19 H4          1.2169   -1.7606   -0.0192 H         1 <0>         0.1305
     20 H5         -0.9266   -0.5554    0.0082 H         1 <0>         0.1343
     21 H6          4.6187   -0.1260   -0.0434 H         1 <0>         0.1173
     22 H7          2.7882   -2.5794   -0.0384 H         1 <0>         0.1693
     23 H8          4.0930   -4.6924   -0.0724 H         1 <0>         0.1814
     24 H9          6.2750   -5.8761   -0.1002 H         1 <0>         0.1769
     25 H10         8.3622   -4.5339   -0.1034 H         1 <0>         0.1797
     26 H11         9.3445   -2.3372   -0.0896 H         1 <0>         0.4411
     27 H12         8.4277   -0.9294   -0.0696 H         1 <0>         0.4200
     28 H13         6.1067   -1.0803   -0.0633 H         1 <0>         0.4344
@<TRIPOS>BOND
     1    1    6 ar
     2    1    2 ar
     3    1   16 1
     4    2    3 ar
     5    2   17 1
     6    3    4 ar
     7    3   18 1
     8    4    5 ar
     9    4    7 1
    10    5    6 ar
    11    5   19 1
    12    6   20 1
    13    7    8 2
    14    7   21 1
    15    8    9 1
    16    8   22 1
    17    9   14 ar
    18    9   10 ar
    19   10   11 ar
    20   10   23 1
    21   11   12 ar
    22   11   24 1
    23   12   13 ar
    24   12   25 1
    25   13   14 ar
    26   13   15 1
    27   14   28 1
    28   15   26 1
    29   15   27 1
@<TRIPOS>MOLECULE
ZINC34327129
   27    28     0     0     0
SMALL
USER_CHARGES

@<TRIPOS>ATOM
      1 C1         -0.0167    1.3796    0.0096 C.ar      1 <0>        -0.1157
      2 C2          1.1681    2.0945    0.0022 C.ar      1 <0>        -0.1211
      3 C3          2.3774    1.4316   -0.0129 C.ar      1 <0>        -0.1023
      4 C4          2.4043    0.0344   -0.0206 C.ar      1 <0>        -0.0668
      5 C5          1.2037   -0.6807   -0.0130 C.ar      1 <0>        -0.1095
      6 C6          0.0021   -0.0041    0.0020 C.ar      1 <0>        -0.1204
      7 C7          3.6924   -0.6813   -0.0372 C.2       1 <0>        -0.0600
      8 C8          3.7145   -2.0241   -0.0446 C.2       1 <0>        -0.1242
      9 C9          5.0021   -2.7395   -0.0611 C.ar      1 <0>         0.2065
     10 C10         5.0181   -4.1352   -0.0745 C.ar      1 <0>        -0.2204
     11 C11         6.2347   -4.7969   -0.0900 C.ar      1 <0>        -0.0318
     12 C12         7.3988   -4.0460   -0.0918 C.ar      1 <0>        -0.2441
     13 C13         7.3150   -2.6564   -0.0780 C.ar      1 <0>         0.4083
     14 N1          6.1398   -2.0498   -0.0687 N.ar      1 <0>        -0.5437
     15 N2          8.4797   -1.8980   -0.0792 N.pl3     1 <0>        -0.8533
     16 H1         -0.9606    1.9041    0.0260 H         1 <0>         0.1229
     17 H2          1.1458    3.1743    0.0078 H         1 <0>         0.1245
     18 H3          3.3013    1.9909   -0.0191 H         1 <0>         0.1256
     19 H4          1.2169   -1.7606   -0.0192 H         1 <0>         0.1261
     20 H5         -0.9266   -0.5554    0.0082 H         1 <0>         0.1244
     21 H6          4.6187   -0.1260   -0.0434 H         1 <0>         0.1337
     22 H7          2.7882   -2.5794   -0.0384 H         1 <0>         0.1319
     23 H8          4.0930   -4.6924   -0.0724 H         1 <0>         0.1331
     24 H9          6.2750   -5.8761   -0.1002 H         1 <0>         0.1346
     25 H10         8.3622   -4.5339   -0.1034 H         1 <0>         0.1298
     26 H11         9.3445   -2.3372   -0.0896 H         1 <0>         0.4085
     27 H12         8.4277   -0.9294   -0.0696 H         1 <0>         0.4035
@<TRIPOS>BOND
     1    1    6 ar
     2    1    2 ar
     3    1   16 1
     4    2    3 ar
     5    2   17 1
     6    3    4 ar
     7    3   18 1
     8    4    5 ar
     9    4    7 1
    10    5    6 ar
    11    5   19 1
    12    6   20 1
    13    7    8 2
    14    7   21 1
    15    8    9 1
    16    8   22 1
    17    9   14 ar
    18    9   10 ar
    19   10   11 ar
    20   10   23 1
    21   11   12 ar
    22   11   24 1
    23   12   13 ar
    24   12   25 1
    25   13   14 ar
    26   13   15 1
    27   15   26 1
    28   15   27 1
@<TRIPOS>MOLECULE
ZINC45951686
   25    27     0     0     0
SMALL
USER_CHARGES

@<TRIPOS>ATOM
      1 C1         -0.0165    1.3626    0.0095 C.ar      1 <0>        -0.1368
      2 C2          1.1706    2.0817    0.0021 C.ar      1 <0>        -0.0834
      3 C3          2.3868    1.4330   -0.0134 C.ar      1 <0>        -0.1095
      4 C4          2.4299    0.0441   -0.0213 C.ar      1 <0>         0.0680
      5 C5          1.2238   -0.6794   -0.0132 C.ar      1 <0>        -0.1430
      6 C6          0.0021   -0.0041    0.0020 C.ar      1 <0>        -0.0616
      7 C7          1.6097   -2.0917   -0.0250 C.2       1 <0>        -0.1243
      8 C8          2.9645   -2.1108   -0.0388 C.2       1 <0>         0.0508
      9 O1          3.4394   -0.8491   -0.0365 O.3       1 <0>        -0.1830
     10 C9          3.7962   -3.3309   -0.0540 C.ar      1 <0>         0.2894
     11 C10         5.1934   -3.2393   -0.0617 C.ar      1 <0>        -0.2681
     12 C11         5.9295   -4.4093   -0.0754 C.ar      1 <0>         0.2017
     13 N1          5.2974   -5.5730   -0.0809 N.ar      1 <0>        -0.5685
     14 C12         3.9734   -5.6313   -0.0734 C.ar      1 <0>         0.5770
     15 N2          3.2289   -4.5374   -0.0550 N.ar      1 <0>        -0.5593
     16 N3          3.3532   -6.8687   -0.0795 N.pl3     1 <0>        -0.8181
     17 H1         -0.9609    1.8862    0.0259 H         1 <0>         0.1328
     18 H2          1.1410    3.1612    0.0081 H         1 <0>         0.1386
     19 H3          3.3041    2.0030   -0.0199 H         1 <0>         0.1357
     20 H4         -0.9244   -0.5591    0.0082 H         1 <0>         0.1312
     21 H5          0.9483   -2.9455   -0.0231 H         1 <0>         0.1690
     22 H6          5.6843   -2.2774   -0.0573 H         1 <0>         0.1517
     23 H7          7.0089   -4.3748   -0.0820 H         1 <0>         0.1760
     24 H8          3.8868   -7.6787   -0.0891 H         1 <0>         0.4178
     25 H9          2.3849   -6.9260   -0.0741 H         1 <0>         0.4160
@<TRIPOS>BOND
     1    1    6 ar
     2    1    2 ar
     3    1   17 1
     4    2    3 ar
     5    2   18 1
     6    3    4 ar
     7    3   19 1
     8    4    9 1
     9    4    5 ar
    10    5    6 ar
    11    5    7 1
    12    6   20 1
    13    7    8 2
    14    7   21 1
    15    8    9 1
    16    8   10 1
    17   10   15 ar
    18   10   11 ar
    19   11   12 ar
    20   11   22 1
    21   12   13 ar
    22   12   23 1
    23   13   14 ar
    24   14   15 ar
    25   14   16 1
    26   16   24 1
    27   16   25 1
@<TRIPOS>MOLECULE
ZINC58602679
   26    27     0     0     0
SMALL
USER_CHARGES

@<TRIPOS>ATOM
      1 C1         -0.0169    1.3937    0.0097 C.ar      1 <0>        -0.0687
      2 C2          1.1691    2.0962    0.0022 C.ar      1 <0>        -0.1545
      3 C3          2.3789    1.4194   -0.0130 C.ar      1 <0>         0.1063
      4 C4          2.4044    0.0333   -0.0207 C.ar      1 <0>        -0.1537
      5 C5          1.2252   -0.6806   -0.0138 C.ar      1 <0>        -0.0769
      6 C6          0.0021   -0.0041    0.0020 C.ar      1 <0>        -0.0821
      7 C7         -1.2617   -0.7609    0.0105 C.2       1 <0>        -0.0412
      8 C8         -1.2403   -2.1046    0.0031 C.2       1 <0>        -0.1321
      9 C9         -2.5031   -2.8609    0.0116 C.ar      1 <0>         0.2505
     10 C10        -2.4941   -4.2628    0.0098 C.ar      1 <0>        -0.2797
     11 C11        -3.7052   -4.9281    0.0185 C.ar      1 <0>         0.1945
     12 N1         -4.8298   -4.2283    0.0282 N.ar      1 <0>        -0.5777
     13 C12        -4.8106   -2.9031    0.0296 C.ar      1 <0>         0.5706
     14 N2         -3.6753   -2.2234    0.0266 N.ar      1 <0>        -0.5724
     15 N3         -6.0098   -2.2119    0.0393 N.pl3     1 <0>        -0.8224
     16 F1          3.5380    2.1135   -0.0208 F         1 <0>        -0.1368
     17 H1         -0.9587    1.9220    0.0260 H         1 <0>         0.1384
     18 H2          1.1558    3.1761    0.0077 H         1 <0>         0.1395
     19 H3          3.3500   -0.4883   -0.0326 H         1 <0>         0.1394
     20 H4          1.2463   -1.7604   -0.0205 H         1 <0>         0.1381
     21 H5         -2.2054   -0.2359    0.0227 H         1 <0>         0.1382
     22 H6         -0.2965   -2.6295   -0.0091 H         1 <0>         0.1378
     23 H7         -1.5629   -4.8097    0.0016 H         1 <0>         0.1462
     24 H8         -3.7345   -6.0077    0.0171 H         1 <0>         0.1694
     25 H9         -6.8495   -2.6975    0.0450 H         1 <0>         0.4153
     26 H10        -6.0105   -1.2419    0.0404 H         1 <0>         0.4141
@<TRIPOS>BOND
     1    1    6 ar
     2    1    2 ar
     3    1   17 1
     4    2    3 ar
     5    2   18 1
     6    3    4 ar
     7    3   16 1
     8    4    5 ar
     9    4   19 1
    10    5    6 ar
    11    5   20 1
    12    6    7 1
    13    7    8 2
    14    7   21 1
    15    8    9 1
    16    8   22 1
    17    9   14 ar
    18    9   10 ar
    19   10   11 ar
    20   10   23 1
    21   11   12 ar
    22   11   24 1
    23   12   13 ar
    24   13   14 ar
    25   13   15 1
    26   15   25 1
    27   15   26 1
@<TRIPOS>MOLECULE
ZINC58599618
   23    24     0     0     0
SMALL
USER_CHARGES

@<TRIPOS>ATOM
      1 C1         -0.0164    1.3558    0.0095 C.2       1 <0>        -0.1604
      2 C2          1.1720    2.0448    0.0018 C.2       1 <0>        -0.1319
      3 C3          2.3535    1.3196   -0.0133 C.2       1 <0>        -0.1413
      4 S1          1.7509   -0.3611   -0.0166 S.3       1 <0>         0.0648
      5 C4          0.0021   -0.0041    0.0020 C.2       1 <0>        -0.1687
      6 C5          3.7341    1.8049   -0.0246 C.2       1 <0>         0.0009
      7 C6          4.7581    0.9261   -0.0390 C.2       1 <0>        -0.1279
      8 C7          6.1442    1.4134   -0.0503 C.ar      1 <0>         0.2523
      9 C8          7.2180    0.5099   -0.0712 C.ar      1 <0>        -0.2777
     10 C9          8.5024    1.0163   -0.0816 C.ar      1 <0>         0.1947
     11 N1          8.6830    2.3292   -0.0717 N.ar      1 <0>        -0.5774
     12 C10         7.6519    3.1617   -0.0520 C.ar      1 <0>         0.5709
     13 N2          6.4034    2.7235   -0.0465 N.ar      1 <0>        -0.5724
     14 N3          7.8873    4.5257   -0.0423 N.pl3     1 <0>        -0.8223
     15 H1         -0.9557    1.8885    0.0258 H         1 <0>         0.1377
     16 H2          1.1856    3.1247    0.0072 H         1 <0>         0.1387
     17 H3         -0.8298   -0.6928    0.0066 H         1 <0>         0.1886
     18 H4          3.9334    2.8663   -0.0214 H         1 <0>         0.1502
     19 H5          4.5587   -0.1353   -0.0421 H         1 <0>         0.1351
     20 H6          7.0438   -0.5559   -0.0785 H         1 <0>         0.1468
     21 H7          9.3516    0.3492   -0.0973 H         1 <0>         0.1699
     22 H8          8.7975    4.8608   -0.0499 H         1 <0>         0.4153
     23 H9          7.1420    5.1464   -0.0278 H         1 <0>         0.4142
@<TRIPOS>BOND
     1    1    5 2
     2    1    2 1
     3    1   15 1
     4    2    3 2
     5    2   16 1
     6    3    4 1
     7    3    6 1
     8    4    5 1
     9    5   17 1
    10    6    7 2
    11    6   18 1
    12    7    8 1
    13    7   19 1
    14    8   13 ar
    15    8    9 ar
    16    9   10 ar
    17    9   20 1
    18   10   11 ar
    19   10   21 1
    20   11   12 ar
    21   12   13 ar
    22   12   14 1
    23   14   22 1
    24   14   23 1
@<TRIPOS>MOLECULE
ZINC58575561
   23    24     0     0     0
SMALL
USER_CHARGES

@<TRIPOS>ATOM
      1 C1         -0.0162    1.3457    0.0094 C.2       1 <0>        -0.2168
      2 C2          1.3212    1.7777   -0.0010 C.2       1 <0>        -0.1734
      3 C3          2.0972    0.6527   -0.0145 C.2       1 <0>        -0.0052
      4 O1          1.2784   -0.4188   -0.0124 O.3       1 <0>        -0.1707
      5 C4          0.0021   -0.0041    0.0020 C.2       1 <0>        -0.0247
      6 C5          3.5599    0.6171   -0.0294 C.2       1 <0>        -0.0147
      7 C6          4.2059   -0.5677   -0.0418 C.2       1 <0>        -0.1215
      8 C7          5.6749   -0.6034   -0.0568 C.ar      1 <0>         0.2495
      9 C8          6.3586   -1.8288   -0.0757 C.ar      1 <0>        -0.2766
     10 C9          7.7394   -1.8106   -0.0897 C.ar      1 <0>         0.1947
     11 N1          8.3734   -0.6470   -0.0849 N.ar      1 <0>        -0.5770
     12 C10         7.7044    0.4970   -0.0670 C.ar      1 <0>         0.5708
     13 N2          6.3817    0.5297   -0.0582 N.ar      1 <0>        -0.5727
     14 N3          8.4079    1.6890   -0.0626 N.pl3     1 <0>        -0.8222
     15 H1         -0.8936    1.9753    0.0252 H         1 <0>         0.1530
     16 H2          1.6685    2.8003    0.0006 H         1 <0>         0.1542
     17 H3         -0.8673   -0.6448    0.0069 H         1 <0>         0.2070
     18 H4          4.1225    1.5390   -0.0304 H         1 <0>         0.1589
     19 H5          3.6433   -1.4896   -0.0408 H         1 <0>         0.1404
     20 H6          5.8179   -2.7637   -0.0788 H         1 <0>         0.1471
     21 H7          8.2969   -2.7354   -0.1041 H         1 <0>         0.1701
     22 H8          9.3778    1.6798   -0.0727 H         1 <0>         0.4154
     23 H9          7.9310    2.5336   -0.0495 H         1 <0>         0.4143
@<TRIPOS>BOND
     1    1    5 2
     2    1    2 1
     3    1   15 1
     4    2    3 2
     5    2   16 1
     6    3    4 1
     7    3    6 1
     8    4    5 1
     9    5   17 1
    10    6    7 2
    11    6   18 1
    12    7    8 1
    13    7   19 1
    14    8   13 ar
    15    8    9 ar
    16    9   10 ar
    17    9   20 1
    18   10   11 ar
    19   10   21 1
    20   11   12 ar
    21   12   13 ar
    22   12   14 1
    23   14   22 1
    24   14   23 1
@<TRIPOS>MOLECULE
ZINC00673785
   47    49     0     0     0
SMALL
USER_CHARGES

@<TRIPOS>ATOM
      1 C1         -0.0620    1.5057   -0.0504 C.3       1 <0>        -0.1181
      2 C2          0.0123    0.0006   -0.0338 C.ar      1 <0>        -0.0667
      3 C3          1.1356   -0.6290    0.4703 C.ar      1 <0>        -0.1227
      4 C4          1.2070   -2.0081    0.4870 C.ar      1 <0>        -0.0592
      5 C5          0.1489   -2.7628   -0.0034 C.ar      1 <0>         0.1089
      6 C6         -0.9779   -2.1271   -0.5091 C.ar      1 <0>        -0.0649
      7 C7         -1.0452   -0.7477   -0.5176 C.ar      1 <0>        -0.1251
      8 C8         -2.1281   -2.9417   -1.0426 C.3       1 <0>        -0.1187
      9 N1          0.2180   -4.1578    0.0116 N.pl3     1 <0>        -1.0560
     10 S1          0.1628   -4.9742    1.4513 S.o2      1 <0>         2.6849
     11 O1          0.1468   -6.3589    1.1327 O.2       1 <0>        -0.9554
     12 O2          1.1578   -4.3957    2.2846 O.2       1 <0>        -0.9421
     13 C9         -1.3919   -4.6110    2.1968 C.ar      1 <0>        -0.6881
     14 C10        -1.5418   -3.4652    2.9564 C.ar      1 <0>         0.0101
     15 C11        -2.7590   -3.1776    3.5421 C.ar      1 <0>        -0.1629
     16 C12        -3.8333   -4.0404    3.3672 C.ar      1 <0>         0.2056
     17 C13        -3.6794   -5.1902    2.6033 C.ar      1 <0>        -0.1427
     18 C14        -2.4609   -5.4694    2.0163 C.ar      1 <0>         0.0031
     19 N2         -5.0669   -3.7524    3.9592 N.am      1 <0>        -0.6688
     20 C15        -5.8493   -4.7540    4.4078 C.2       1 <0>         0.6091
     21 O3         -5.4446   -5.9015    4.3800 O.2       1 <0>        -0.4909
     22 C16        -7.1880   -4.4612    4.9292 C.2       1 <0>        -0.0941
     23 C17        -8.0768   -5.3759    5.4175 C.2       1 <0>        -0.1029
     24 C18        -9.2207   -4.6604    5.8044 C.2       1 <0>        -0.2252
     25 C19        -8.9831   -3.3568    5.5388 C.2       1 <0>         0.0068
     26 O4         -7.7554   -3.2403    5.0162 O.3       1 <0>        -0.1659
     27 C20         2.4317   -2.6935    1.0361 C.3       1 <0>        -0.1180
     28 H1         -0.5013    1.8581    0.8829 H         1 <0>         0.0729
     29 H2          0.9413    1.9179   -0.1582 H         1 <0>         0.0689
     30 H3         -0.6799    1.8297   -0.8879 H         1 <0>         0.0677
     31 H4          1.9580   -0.0417    0.8511 H         1 <0>         0.1287
     32 H5         -1.9228   -0.2528   -0.9065 H         1 <0>         0.1256
     33 H6         -2.8736   -3.0746   -0.2587 H         1 <0>         0.0728
     34 H7         -2.5789   -2.4231   -1.8887 H         1 <0>         0.0707
     35 H8         -1.7635   -3.9166   -1.3663 H         1 <0>         0.0681
     36 H9          0.2984   -4.6484   -0.8214 H         1 <0>         0.4241
     37 H10        -0.7061   -2.7947    3.0921 H         1 <0>         0.1427
     38 H11        -2.8753   -2.2829    4.1358 H         1 <0>         0.1377
     39 H12        -4.5128   -5.8631    2.4653 H         1 <0>         0.1445
     40 H13        -2.3417   -6.3612    1.4188 H         1 <0>         0.1460
     41 H14        -5.3596   -2.8318    4.0470 H         1 <0>         0.4204
     42 H15        -7.9285   -6.4431    5.4911 H         1 <0>         0.1641
     43 H16       -10.1213   -5.0738    6.2336 H         1 <0>         0.1617
     44 H17        -9.6688   -2.5427    5.7215 H         1 <0>         0.2152
     45 H18         2.3496   -2.7704    2.1203 H         1 <0>         0.1048
     46 H19         2.5129   -3.6918    0.6061 H         1 <0>         0.0602
     47 H20         3.3183   -2.1139    0.7791 H         1 <0>         0.0629
@<TRIPOS>BOND
     1    1    2 1
     2    1   28 1
     3    1   29 1
     4    1   30 1
     5    2    7 ar
     6    2    3 ar
     7    3    4 ar
     8    3   31 1
     9    4    5 ar
    10    4   27 1
    11    5    6 ar
    12    5    9 1
    13    6    7 ar
    14    6    8 1
    15    7   32 1
    16    8   33 1
    17    8   34 1
    18    8   35 1
    19    9   10 1
    20    9   36 1
    21   10   11 2
    22   10   12 2
    23   10   13 1
    24   13   18 ar
    25   13   14 ar
    26   14   15 ar
    27   14   37 1
    28   15   16 ar
    29   15   38 1
    30   16   17 ar
    31   16   19 1
    32   17   18 ar
    33   17   39 1
    34   18   40 1
    35   19   20 am
    36   19   41 1
    37   20   21 2
    38   20   22 1
    39   22   26 1
    40   22   23 2
    41   23   24 1
    42   23   42 1
    43   24   25 2
    44   24   43 1
    45   25   26 1
    46   25   44 1
    47   27   45 1
    48   27   46 1
    49   27   47 1
@<TRIPOS>MOLECULE
ZINC14627207
   46    48     0     0     0
SMALL
USER_CHARGES

@<TRIPOS>ATOM
      1 C1         -0.5684    1.5013   -0.2958 C.3       1 <0>        -0.1488
      2 C2         -0.4689   -0.0250   -0.2603 C.3       1 <0>        -0.0918
      3 C3         -1.8610   -0.6218   -0.0410 C.3       1 <0>        -0.1282
      4 C4         -1.7626   -2.1505   -0.0406 C.3       1 <0>         0.1164
      5 N1         -0.7663   -2.5600    0.9586 N.pl3     1 <0>        -0.9968
      6 C5          0.5804   -1.9760    0.8940 C.3       1 <0>         0.1161
      7 C6          0.4558   -0.4492    0.8831 C.3       1 <0>        -0.1282
      8 S1         -1.1540   -3.6584    2.1357 S.o2      1 <0>         2.6920
      9 O1         -0.2570   -3.4316    3.2142 O.2       1 <0>        -0.9538
     10 O2         -2.5650   -3.6031    2.2939 O.2       1 <0>        -0.9545
     11 C7         -0.7810   -5.2583    1.4985 C.ar      1 <0>        -0.6948
     12 C8         -1.7438   -5.9649    0.8013 C.ar      1 <0>         0.0020
     13 C9         -1.4549   -7.2192    0.3009 C.ar      1 <0>        -0.1645
     14 C10        -0.1955   -7.7708    0.4982 C.ar      1 <0>         0.2047
     15 C11         0.7694   -7.0583    1.1985 C.ar      1 <0>        -0.1441
     16 C12         0.4756   -5.8022    1.6918 C.ar      1 <0>         0.0020
     17 N2          0.1001   -9.0408   -0.0067 N.am      1 <0>        -0.6589
     18 C13         0.9432   -9.8524    0.6620 C.2       1 <0>         0.5768
     19 O3          1.3712   -9.5204    1.7500 O.2       1 <0>        -0.5023
     20 C14         1.3480  -11.1489    0.0710 C.ar      1 <0>         0.0698
     21 C15         2.2153  -11.9859    0.7698 C.ar      1 <0>        -0.1048
     22 C16         2.5846  -13.1959    0.2041 C.ar      1 <0>        -0.0791
     23 C17         2.0737  -13.5269   -1.0414 C.ar      1 <0>        -0.1416
     24 C18         1.2155  -12.6460   -1.6796 C.ar      1 <0>         0.1008
     25 N3          0.8773  -11.5059   -1.1176 N.ar      1 <0>        -0.4609
     26 H1          0.4229    1.9265   -0.4532 H         1 <0>         0.0556
     27 H2         -1.2269    1.8037   -1.1101 H         1 <0>         0.0556
     28 H3         -0.9720    1.8612    0.6506 H         1 <0>         0.0553
     29 H4         -0.0648   -0.3847   -1.2066 H         1 <0>         0.0724
     30 H5         -2.2555   -0.2823    0.9167 H         1 <0>         0.0699
     31 H6         -2.5251   -0.3002   -0.8432 H         1 <0>         0.0771
     32 H7         -2.7321   -2.5790    0.2133 H         1 <0>         0.0940
     33 H8         -1.4546   -2.4971   -1.0270 H         1 <0>         0.0706
     34 H9          1.1568   -2.2894    1.7644 H         1 <0>         0.0942
     35 H10         1.0795   -2.3084   -0.0163 H         1 <0>         0.0707
     36 H11         1.4405   -0.0048    0.7386 H         1 <0>         0.0772
     37 H12         0.0394   -0.1114    1.8321 H         1 <0>         0.0700
     38 H13        -2.7229   -5.5354    0.6482 H         1 <0>         0.1449
     39 H14        -2.2075   -7.7709   -0.2429 H         1 <0>         0.1387
     40 H15         1.7496   -7.4843    1.3537 H         1 <0>         0.1446
     41 H16         1.2268   -5.2458    2.2326 H         1 <0>         0.1440
     42 H17        -0.3015   -9.3377   -0.8382 H         1 <0>         0.4258
     43 H18         2.5946  -11.6958    1.7385 H         1 <0>         0.1513
     44 H19         3.2556  -13.8656    0.7216 H         1 <0>         0.1472
     45 H20         2.3421  -14.4623   -1.5099 H         1 <0>         0.1456
     46 H21         0.8159  -12.9006   -2.6501 H         1 <0>         0.1676
@<TRIPOS>BOND
     1    1    2 1
     2    1   26 1
     3    1   27 1
     4    1   28 1
     5    2    7 1
     6    2    3 1
     7    2   29 1
     8    3    4 1
     9    3   30 1
    10    3   31 1
    11    4    5 1
    12    4   32 1
    13    4   33 1
    14    5    6 1
    15    5    8 1
    16    6    7 1
    17    6   34 1
    18    6   35 1
    19    7   36 1
    20    7   37 1
    21    8    9 2
    22    8   10 2
    23    8   11 1
    24   11   16 ar
    25   11   12 ar
    26   12   13 ar
    27   12   38 1
    28   13   14 ar
    29   13   39 1
    30   14   15 ar
    31   14   17 1
    32   15   16 ar
    33   15   40 1
    34   16   41 1
    35   17   18 am
    36   17   42 1
    37   18   19 2
    38   18   20 1
    39   20   25 ar
    40   20   21 ar
    41   21   22 ar
    42   21   43 1
    43   22   23 ar
    44   22   44 1
    45   23   24 ar
    46   23   45 1
    47   24   25 ar
    48   24   46 1
@<TRIPOS>MOLECULE
ZINC58649939
   39    41     0     0     0
SMALL
USER_CHARGES

@<TRIPOS>ATOM
      1 C1         -0.0574    1.3712   -0.1973 C.ar      1 <0>        -0.0629
      2 C2          1.1119    2.0809   -0.4008 C.ar      1 <0>        -0.2212
      3 C3          2.3112    1.4121   -0.5631 C.ar      1 <0>        -0.0709
      4 C4          2.3448    0.0310   -0.5223 C.ar      1 <0>        -0.0937
      5 C5          1.1712   -0.6849   -0.3174 C.ar      1 <0>         0.2909
      6 C6         -0.0312   -0.0091   -0.1550 C.ar      1 <0>        -0.2575
      7 N1          1.2009   -2.0814   -0.2760 N.2       1 <0>        -1.0602
      8 S1         -0.1986   -2.9325   -0.0317 S.o2      1 <0>         2.6012
      9 O1         -0.6340   -2.6285    1.2863 O.2       1 <0>        -1.0297
     10 O2         -1.0140   -2.7096   -1.1739 O.2       1 <0>        -1.0128
     11 C7          0.2237   -4.6431   -0.0406 C.ar      1 <0>        -0.6272
     12 C8          0.0639   -5.3993    1.1062 C.ar      1 <0>         0.0001
     13 C9          0.3943   -6.7401    1.1029 C.ar      1 <0>        -0.1653
     14 C10         0.8874   -7.3301   -0.0541 C.ar      1 <0>         0.1898
     15 C11         1.0467   -6.5692   -1.2046 C.ar      1 <0>        -0.1413
     16 C12         0.7093   -5.2285   -1.1966 C.ar      1 <0>         0.0813
     17 Cl1         0.9017   -4.2771   -2.6359 Cl        1 <0>        -0.0233
     18 N2          1.2231   -8.6875   -0.0599 N.am      1 <0>        -0.6531
     19 C13         2.2473   -9.1251   -0.8189 C.2       1 <0>         0.5698
     20 O3          2.9392   -8.3294   -1.4230 O.2       1 <0>        -0.4994
     21 C14         2.5295  -10.5760   -0.9167 C.ar      1 <0>         0.0787
     22 C15         3.5933  -11.0217   -1.6984 C.ar      1 <0>        -0.1066
     23 C16         3.8449  -12.3820   -1.7801 C.ar      1 <0>        -0.0801
     24 C17         3.0237  -13.2498   -1.0769 C.ar      1 <0>        -0.1478
     25 C18         1.9836  -12.7365   -0.3189 C.ar      1 <0>         0.0990
     26 N3          1.7703  -11.4402   -0.2546 N.ar      1 <0>        -0.4600
     27 Cl2         3.8505   -0.8083   -0.7272 Cl        1 <0>        -0.0917
     28 H1         -0.9916    1.8970   -0.0668 H         1 <0>         0.1059
     29 H2          1.0883    3.1602   -0.4335 H         1 <0>         0.1084
     30 H3          3.2225    1.9694   -0.7223 H         1 <0>         0.1128
     31 H4         -0.9449   -0.5624    0.0044 H         1 <0>         0.1031
     32 H5         -0.3195   -4.9405    2.0056 H         1 <0>         0.1520
     33 H6          0.2697   -7.3295    1.9993 H         1 <0>         0.1369
     34 H7          1.4302   -7.0249   -2.1055 H         1 <0>         0.1473
     35 H8          0.7189   -9.3141    0.4823 H         1 <0>         0.4232
     36 H9          4.2127  -10.3171   -2.2334 H         1 <0>         0.1519
     37 H10         4.6619  -12.7576   -2.3782 H         1 <0>         0.1448
     38 H11         3.1928  -14.3156   -1.1197 H         1 <0>         0.1425
     39 H12         1.3419  -13.4097    0.2302 H         1 <0>         0.1653
@<TRIPOS>BOND
     1    1    6 ar
     2    1    2 ar
     3    1   28 1
     4    2    3 ar
     5    2   29 1
     6    3    4 ar
     7    3   30 1
     8    4    5 ar
     9    4   27 1
    10    5    6 ar
    11    5    7 1
    12    6   31 1
    13    7    8 1
    14    8    9 2
    15    8   10 2
    16    8   11 1
    17   11   16 ar
    18   11   12 ar
    19   12   13 ar
    20   12   32 1
    21   13   14 ar
    22   13   33 1
    23   14   15 ar
    24   14   18 1
    25   15   16 ar
    26   15   34 1
    27   16   17 1
    28   18   19 am
    29   18   35 1
    30   19   20 2
    31   19   21 1
    32   21   26 ar
    33   21   22 ar
    34   22   23 ar
    35   22   36 1
    36   23   24 ar
    37   23   37 1
    38   24   25 ar
    39   24   38 1
    40   25   26 ar
    41   25   39 1
@<TRIPOS>MOLECULE
ZINC00813644
   41    43     0     0     0
SMALL
USER_CHARGES

@<TRIPOS>ATOM
      1 C1          0.7398    0.9656   -0.7552 C.3       1 <0>         0.0282
      2 O1          0.6083   -0.4369   -0.5146 O.3       1 <0>        -0.3181
      3 C2          0.9225   -0.8815    0.7314 C.ar      1 <0>         0.1190
      4 C3          1.3422    0.0131    1.7014 C.ar      1 <0>        -0.1889
      5 C4          1.6620   -0.4431    2.9732 C.ar      1 <0>         0.1660
      6 C5          1.5617   -1.7958    3.2723 C.ar      1 <0>        -0.1554
      7 C6          1.1437   -2.6896    2.3058 C.ar      1 <0>        -0.0745
      8 C7          0.8172   -2.2371    1.0355 C.ar      1 <0>         0.1081
      9 N1          0.3870   -3.1441    0.0568 N.am      1 <0>        -0.6551
     10 C8          0.7906   -4.4292    0.1050 C.2       1 <0>         0.5551
     11 O2          1.4634   -4.8205    1.0391 O.2       1 <0>        -0.4971
     12 C9          0.4155   -5.3623   -0.9772 C.ar      1 <0>        -0.1330
     13 C10        -0.3522   -4.9150   -2.0545 C.ar      1 <0>        -0.0734
     14 C11        -0.6985   -5.7910   -3.0615 C.ar      1 <0>        -0.1232
     15 C12        -0.2872   -7.1116   -3.0071 C.ar      1 <0>        -0.0776
     16 C13         0.4732   -7.5627   -1.9440 C.ar      1 <0>        -0.1208
     17 C14         0.8321   -6.6950   -0.9306 C.ar      1 <0>         0.0167
     18 Cl1         1.7924   -7.2607    0.4003 Cl        1 <0>        -0.0275
     19 N2          2.0863    0.4607    3.9543 N.am      1 <0>        -0.6662
     20 C15         1.5548    1.6981    4.0058 C.2       1 <0>         0.6091
     21 O3          0.7673    2.0583    3.1504 O.2       1 <0>        -0.5087
     22 C16         1.9250    2.6101    5.0916 C.2       1 <0>        -0.2665
     23 C17         1.4942    3.9066    5.3293 C.2       1 <0>        -0.0591
     24 C18         2.0234    4.5170    6.4411 C.2       1 <0>        -0.1862
     25 C19         2.9059    3.8336    7.2110 C.2       1 <0>        -0.2150
     26 S1          3.0404    2.3391    6.4556 S.3       1 <0>         0.2113
     27 H1          1.7738    1.2674   -0.5887 H         1 <0>         0.0557
     28 H2          0.4585    1.1854   -1.7851 H         1 <0>         0.1017
     29 H3          0.0873    1.5136   -0.0755 H         1 <0>         0.0619
     30 H4          1.4209    1.0648    1.4688 H         1 <0>         0.1512
     31 H5          1.8112   -2.1492    4.2619 H         1 <0>         0.1335
     32 H6          1.0671   -3.7411    2.5402 H         1 <0>         0.1645
     33 H7         -0.2012   -2.8469   -0.6549 H         1 <0>         0.4128
     34 H8         -0.6744   -3.8851   -2.0986 H         1 <0>         0.1354
     35 H9         -1.2925   -5.4459   -3.8948 H         1 <0>         0.1378
     36 H10        -0.5619   -7.7931   -3.7987 H         1 <0>         0.1391
     37 H11         0.7907   -8.5943   -1.9079 H         1 <0>         0.1422
     38 H12         2.7629    0.1963    4.5972 H         1 <0>         0.4120
     39 H13         0.7880    4.4050    4.6818 H         1 <0>         0.1514
     40 H14         1.7406    5.5272    6.6978 H         1 <0>         0.1416
     41 H15         3.4048    4.1712    8.1074 H         1 <0>         0.1919
@<TRIPOS>BOND
     1    1    2 1
     2    1   27 1
     3    1   28 1
     4    1   29 1
     5    2    3 1
     6    3    8 ar
     7    3    4 ar
     8    4    5 ar
     9    4   30 1
    10    5    6 ar
    11    5   19 1
    12    6    7 ar
    13    6   31 1
    14    7    8 ar
    15    7   32 1
    16    8    9 1
    17    9   10 am
    18    9   33 1
    19   10   11 2
    20   10   12 1
    21   12   17 ar
    22   12   13 ar
    23   13   14 ar
    24   13   34 1
    25   14   15 ar
    26   14   35 1
    27   15   16 ar
    28   15   36 1
    29   16   17 ar
    30   16   37 1
    31   17   18 1
    32   19   20 am
    33   19   38 1
    34   20   21 2
    35   20   22 1
    36   22   26 1
    37   22   23 2
    38   23   24 1
    39   23   39 1
    40   24   25 2
    41   24   40 1
    42   25   26 1
    43   25   41 1
@<TRIPOS>MOLECULE
ZINC00813647
   41    43     0     0     0
SMALL
USER_CHARGES

@<TRIPOS>ATOM
      1 C1         -0.1149    1.2052    0.1498 C.3       1 <0>         0.0280
      2 O1          0.0492   -0.2074    0.0098 O.3       1 <0>        -0.3176
      3 C2          0.7578   -0.6430   -1.0658 C.ar      1 <0>         0.1193
      4 C3          1.2877    0.2693   -1.9625 C.ar      1 <0>        -0.2111
      5 C4          2.0114   -0.1777   -3.0600 C.ar      1 <0>         0.1662
      6 C5          2.2033   -1.5390   -3.2586 C.ar      1 <0>        -0.1308
      7 C6          1.6754   -2.4505   -2.3651 C.ar      1 <0>        -0.0764
      8 C7          0.9565   -2.0077   -1.2641 C.ar      1 <0>         0.1101
      9 N1          0.4255   -2.9332   -0.3547 N.am      1 <0>        -0.6546
     10 C8          0.1465   -4.1890   -0.7568 C.2       1 <0>         0.5544
     11 O2          0.4241   -4.5413   -1.8869 O.2       1 <0>        -0.4948
     12 C9         -0.4966   -5.1375    0.1757 C.ar      1 <0>        -0.1328
     13 C10        -0.8220   -4.7347    1.4725 C.ar      1 <0>        -0.0736
     14 C11        -1.4226   -5.6248    2.3376 C.ar      1 <0>        -0.1234
     15 C12        -1.7033   -6.9156    1.9240 C.ar      1 <0>        -0.0775
     16 C13        -1.3843   -7.3226    0.6416 C.ar      1 <0>        -0.1205
     17 C14        -0.7873   -6.4400   -0.2377 C.ar      1 <0>         0.0166
     18 Cl1        -0.3938   -6.9498   -1.8498 Cl        1 <0>        -0.0267
     19 N2          2.5474    0.7439   -3.9669 N.am      1 <0>        -0.6637
     20 C15         3.7305    0.4937   -4.5619 C.2       1 <0>         0.6065
     21 O3          4.3798   -0.4837   -4.2384 O.2       1 <0>        -0.4940
     22 C16         4.2356    1.3989   -5.5989 C.2       1 <0>        -0.0891
     23 C17         5.4098    1.2607   -6.2823 C.2       1 <0>        -0.1078
     24 C18         5.4896    2.3445   -7.1707 C.2       1 <0>        -0.2249
     25 C19         4.3749    3.0874   -6.9929 C.2       1 <0>         0.0022
     26 O4          3.6190    2.5112   -6.0492 O.3       1 <0>        -0.1661
     27 H1          0.8636    1.6783    0.2326 H         1 <0>         0.0572
     28 H2         -0.6359    1.5987   -0.7230 H         1 <0>         0.0572
     29 H3         -0.6975    1.4163    1.0465 H         1 <0>         0.1027
     30 H4          1.1380    1.3278   -1.8086 H         1 <0>         0.1373
     31 H5          2.7658   -1.8853   -4.1131 H         1 <0>         0.1397
     32 H6          1.8255   -3.5085   -2.5216 H         1 <0>         0.1677
     33 H7          0.2589   -2.6698    0.5639 H         1 <0>         0.4129
     34 H8         -0.6035   -3.7281    1.7973 H         1 <0>         0.1352
     35 H9         -1.6743   -5.3140    3.3409 H         1 <0>         0.1378
     36 H10        -2.1735   -7.6083    2.6063 H         1 <0>         0.1392
     37 H11        -1.6062   -8.3311    0.3254 H         1 <0>         0.1423
     38 H12         2.0673    1.5626   -4.1672 H         1 <0>         0.4156
     39 H13         6.1364    0.4708   -6.1623 H         1 <0>         0.1633
     40 H14         6.2913    2.5469   -7.8654 H         1 <0>         0.1604
     41 H15         4.1316    3.9941   -7.5269 H         1 <0>         0.2138
@<TRIPOS>BOND
     1    1    2 1
     2    1   27 1
     3    1   28 1
     4    1   29 1
     5    2    3 1
     6    3    8 ar
     7    3    4 ar
     8    4    5 ar
     9    4   30 1
    10    5    6 ar
    11    5   19 1
    12    6    7 ar
    13    6   31 1
    14    7    8 ar
    15    7   32 1
    16    8    9 1
    17    9   10 am
    18    9   33 1
    19   10   11 2
    20   10   12 1
    21   12   17 ar
    22   12   13 ar
    23   13   14 ar
    24   13   34 1
    25   14   15 ar
    26   14   35 1
    27   15   16 ar
    28   15   36 1
    29   16   17 ar
    30   16   37 1
    31   17   18 1
    32   19   20 am
    33   19   38 1
    34   20   21 2
    35   20   22 1
    36   22   26 1
    37   22   23 2
    38   23   24 1
    39   23   39 1
    40   24   25 2
    41   24   40 1
    42   25   26 1
    43   25   41 1
@<TRIPOS>MOLECULE
ZINC01141333
   41    43     0     0     0
SMALL
USER_CHARGES

@<TRIPOS>ATOM
      1 C1         -0.1149    1.2052    0.1497 C.3       1 <0>         0.0278
      2 O1          0.0493   -0.2074    0.0098 O.3       1 <0>        -0.3172
      3 C2          0.7578   -0.6429   -1.0659 C.ar      1 <0>         0.1195
      4 C3          1.2877    0.2694   -1.9626 C.ar      1 <0>        -0.2097
      5 C4          2.0113   -0.1776   -3.0602 C.ar      1 <0>         0.1641
      6 C5          2.2032   -1.5389   -3.2588 C.ar      1 <0>        -0.1300
      7 C6          1.6754   -2.4504   -2.3653 C.ar      1 <0>        -0.0765
      8 C7          0.9566   -2.0076   -1.2642 C.ar      1 <0>         0.1118
      9 N1          0.4260   -2.9332   -0.3546 N.am      1 <0>        -0.6548
     10 C8          0.1474   -4.1891   -0.7564 C.2       1 <0>         0.5547
     11 O2          0.4249   -4.5415   -1.8865 O.2       1 <0>        -0.4947
     12 C9         -0.4952   -5.1377    0.1764 C.ar      1 <0>        -0.1330
     13 C10        -0.8205   -4.7347    1.4731 C.ar      1 <0>        -0.0735
     14 C11        -1.4202   -5.6250    2.3388 C.ar      1 <0>        -0.1233
     15 C12        -1.7001   -6.9161    1.9256 C.ar      1 <0>        -0.0773
     16 C13        -1.3813   -7.3232    0.6432 C.ar      1 <0>        -0.1205
     17 C14        -0.7855   -6.4403   -0.2367 C.ar      1 <0>         0.0167
     18 Cl1        -0.3922   -6.9503   -1.8488 Cl        1 <0>        -0.0266
     19 N2          2.5472    0.7440   -3.9671 N.am      1 <0>        -0.6614
     20 C15         3.7303    0.4939   -4.5622 C.2       1 <0>         0.6067
     21 O3          4.3797   -0.4836   -4.2387 O.2       1 <0>        -0.4868
     22 C16         4.2350    1.3986   -5.5984 C.2       1 <0>        -0.0613
     23 C17         5.4096    1.2602   -6.2821 C.2       1 <0>        -0.1063
     24 C18         5.4900    2.3431   -7.1702 C.2       1 <0>        -0.1633
     25 C19         4.3740    3.0874   -6.9927 C.2       1 <0>         0.0006
     26 O4          3.6179    2.5113   -6.0487 O.3       1 <0>        -0.1490
     27 Br1         3.9480    4.6745   -7.9285 Br        1 <0>         0.0693
     28 H1          0.8637    1.6783    0.2325 H         1 <0>         0.0573
     29 H2         -0.6360    1.5987   -0.7230 H         1 <0>         0.0574
     30 H3         -0.6974    1.4162    1.0465 H         1 <0>         0.1030
     31 H4          1.1379    1.3279   -1.8087 H         1 <0>         0.1377
     32 H5          2.7656   -1.8851   -4.1133 H         1 <0>         0.1400
     33 H6          1.8258   -3.5083   -2.5216 H         1 <0>         0.1682
     34 H7          0.2595   -2.6697    0.5640 H         1 <0>         0.4131
     35 H8         -0.6026   -3.7279    1.7976 H         1 <0>         0.1352
     36 H9         -1.6717   -5.3142    3.3420 H         1 <0>         0.1378
     37 H10        -2.1696   -7.6090    2.6082 H         1 <0>         0.1393
     38 H11        -1.6025   -8.3320    0.3273 H         1 <0>         0.1424
     39 H12         2.0671    1.5628   -4.1674 H         1 <0>         0.4162
     40 H13         6.1359    0.4700   -6.1621 H         1 <0>         0.1741
     41 H14         6.2920    2.5450   -7.8648 H         1 <0>         0.1723
@<TRIPOS>BOND
     1    1    2 1
     2    1   28 1
     3    1   29 1
     4    1   30 1
     5    2    3 1
     6    3    8 ar
     7    3    4 ar
     8    4    5 ar
     9    4   31 1
    10    5    6 ar
    11    5   19 1
    12    6    7 ar
    13    6   32 1
    14    7    8 ar
    15    7   33 1
    16    8    9 1
    17    9   10 am
    18    9   34 1
    19   10   11 2
    20   10   12 1
    21   12   17 ar
    22   12   13 ar
    23   13   14 ar
    24   13   35 1
    25   14   15 ar
    26   14   36 1
    27   15   16 ar
    28   15   37 1
    29   16   17 ar
    30   16   38 1
    31   17   18 1
    32   19   20 am
    33   19   39 1
    34   20   21 2
    35   20   22 1
    36   22   26 1
    37   22   23 2
    38   23   24 1
    39   23   40 1
    40   24   25 2
    41   24   41 1
    42   25   26 1
    43   25   27 1
@<TRIPOS>MOLECULE
ZINC66076277
   39    41     0     0     0
SMALL
USER_CHARGES

@<TRIPOS>ATOM
      1 C1         -0.0390    1.3721    0.1027 C.ar      1 <0>        -0.1225
      2 C2          0.9805    2.0922   -0.4957 C.ar      1 <0>        -0.0759
      3 C3          2.0271    1.4360   -1.1169 C.ar      1 <0>        -0.1201
      4 C4          2.0615    0.0552   -1.1439 C.ar      1 <0>         0.0175
      5 C5          1.0354   -0.6771   -0.5417 C.ar      1 <0>        -0.1343
      6 C6         -0.0179   -0.0065    0.0834 C.ar      1 <0>        -0.0733
      7 C7          1.0643   -2.1540   -0.5665 C.2       1 <0>         0.5580
      8 O1          1.9826   -2.7349   -1.1120 O.2       1 <0>        -0.4909
      9 N1          0.0728   -2.8573    0.0154 N.am      1 <0>        -0.6658
     10 C8          0.0493   -4.2536   -0.0904 C.ar      1 <0>         0.1450
     11 C9          1.2395   -4.9690   -0.1050 C.ar      1 <0>        -0.0881
     12 C10         1.2165   -6.3453   -0.2093 C.ar      1 <0>        -0.1150
     13 C11         0.0029   -7.0153   -0.2992 C.ar      1 <0>         0.1413
     14 C12        -1.1878   -6.3007   -0.2842 C.ar      1 <0>        -0.0940
     15 C13        -1.1653   -4.9238   -0.1750 C.ar      1 <0>        -0.0442
     16 Cl1        -2.6536   -4.0304   -0.1496 Cl        1 <0>        -0.0582
     17 N2         -0.0197   -8.4108   -0.4053 N.am      1 <0>        -0.6521
     18 C14        -0.9630   -9.0143   -1.1553 C.2       1 <0>         0.5748
     19 O2         -1.8429   -8.3541   -1.6719 O.2       1 <0>        -0.5087
     20 C15        -0.9273  -10.4824   -1.3498 C.ar      1 <0>         0.0729
     21 C16        -1.9021  -11.0997   -2.1309 C.ar      1 <0>        -0.1063
     22 C17        -1.8552  -12.4738   -2.3040 C.ar      1 <0>        -0.0797
     23 C18        -0.8348  -13.1833   -1.6898 C.ar      1 <0>        -0.1438
     24 C19         0.1012  -12.5039   -0.9268 C.ar      1 <0>         0.1003
     25 N3          0.0361  -11.1981   -0.7830 N.ar      1 <0>        -0.4605
     26 Cl2         3.3757   -0.7677   -1.9245 Cl        1 <0>        -0.0265
     27 H1         -0.8510    1.8915    0.5899 H         1 <0>         0.1386
     28 H2          0.9582    3.1719   -0.4777 H         1 <0>         0.1400
     29 H3          2.8192    2.0040   -1.5821 H         1 <0>         0.1429
     30 H4         -0.8143   -0.5665    0.5509 H         1 <0>         0.1340
     31 H5         -0.6245   -2.3964    0.5076 H         1 <0>         0.4111
     32 H6          2.1832   -4.4486   -0.0351 H         1 <0>         0.1564
     33 H7          2.1423   -6.9012   -0.2213 H         1 <0>         0.1394
     34 H8         -2.1312   -6.8217   -0.3544 H         1 <0>         0.1553
     35 H9          0.6435   -8.9435    0.0608 H         1 <0>         0.4245
     36 H10        -2.6833  -10.5156   -2.5945 H         1 <0>         0.1508
     37 H11        -2.5970  -12.9805   -2.9035 H         1 <0>         0.1459
     38 H12        -0.7702  -14.2552   -1.8046 H         1 <0>         0.1444
     39 H13         0.8972  -13.0536   -0.4466 H         1 <0>         0.1668
@<TRIPOS>BOND
     1    1    6 ar
     2    1    2 ar
     3    1   27 1
     4    2    3 ar
     5    2   28 1
     6    3    4 ar
     7    3   29 1
     8    4    5 ar
     9    4   26 1
    10    5    6 ar
    11    5    7 1
    12    6   30 1
    13    7    8 2
    14    7    9 am
    15    9   10 1
    16    9   31 1
    17   10   15 ar
    18   10   11 ar
    19   11   12 ar
    20   11   32 1
    21   12   13 ar
    22   12   33 1
    23   13   14 ar
    24   13   17 1
    25   14   15 ar
    26   14   34 1
    27   15   16 1
    28   17   18 am
    29   17   35 1
    30   18   19 2
    31   18   20 1
    32   20   25 ar
    33   20   21 ar
    34   21   22 ar
    35   21   36 1
    36   22   23 ar
    37   22   37 1
    38   23   24 ar
    39   23   38 1
    40   24   25 ar
    41   24   39 1
@<TRIPOS>MOLECULE
ZINC09627412
   47    50     0     0     0
SMALL
USER_CHARGES
1-(3,5-dimethylphenyl)-4-[(3S)-3-methyl-1-piperidyl]pyrazolo[5,4-d]pyrimidine
@<TRIPOS>ATOM
      1 C1         -0.1216   -7.2379    2.1800 C.3       1 <0>        -0.1155
      2 C2          0.9363   -6.1926    2.4233 C.ar      1 <0>        -0.0607
      3 C3          2.1534   -6.5559    2.9703 C.ar      1 <0>        -0.1194
      4 C4          3.1269   -5.5998    3.1946 C.ar      1 <0>        -0.0644
      5 C5          2.8861   -4.2784    2.8733 C.ar      1 <0>        -0.1178
      6 C6          1.6650   -3.9103    2.3238 C.ar      1 <0>         0.1575
      7 C7          0.6875   -4.8720    2.1046 C.ar      1 <0>        -0.1176
      8 N1          1.4177   -2.5711    1.9968 N.pl3     1 <0>        -0.3277
      9 C8          0.6800   -2.1289    0.9356 C.ar      1 <0>         0.3541
     10 C9          0.6968   -0.7215    0.9947 C.ar      1 <0>        -0.3064
     11 C10         1.4669   -0.3639    2.1228 C.2       1 <0>         0.1015
     12 N2          1.8838   -1.4541    2.7017 N.2       1 <0>        -0.2269
     13 C11         0.0021   -0.0041    0.0020 C.ar      1 <0>         0.4538
     14 N3         -0.6396   -0.6883   -0.9390 N.ar      1 <0>        -0.5258
     15 C12        -0.6227   -2.0093   -0.9561 C.ar      1 <0>         0.3592
     16 N4          0.0116   -2.7224   -0.0511 N.ar      1 <0>        -0.5333
     17 N5         -0.0167    1.3768    0.0096 N.pl3     1 <0>        -0.4971
     18 C13         1.3470    1.9217   -0.0005 C.3       1 <0>         0.0607
     19 C14         1.2882    3.4447   -0.1385 C.3       1 <0>        -0.1165
     20 C15         0.4940    4.0282    1.0334 C.3       1 <0>        -0.1195
     21 C16        -0.9060    3.4084    1.0499 C.3       1 <0>        -0.0880
     22 H1         -1.4308    3.6702    0.1311 H         1 <0>         0.0854
     23 C17        -0.7836    1.8865    1.1535 C.3       1 <0>         0.0712
     24 C18        -1.6864    3.9412    2.2533 C.3       1 <0>        -0.1483
     25 C19         4.4518   -6.0001    3.7909 C.3       1 <0>        -0.1153
     26 H2         -0.7524   -7.3291    3.0642 H         1 <0>         0.0743
     27 H3         -0.7327   -6.9446    1.3264 H         1 <0>         0.0707
     28 H4          0.3551   -8.1961    1.9734 H         1 <0>         0.0718
     29 H5          2.3438   -7.5885    3.2231 H         1 <0>         0.1304
     30 H6          3.6468   -3.5321    3.0487 H         1 <0>         0.1318
     31 H7         -0.2649   -4.5882    1.6816 H         1 <0>         0.1337
     32 H8          1.6753    0.6439    2.4506 H         1 <0>         0.2021
     33 H9         -1.1547   -2.5243   -1.7423 H         1 <0>         0.2127
     34 H10         1.8493    1.6606    0.9309 H         1 <0>         0.0462
     35 H11         1.8995    1.5021   -0.8411 H         1 <0>         0.0800
     36 H12         2.2999    3.8502   -0.1303 H         1 <0>         0.0759
     37 H13         0.7982    3.7065   -1.0763 H         1 <0>         0.0775
     38 H14         1.0045    3.7999    1.9690 H         1 <0>         0.0623
     39 H15         0.4126    5.1088    0.9161 H         1 <0>         0.0711
     40 H16        -1.7785    1.4411    1.1511 H         1 <0>         0.0803
     41 H17        -0.2713    1.6255    2.0795 H         1 <0>         0.0452
     42 H18        -1.7702    5.0255    2.1808 H         1 <0>         0.0622
     43 H19        -2.6829    3.4996    2.2645 H         1 <0>         0.0574
     44 H20        -1.1619    3.6779    3.1719 H         1 <0>         0.0551
     45 H21         4.3954   -5.9358    4.8775 H         1 <0>         0.0754
     46 H22         4.6871   -7.0236    3.4992 H         1 <0>         0.0715
     47 H23         5.2311   -5.3304    3.4272 H         1 <0>         0.0687
@<TRIPOS>BOND
     1    1    2 1
     2    1   26 1
     3    1   27 1
     4    1   28 1
     5    2    7 ar
     6    2    3 ar
     7    3    4 ar
     8    3   29 1
     9    4    5 ar
    10    4   25 1
    11    5    6 ar
    12    5   30 1
    13    6    7 ar
    14    6    8 1
    15    7   31 1
    16    8   12 1
    17    8    9 1
    18    9   16 ar
    19    9   10 ar
    20   10   11 1
    21   10   13 ar
    22   11   12 2
    23   11   32 1
    24   13   14 ar
    25   13   17 1
    26   14   15 ar
    27   15   16 ar
    28   15   33 1
    29   17   23 1
    30   17   18 1
    31   18   19 1
    32   18   34 1
    33   18   35 1
    34   19   20 1
    35   19   36 1
    36   19   37 1
    37   20   21 1
    38   20   38 1
    39   20   39 1
    40   21   22 1
    41   21   23 1
    42   21   24 1
    43   23   40 1
    44   23   41 1
    45   24   42 1
    46   24   43 1
    47   24   44 1
    48   25   45 1
    49   25   46 1
    50   25   47 1
@<TRIPOS>MOLECULE
ZINC09627420
   47    50     0     0     0
SMALL
USER_CHARGES
1-(3,5-dimethylphenyl)-4-[(3R)-3-methyl-1-piperidyl]pyrazolo[5,4-d]pyrimidine
@<TRIPOS>ATOM
      1 C1          2.4901    1.0439   -0.0161 C.3       1 <0>        -0.1152
      2 C2          1.1763    1.7820    0.0004 C.ar      1 <0>        -0.0651
      3 C3         -0.0126    1.0758    0.0080 C.ar      1 <0>        -0.1207
      4 C4         -1.2202    1.7494    0.0174 C.ar      1 <0>        -0.0614
      5 C5         -1.2423    3.1303    0.0307 C.ar      1 <0>        -0.1179
      6 C6         -0.0501    3.8424    0.0227 C.ar      1 <0>         0.1603
      7 C7          1.1610    3.1630    0.0075 C.ar      1 <0>        -0.1182
      8 N1         -0.0691    5.2428    0.0304 N.pl3     1 <0>        -0.3285
      9 C8         -0.9923    6.0346   -0.5913 C.ar      1 <0>         0.3619
     10 C9         -0.6254    7.3673   -0.3191 C.ar      1 <0>        -0.2923
     11 C10         0.5384    7.3213    0.4790 C.2       1 <0>         0.1130
     12 N2          0.8518    6.0730    0.6820 N.2       1 <0>        -0.2390
     13 C11        -1.4219    8.4000   -0.8501 C.ar      1 <0>         0.4481
     14 N3         -2.4805    8.0684   -1.5813 N.ar      1 <0>        -0.5842
     15 C12        -2.7855    6.8032   -1.8094 C.ar      1 <0>         0.3737
     16 N4         -2.0722    5.8050   -1.3355 N.ar      1 <0>        -0.5507
     17 N5         -1.1105    9.7250   -0.6162 N.pl3     1 <0>        -0.4682
     18 C13         0.2608   10.0271   -1.0459 C.3       1 <0>         0.0565
     19 C14         0.6201   11.4584   -0.6405 C.3       1 <0>        -0.1195
     20 C15        -0.3654   12.4314   -1.2937 C.3       1 <0>        -0.1210
     21 C16        -1.7900   12.0649   -0.8683 C.3       1 <0>        -0.0941
     22 H1         -1.8857   12.1710    0.2123 H         1 <0>         0.0806
     23 C17        -2.0794   10.6160   -1.2671 C.3       1 <0>         0.0693
     24 C18        -2.7866   12.9948   -1.5632 C.3       1 <0>        -0.1462
     25 C19        -2.5136    0.9759    0.0188 C.3       1 <0>        -0.1152
     26 H2          2.7971    0.8715   -1.0477 H         1 <0>         0.0741
     27 H3          3.2477    1.6392    0.4937 H         1 <0>         0.0692
     28 H4          2.3759    0.0873    0.4937 H         1 <0>         0.0712
     29 H5          0.0021   -0.0041    0.0020 H         1 <0>         0.1295
     30 H6         -2.1858    3.6558    0.0426 H         1 <0>         0.1341
     31 H7          2.0898    3.7140    0.0016 H         1 <0>         0.1318
     32 H8          1.0758    8.1767    0.8608 H         1 <0>         0.2046
     33 H9         -3.6552    6.5798   -2.4094 H         1 <0>         0.2073
     34 H10         0.9519    9.3308   -0.5710 H         1 <0>         0.0881
     35 H11         0.3322    9.9276   -2.1290 H         1 <0>         0.0538
     36 H12         1.6324   11.6877   -0.9734 H         1 <0>         0.0791
     37 H13         0.5623   11.5550    0.4436 H         1 <0>         0.0776
     38 H14        -0.2802   12.3629   -2.3782 H         1 <0>         0.0634
     39 H15        -0.1398   13.4484   -0.9731 H         1 <0>         0.0710
     40 H16        -1.9970   10.5138   -2.3491 H         1 <0>         0.0572
     41 H17        -3.0880   10.3474   -0.9528 H         1 <0>         0.0917
     42 H18        -3.8004   12.7310   -1.2621 H         1 <0>         0.0585
     43 H19        -2.5800   14.0266   -1.2788 H         1 <0>         0.0601
     44 H20        -2.6895   12.8893   -2.6437 H         1 <0>         0.0560
     45 H21        -2.8207    0.7834    1.0468 H         1 <0>         0.0739
     46 H22        -3.2845    1.5561   -0.4882 H         1 <0>         0.0704
     47 H23        -2.3709    0.0286   -0.5012 H         1 <0>         0.0712
@<TRIPOS>BOND
     1    1    2 1
     2    1   26 1
     3    1   27 1
     4    1   28 1
     5    2    7 ar
     6    2    3 ar
     7    3    4 ar
     8    3   29 1
     9    4    5 ar
    10    4   25 1
    11    5    6 ar
    12    5   30 1
    13    6    7 ar
    14    6    8 1
    15    7   31 1
    16    8   12 1
    17    8    9 1
    18    9   16 ar
    19    9   10 ar
    20   10   11 1
    21   10   13 ar
    22   11   12 2
    23   11   32 1
    24   13   14 ar
    25   13   17 1
    26   14   15 ar
    27   15   16 ar
    28   15   33 1
    29   17   23 1
    30   17   18 1
    31   18   19 1
    32   18   34 1
    33   18   35 1
    34   19   20 1
    35   19   36 1
    36   19   37 1
    37   20   21 1
    38   20   38 1
    39   20   39 1
    40   21   22 1
    41   21   23 1
    42   21   24 1
    43   23   40 1
    44   23   41 1
    45   24   42 1
    46   24   43 1
    47   24   44 1
    48   25   45 1
    49   25   46 1
    50   25   47 1
@<TRIPOS>MOLECULE
ZINC72118775
   33    36     0     0     0
SMALL
USER_CHARGES

@<TRIPOS>ATOM
      1 C1          2.3692    1.4370   -0.0159 C.ar      1 <0>        -0.0431
      2 C2          1.1263    2.0566   -0.0072 C.ar      1 <0>        -0.2092
      3 C3         -0.0157    1.2811   -0.0037 C.ar      1 <0>         0.1383
      4 N1          0.0607   -0.0362   -0.0086 N.ar      1 <0>        -0.4776
      5 C4          1.2264   -0.6640   -0.0170 C.ar      1 <0>         0.3716
      6 C5          2.4176    0.0547   -0.0209 C.ar      1 <0>        -0.2098
      7 N2          1.2603   -2.0550   -0.0215 N.pl3     1 <0>        -0.5992
      8 C6          0.0818   -2.7779    0.0906 C.2       1 <0>         0.3475
      9 N3         -1.1676   -2.3432    0.1181 N.2       1 <0>        -0.4953
     10 C7         -2.1949   -3.1740    0.2370 C.2       1 <0>         0.1656
     11 C8         -1.9205   -4.5206    0.2629 C.2       1 <0>        -0.2045
     12 S1         -0.1530   -4.5480    0.2285 S.3       1 <0>         0.0160
     13 C9         -2.9317   -5.6023    0.2392 C.3       1 <0>        -0.0286
     14 C10        -3.5504   -5.8920    1.6248 C.3       1 <0>        -0.1005
     15 C11        -3.8341   -4.5441    2.3095 C.3       1 <0>        -0.0446
     16 C12        -4.4119   -3.5192    1.3824 C.2       1 <0>         0.1037
     17 C13        -3.6372   -2.8103    0.4412 C.2       1 <0>        -0.1709
     18 C14        -4.4115   -1.8876   -0.1539 C.2       1 <0>         0.1022
     19 N4         -5.6649   -2.0490    0.3379 N.pl3     1 <0>        -0.4844
     20 H1         -6.4468   -1.5353    0.0817 H         1 <0>         0.4425
     21 N5         -5.6357   -3.0877    1.2821 N.2       1 <0>        -0.2804
     22 H2          3.2774    2.0213   -0.0232 H         1 <0>         0.1386
     23 H3          1.0540    3.1341   -0.0027 H         1 <0>         0.1356
     24 H4         -0.9843    1.7588    0.0035 H         1 <0>         0.1577
     25 H5          3.3672   -0.4597   -0.0278 H         1 <0>         0.1359
     26 H6          2.1082   -2.5192   -0.1030 H         1 <0>         0.4364
     27 H7         -3.7295   -5.3202   -0.4479 H         1 <0>         0.0824
     28 H8         -2.4608   -6.5130   -0.1309 H         1 <0>         0.0738
     29 H9         -4.4807   -6.4470    1.5042 H         1 <0>         0.0784
     30 H10        -2.8504   -6.4711    2.2271 H         1 <0>         0.0783
     31 H11        -4.5336   -4.7083    3.1292 H         1 <0>         0.0789
     32 H12        -2.9017   -4.1575    2.7210 H         1 <0>         0.0817
     33 H13        -4.0960   -1.1569   -0.8840 H         1 <0>         0.1831
@<TRIPOS>BOND
     1    1    6 ar
     2    1    2 ar
     3    1   22 1
     4    2    3 ar
     5    2   23 1
     6    3    4 ar
     7    3   24 1
     8    4    5 ar
     9    5    6 ar
    10    5    7 1
    11    6   25 1
    12    7    8 1
    13    7   26 1
    14    8   12 1
    15    8    9 2
    16    9   10 1
    17   10   17 1
    18   10   11 2
    19   11   12 1
    20   11   13 1
    21   13   14 1
    22   13   27 1
    23   13   28 1
    24   14   15 1
    25   14   29 1
    26   14   30 1
    27   15   16 1
    28   15   31 1
    29   15   32 1
    30   16   21 2
    31   16   17 1
    32   17   18 2
    33   18   19 1
    34   18   33 1
    35   19   20 1
    36   19   21 1
@<TRIPOS>MOLECULE
ZINC01997134
   23    23     0     0     0
SMALL
USER_CHARGES

@<TRIPOS>ATOM
      1 C1         -0.0167    1.3781    0.0096 C.ar      1 <0>        -0.1203
      2 C2          1.1709    2.0855    0.0021 C.ar      1 <0>        -0.0720
      3 C3          2.3773    1.4107   -0.0130 C.ar      1 <0>        -0.6003
      4 C4          2.3960    0.0285   -0.0201 C.ar      1 <0>        -0.0635
      5 C5          1.2085   -0.6789   -0.0117 C.ar      1 <0>        -0.1475
      6 C6          0.0021   -0.0041    0.0020 C.ar      1 <0>        -0.1418
      7 C7         -1.2926   -0.7753    0.0107 C.3       1 <0>         0.0094
      8 H1         -2.0954   -0.1334    0.3736 H         1 <0>         0.1289
      9 C8         -1.6118   -1.2368   -1.3879 C.2       1 <0>         0.4998
     10 O1         -1.2070   -2.3178   -1.7804 O.co2     1 <0>        -0.6752
     11 O2         -2.2748   -0.5291   -2.1270 O.co2     1 <0>        -0.6433
     12 N1         -1.1616   -1.9421    0.8934 N.4       1 <0>        -0.6106
     13 P1          3.9357    2.3390   -0.0241 P.3       1 <0>         2.2129
     14 O3          4.6905    2.0762   -1.3716 O.2       1 <0>        -1.1701
     15 O4          3.6328    3.8698    0.1148 O.3       1 <0>        -1.1716
     16 O5          4.8299    1.8727    1.1749 O.3       1 <0>        -1.1719
     17 H2         -0.9591    1.9053    0.0259 H         1 <0>         0.1122
     18 H3          1.1563    3.1654    0.0076 H         1 <0>         0.1334
     19 H4          3.3385   -0.4987   -0.0326 H         1 <0>         0.1204
     20 H5          1.2231   -1.7588   -0.0179 H         1 <0>         0.1027
     21 H6         -0.9479   -1.6331    1.8299 H         1 <0>         0.4163
     22 H7         -2.0285   -2.4585    0.8992 H         1 <0>         0.4209
     23 H8         -0.4185   -2.5362    0.5575 H         1 <0>         0.4311
@<TRIPOS>BOND
     1    1    6 ar
     2    1    2 ar
     3    1   17 1
     4    2    3 ar
     5    2   18 1
     6    3    4 ar
     7    3   13 1
     8    4    5 ar
     9    4   19 1
    10    5    6 ar
    11    5   20 1
    12    6    7 1
    13    7    8 1
    14    7    9 1
    15    7   12 1
    16    9   10 2
    17    9   11 1
    18   12   21 1
    19   12   22 1
    20   12   23 1
    21   13   14 2
    22   13   15 1
    23   13   16 1
@<TRIPOS>MOLECULE
ZINC03995880
   23    23     0     0     0
SMALL
USER_CHARGES

@<TRIPOS>ATOM
      1 C1         -0.0167    1.3781    0.0096 C.ar      1 <0>        -0.1165
      2 C2          1.1709    2.0855    0.0021 C.ar      1 <0>        -0.0710
      3 C3          2.3773    1.4107   -0.0130 C.ar      1 <0>        -0.6011
      4 C4          2.3960    0.0285   -0.0201 C.ar      1 <0>        -0.0627
      5 C5          1.2085   -0.6789   -0.0117 C.ar      1 <0>        -0.1534
      6 C6          0.0021   -0.0041    0.0020 C.ar      1 <0>        -0.1375
      7 C7         -1.2926   -0.7753    0.0107 C.3       1 <0>         0.0082
      8 H1         -2.1024   -0.1297   -0.3293 H         1 <0>         0.1294
      9 C8         -1.5841   -1.2518    1.4103 C.2       1 <0>         0.5007
     10 O1         -1.8959   -0.4504    2.2746 O.co2     1 <0>        -0.6337
     11 O2         -1.5081   -2.4387    1.6784 O.co2     1 <0>        -0.6863
     12 N1         -1.1792   -1.9326   -0.8870 N.4       1 <0>        -0.6089
     13 P1          3.9357    2.3390   -0.0241 P.3       1 <0>         2.2132
     14 O3          4.6905    2.0762   -1.3716 O.2       1 <0>        -1.1719
     15 O4          3.6328    3.8698    0.1148 O.3       1 <0>        -1.1715
     16 O5          4.8299    1.8727    1.1749 O.3       1 <0>        -1.1706
     17 H2         -0.9591    1.9053    0.0259 H         1 <0>         0.1119
     18 H3          1.1563    3.1654    0.0076 H         1 <0>         0.1333
     19 H4          3.3385   -0.4987   -0.0326 H         1 <0>         0.1202
     20 H5          1.2231   -1.7588   -0.0179 H         1 <0>         0.1005
     21 H6         -2.0461   -2.4489   -0.8811 H         1 <0>         0.4227
     22 H7         -0.9841   -1.6135   -1.8241 H         1 <0>         0.4156
     23 H8         -0.4297   -2.5302   -0.5722 H         1 <0>         0.4297
@<TRIPOS>BOND
     1    1    6 ar
     2    1    2 ar
     3    1   17 1
     4    2    3 ar
     5    2   18 1
     6    3    4 ar
     7    3   13 1
     8    4    5 ar
     9    4   19 1
    10    5    6 ar
    11    5   20 1
    12    6    7 1
    13    7    8 1
    14    7    9 1
    15    7   12 1
    16    9   10 2
    17    9   11 1
    18   12   21 1
    19   12   22 1
    20   12   23 1
    21   13   14 2
    22   13   15 1
    23   13   16 1
@<TRIPOS>MOLECULE
ZINC03995880
   24    24     0     0     0
SMALL
USER_CHARGES

@<TRIPOS>ATOM
      1 C1         -0.0167    1.3781    0.0096 C.ar      1 <0>        -0.1070
      2 C2          1.1709    2.0855    0.0021 C.ar      1 <0>        -0.0406
      3 C3          2.3773    1.4107   -0.0130 C.ar      1 <0>        -0.6498
      4 C4          2.3960    0.0285   -0.0201 C.ar      1 <0>        -0.0740
      5 C5          1.2085   -0.6789   -0.0117 C.ar      1 <0>        -0.1466
      6 C6          0.0021   -0.0041    0.0020 C.ar      1 <0>        -0.1019
      7 C7         -1.2926   -0.7753    0.0107 C.3       1 <0>        -0.0017
      8 H1         -2.1024   -0.1297   -0.3293 H         1 <0>         0.1378
      9 C8         -1.5841   -1.2518    1.4103 C.2       1 <0>         0.4980
     10 O1         -1.8959   -0.4504    2.2746 O.co2     1 <0>        -0.6279
     11 O2         -1.5081   -2.4387    1.6784 O.co2     1 <0>        -0.6766
     12 N1         -1.1792   -1.9326   -0.8870 N.4       1 <0>        -0.6097
     13 P1          3.9357    2.3390   -0.0241 P.3       1 <0>         2.2944
     14 O3          4.0763    3.1253    1.2984 O.2       1 <0>        -1.0920
     15 O4          5.1692    1.3151   -0.1734 O.3       1 <0>        -0.9059
     16 O5          3.9389    3.3259   -1.2128 O.3       1 <0>        -1.0935
     17 H2         -0.9591    1.9053    0.0259 H         1 <0>         0.1275
     18 H3          1.1563    3.1654    0.0076 H         1 <0>         0.1342
     19 H4          3.3385   -0.4987   -0.0326 H         1 <0>         0.1301
     20 H5          1.2231   -1.7588   -0.0179 H         1 <0>         0.1132
     21 H6         -0.4297   -2.5302   -0.5722 H         1 <0>         0.4297
     22 H7         -2.0461   -2.4489   -0.8811 H         1 <0>         0.4300
     23 H8         -0.9841   -1.6135   -1.8241 H         1 <0>         0.4168
     24 H9          6.0362    1.7431   -0.1867 H         1 <0>         0.4154
@<TRIPOS>BOND
     1    1    6 ar
     2    1    2 ar
     3    1   17 1
     4    2    3 ar
     5    2   18 1
     6    3    4 ar
     7    3   13 1
     8    4    5 ar
     9    4   19 1
    10    5    6 ar
    11    5   20 1
    12    6    7 1
    13    7    8 1
    14    7    9 1
    15    7   12 1
    16    9   10 2
    17    9   11 1
    18   12   21 1
    19   12   22 1
    20   12   23 1
    21   13   14 2
    22   13   15 1
    23   13   16 1
    24   15   24 1
@<TRIPOS>MOLECULE
ZINC03869280
   17    16     0     0     0
SMALL
USER_CHARGES

@<TRIPOS>ATOM
      1 C1         -0.0187    1.5258    0.0104 C.3       1 <0>         0.1201
      2 C2          0.0021   -0.0041    0.0020 C.3       1 <0>        -0.0471
      3 H1          0.6044   -0.3639    0.8362 H         1 <0>         0.1324
      4 C3         -1.4051   -0.5263    0.1365 C.2       1 <0>         0.4988
      5 O1         -1.9459   -1.0721   -0.8102 O.co2     1 <0>        -0.6895
      6 O2         -2.0029   -0.4029    1.1919 O.co2     1 <0>        -0.6428
      7 N1          0.5820   -0.4790   -1.2614 N.4       1 <0>        -0.6052
      8 O3          1.3220    2.0204    0.0003 O.3       1 <0>        -0.7682
      9 P1          1.6773    3.5907    0.0053 P.3       1 <0>         2.1196
     10 O4          0.9547    4.2935   -1.1940 O.2       1 <0>        -1.1824
     11 O5          1.1965    4.2306    1.3521 O.3       1 <0>        -1.1793
     12 O6          3.2264    3.7760   -0.1372 O.3       1 <0>        -1.1618
     13 H2         -0.5459    1.8868   -0.8726 H         1 <0>         0.0551
     14 H3         -0.5289    1.8773    0.9072 H         1 <0>         0.0812
     15 H4          1.5242   -0.1293   -1.3514 H         1 <0>         0.4271
     16 H5          0.5957   -1.4879   -1.2669 H         1 <0>         0.4155
     17 H6          0.0244   -0.1459   -2.0336 H         1 <0>         0.4264
@<TRIPOS>BOND
     1    1    2 1
     2    1    8 1
     3    1   13 1
     4    1   14 1
     5    2    3 1
     6    2    4 1
     7    2    7 1
     8    4    5 2
     9    4    6 1
    10    7   15 1
    11    7   16 1
    12    7   17 1
    13    8    9 1
    14    9   10 2
    15    9   11 1
    16    9   12 1
@<TRIPOS>MOLECULE
ZINC03995850
   24    24     0     0     0
SMALL
USER_CHARGES

@<TRIPOS>ATOM
      1 C1          0.2108    1.8993   -0.1512 C.3       1 <0>        -0.0756
      2 C2          1.7547    1.9832   -0.0605 C.3       1 <0>        -0.1464
      3 H1          2.2038    1.8204   -1.0403 H         1 <0>         0.0399
      4 C3          2.1394    0.8439    0.9058 C.3       1 <0>        -0.1462
      5 H2          3.0699    0.3777    0.5818 H         1 <0>         0.0532
      6 C4          0.9919   -0.1802    0.8569 C.3       1 <0>        -0.0911
      7 C5         -0.0500    0.3726   -0.1375 C.3       1 <0>        -0.0326
      8 C6         -1.4472    0.0805    0.3459 C.2       1 <0>         0.5078
      9 O1         -2.2313   -0.5103   -0.3770 O.co2     1 <0>        -0.7116
     10 O2         -1.7934    0.4350    1.4599 O.co2     1 <0>        -0.6179
     11 N1          0.1625   -0.1974   -1.4746 N.4       1 <0>        -0.6016
     12 C7          2.2922    1.3830    2.3047 C.2       1 <0>         0.5110
     13 O3          1.3211    1.8178    2.9000 O.co2     1 <0>        -0.6755
     14 O4          3.3870    1.3843    2.8413 O.co2     1 <0>        -0.7102
     15 C8          2.1786    3.3174    0.4974 C.2       1 <0>         0.5127
     16 O5          1.3386    4.1553    0.7784 O.co2     1 <0>        -0.6954
     17 O6          3.3614    3.5589    0.6679 O.co2     1 <0>        -0.6965
     18 H3         -0.2534    2.3783    0.7109 H         1 <0>         0.1266
     19 H4         -0.1463    2.3438   -1.0802 H         1 <0>         0.0504
     20 H5          1.3655   -1.1433    0.5092 H         1 <0>         0.0455
     21 H6          0.5447   -0.2874    1.8451 H         1 <0>         0.1067
     22 H7          1.1144   -0.0300   -1.7642 H         1 <0>         0.4102
     23 H8         -0.0113   -1.1909   -1.4482 H         1 <0>         0.4173
     24 H9         -0.4698    0.2373   -2.1298 H         1 <0>         0.4193
@<TRIPOS>BOND
     1    1    7 1
     2    1    2 1
     3    1   18 1
     4    1   19 1
     5    2    3 1
     6    2    4 1
     7    2   15 1
     8    4    5 1
     9    4    6 1
    10    4   12 1
    11    6    7 1
    12    6   20 1
    13    6   21 1
    14    7    8 1
    15    7   11 1
    16    8    9 2
    17    8   10 1
    18   11   22 1
    19   11   23 1
    20   11   24 1
    21   12   13 2
    22   12   14 1
    23   15   16 2
    24   15   17 1
@<TRIPOS>MOLECULE
ZINC19632743
   20    19     0     0     0
SMALL
USER_CHARGES

@<TRIPOS>ATOM
      1 C1         -0.0187    1.5258    0.0104 C.3       1 <0>        -0.0985
      2 C2          0.0021   -0.0041    0.0020 C.3       1 <0>        -0.7423
      3 P1         -1.7082   -0.6351    0.0150 P.3       1 <0>         2.2529
      4 O1         -2.4691   -0.0359    1.2187 O.2       1 <0>        -1.0899
      5 O2         -2.4170   -0.2287   -1.2963 O.3       1 <0>        -1.0881
      6 O3         -1.6871   -2.2402    0.1384 O.3       1 <0>        -0.9064
      7 C3          1.4167    2.0553   -0.0004 C.3       1 <0>        -0.0481
      8 H1          1.9535    1.6326   -0.8497 H         1 <0>         0.1243
      9 C4          1.3970    3.5578   -0.1160 C.2       1 <0>         0.4947
     10 O4          1.7295    4.2467    0.8334 O.co2     1 <0>        -0.6823
     11 O5          1.0484    4.0844   -1.1589 O.co2     1 <0>        -0.6363
     12 N1          2.0906    1.6690    1.2464 N.4       1 <0>        -0.6104
     13 H2         -0.5459    1.8868   -0.8726 H         1 <0>         0.1162
     14 H3         -0.5289    1.8773    0.9072 H         1 <0>         0.0904
     15 H4          0.5123   -0.3556   -0.8948 H         1 <0>         0.0822
     16 H5          0.5293   -0.3651    0.8851 H         1 <0>         0.0600
     17 H6         -2.5651   -2.6452    0.1513 H         1 <0>         0.4152
     18 H7          2.1039    0.6630    1.3237 H         1 <0>         0.4110
     19 H8          3.0372    2.0182    1.2392 H         1 <0>         0.4240
     20 H9          1.5937    2.0603    2.0325 H         1 <0>         0.4313
@<TRIPOS>BOND
     1    1    2 1
     2    1    7 1
     3    1   13 1
     4    1   14 1
     5    2    3 1
     6    2   15 1
     7    2   16 1
     8    3    4 2
     9    3    5 1
    10    3    6 1
    11    6   17 1
    12    7    8 1
    13    7    9 1
    14    7   12 1
    15    9   10 2
    16    9   11 1
    17   12   18 1
    18   12   19 1
    19   12   20 1
@<TRIPOS>MOLECULE
ZINC19632748
   20    19     0     0     0
SMALL
USER_CHARGES

@<TRIPOS>ATOM
      1 C1         -0.0187    1.5258    0.0104 C.3       1 <0>        -0.0994
      2 C2          0.0021   -0.0041    0.0020 C.3       1 <0>        -0.7423
      3 P1         -1.7082   -0.6351    0.0150 P.3       1 <0>         2.2534
      4 O1         -2.4691   -0.0359    1.2187 O.2       1 <0>        -1.0876
      5 O2         -2.4170   -0.2287   -1.2963 O.3       1 <0>        -1.0909
      6 O3         -1.6871   -2.2402    0.1384 O.3       1 <0>        -0.9061
      7 C3          1.4167    2.0553   -0.0004 C.3       1 <0>        -0.0470
      8 H1          1.9696    1.6236    0.8338 H         1 <0>         0.1236
      9 C4          1.3993    3.5565    0.1316 C.2       1 <0>         0.4932
     10 O4          1.4342    4.0717    1.2361 O.co2     1 <0>        -0.6420
     11 O5          1.3504    4.2557   -0.8660 O.co2     1 <0>        -0.6741
     12 N1          2.0667    1.6824   -1.2639 N.4       1 <0>        -0.6120
     13 H2         -0.5459    1.8868   -0.8726 H         1 <0>         0.0908
     14 H3         -0.5289    1.8773    0.9072 H         1 <0>         0.1151
     15 H4          0.5123   -0.3556   -0.8948 H         1 <0>         0.0622
     16 H5          0.5293   -0.3651    0.8851 H         1 <0>         0.0808
     17 H6         -2.5651   -2.6452    0.1513 H         1 <0>         0.4152
     18 H7          3.0133    2.0317   -1.2711 H         1 <0>         0.4222
     19 H8          2.0783    0.6774   -1.3524 H         1 <0>         0.4119
     20 H9          1.5549    2.0821   -2.0362 H         1 <0>         0.4330
@<TRIPOS>BOND
     1    1    2 1
     2    1    7 1
     3    1   13 1
     4    1   14 1
     5    2    3 1
     6    2   15 1
     7    2   16 1
     8    3    4 2
     9    3    5 1
    10    3    6 1
    11    6   17 1
    12    7    8 1
    13    7    9 1
    14    7   12 1
    15    9   10 2
    16    9   11 1
    17   12   18 1
    18   12   19 1
    19   12   20 1
@<TRIPOS>MOLECULE
ZINC28246018
   21    21     0     0     0
SMALL
USER_CHARGES
(1R,2R)-1-amino-2-(phosphonomethyl)cyclopropane-1-carboxylic acid
@<TRIPOS>ATOM
      1 C1          2.2532    3.7571    0.9368 C.3       1 <0>        -0.1030
      2 C2          2.4858    3.7556   -0.5754 C.3       1 <0>        -0.0806
      3 H1          2.6758    4.5287   -1.3345 H         1 <0>         0.1500
      4 C3          1.2350    3.0943    0.0069 C.3       1 <0>        -0.1084
      5 C4          1.1765    1.5884   -0.0006 C.2       1 <0>         0.4897
      6 O1          2.1986    0.9442   -0.0139 O.co2     1 <0>        -0.5662
      7 O2         -0.0110    0.9628    0.0073 O.co2     1 <0>        -0.7551
      8 N1         -0.0495    3.7792   -0.1909 N.4       1 <0>        -0.6258
      9 C5          3.5815    2.8375   -1.1207 C.3       1 <0>        -0.7129
     10 P1          4.7361    3.8099   -2.1428 P.3       1 <0>         2.2673
     11 O3          5.2582    4.9465   -1.3517 O.2       1 <0>        -1.0843
     12 O4          5.9599    2.8732   -2.6087 O.3       1 <0>        -1.1140
     13 O5          3.9640    4.3690   -3.4403 O.3       1 <0>        -0.9411
     14 H2          1.7635    4.5648    1.5005 H         1 <0>         0.1011
     15 H3          2.6504    3.0089    1.6385 H         1 <0>         0.1165
     16 H4         -0.6761    3.1919   -0.8782 H         1 <0>         0.4569
     17 H5          0.1289    4.7766   -0.6190 H         1 <0>         0.4340
     18 H6          4.1286    2.3816   -0.2824 H         1 <0>         0.1007
     19 H7          3.1255    2.0466   -1.7343 H         1 <0>         0.0899
     20 H8          4.5017    4.9820   -4.1786 H         1 <0>         0.4455
     21 H9         -0.5630    3.8819    0.7764 H         1 <0>         0.4398
@<TRIPOS>BOND
     1    1    4 1
     2    1    2 1
     3    1   14 1
     4    1   15 1
     5    2    3 1
     6    2    4 1
     7    2    9 1
     8    4    5 1
     9    4    8 1
    10    5    6 2
    11    5    7 1
    12    8   16 1
    13    8   17 1
    14    8   21 1
    15    9   10 1
    16    9   18 1
    17    9   19 1
    18   10   11 2
    19   10   12 1
    20   10   13 1
    21   13   20 1
@<TRIPOS>MOLECULE
ZINC03995852
   24    24     0     0     0
SMALL
USER_CHARGES

@<TRIPOS>ATOM
      1 C1         -0.0188    1.5345    0.0105 C.3       1 <0>        -0.0946
      2 C2          1.4534    1.9953   -0.0011 C.3       1 <0>        -0.1348
      3 H1          1.7808    2.2008   -1.0203 H         1 <0>         0.0867
      4 C3          2.2325    0.7924    0.5864 C.3       1 <0>        -0.1349
      5 H2          2.1693    0.7856    1.6746 H         1 <0>         0.0530
      6 C4          1.4862   -0.4246   -0.0144 C.3       1 <0>        -0.0941
      7 C5          0.0021   -0.0041    0.0020 C.3       1 <0>        -0.0286
      8 C6         -0.6952   -0.5230   -1.2291 C.2       1 <0>         0.5089
      9 O1         -0.2807   -0.2241   -2.3360 O.co2     1 <0>        -0.6321
     10 O2         -1.6737   -1.2418   -1.1181 O.co2     1 <0>        -0.7041
     11 N1         -0.6546   -0.5229    1.2093 N.4       1 <0>        -0.6031
     12 C7          3.6708    0.8169    0.1372 C.2       1 <0>         0.5190
     13 O3          4.5587    0.5217    0.9189 O.co2     1 <0>        -0.7174
     14 O4          3.9465    1.1319   -1.0079 O.co2     1 <0>        -0.6903
     15 C8          1.6309    3.2159    0.8647 C.2       1 <0>         0.5014
     16 O5          0.6687    3.7082    1.4289 O.co2     1 <0>        -0.7248
     17 O6          2.7366    3.7111    1.0010 O.co2     1 <0>        -0.6799
     18 H3         -0.5162    1.8962    0.9104 H         1 <0>         0.0804
     19 H4         -0.5332    1.9058   -0.8758 H         1 <0>         0.0758
     20 H5          1.8189   -0.6099   -1.0357 H         1 <0>         0.1043
     21 H6          1.6390   -1.3091    0.6040 H         1 <0>         0.0556
     22 H7         -1.6116   -0.2043    1.2349 H         1 <0>         0.4208
     23 H8         -0.6362   -1.5316    1.1951 H         1 <0>         0.4177
     24 H9         -0.1670   -0.1891    2.0272 H         1 <0>         0.4151
@<TRIPOS>BOND
     1    1    7 1
     2    1    2 1
     3    1   18 1
     4    1   19 1
     5    2    3 1
     6    2    4 1
     7    2   15 1
     8    4    5 1
     9    4    6 1
    10    4   12 1
    11    6    7 1
    12    6   20 1
    13    6   21 1
    14    7    8 1
    15    7   11 1
    16    8    9 2
    17    8   10 1
    18   11   22 1
    19   11   23 1
    20   11   24 1
    21   12   13 2
    22   12   14 1
    23   15   16 2
    24   15   17 1
@<TRIPOS>MOLECULE
ZINC28246005
   21    21     0     0     0
SMALL
USER_CHARGES
(1R,2S)-1-amino-2-(phosphonomethyl)cyclopropane-1-carboxylic acid
@<TRIPOS>ATOM
      1 C1         -0.0127    1.0858    0.0080 C.3       1 <0>        -0.1072
      2 C2         -1.1502    1.7810   -0.7428 C.3       1 <0>        -0.0472
      3 H1         -1.8716    1.4785   -1.5162 H         1 <0>         0.1628
      4 C3         -1.1356    1.7728    0.7878 C.3       1 <0>        -0.1082
      5 C4         -2.1364    0.8909    1.4889 C.2       1 <0>         0.4966
      6 O1         -2.5854   -0.0794    0.9259 O.co2     1 <0>        -0.5730
      7 O2         -2.5292    1.1832    2.7387 O.co2     1 <0>        -0.7524
      8 N1         -0.8147    3.0338    1.4698 N.4       1 <0>        -0.6270
      9 C5         -0.8295    3.1019   -1.4452 C.3       1 <0>        -0.7479
     10 P1         -1.3326    2.9979   -3.1943 P.3       1 <0>         2.2680
     11 O3         -0.6887    1.8233   -3.8238 O.2       1 <0>        -1.0735
     12 O4         -2.9328    2.8452   -3.2843 O.3       1 <0>        -1.1007
     13 O5         -0.8770    4.3365   -3.9642 O.3       1 <0>        -0.9409
     14 H2          0.9505    1.5497    0.2669 H         1 <0>         0.0981
     15 H3          0.0135    0.0172    0.2676 H         1 <0>         0.1219
     16 H4         -1.7106    3.4101    1.9853 H         1 <0>         0.4566
     17 H5         -0.4785    3.7754    0.7302 H         1 <0>         0.4271
     18 H6         -1.3765    3.9204   -0.9544 H         1 <0>         0.0787
     19 H7          0.2516    3.2959   -1.3856 H         1 <0>         0.0782
     20 H8         -1.0955    4.4562   -5.0356 H         1 <0>         0.4504
     21 H9         -0.0147    2.8600    2.2045 H         1 <0>         0.4396
@<TRIPOS>BOND
     1    1    4 1
     2    1    2 1
     3    1   14 1
     4    1   15 1
     5    2    3 1
     6    2    4 1
     7    2    9 1
     8    4    5 1
     9    4    8 1
    10    5    6 2
    11    5    7 1
    12    8   16 1
    13    8   17 1
    14    8   21 1
    15    9   10 1
    16    9   18 1
    17    9   19 1
    18   10   11 2
    19   10   12 1
    20   10   13 1
    21   13   20 1
@<TRIPOS>MOLECULE
ZINC28246005
   20    20     0     0     0
SMALL
USER_CHARGES
(1R,2S)-1-amino-2-(phosphonomethyl)cyclopropane-1-carboxylic acid
@<TRIPOS>ATOM
      1 C1         -0.0127    1.0858    0.0080 C.3       1 <0>        -0.1020
      2 C2         -1.1502    1.7810   -0.7428 C.3       1 <0>        -0.0490
      3 H1         -1.8716    1.4785   -1.5162 H         1 <0>         0.1719
      4 C3         -1.1356    1.7728    0.7878 C.3       1 <0>        -0.1254
      5 C4         -2.1364    0.8909    1.4889 C.2       1 <0>         0.5019
      6 O1         -2.5854   -0.0794    0.9259 O.co2     1 <0>        -0.5784
      7 O2         -2.5292    1.1832    2.7387 O.co2     1 <0>        -0.7670
      8 N1         -0.8147    3.0338    1.4698 N.4       1 <0>        -0.6231
      9 C5         -0.8295    3.1019   -1.4452 C.3       1 <0>        -0.7336
     10 P1         -1.3326    2.9979   -3.1943 P.3       1 <0>         2.1966
     11 O3         -0.6887    1.8233   -3.8238 O.2       1 <0>        -1.1427
     12 O4         -2.9328    2.8452   -3.2843 O.3       1 <0>        -1.1799
     13 O5         -0.8770    4.3365   -3.9642 O.3       1 <0>        -1.1880
     14 H2          0.9505    1.5497    0.2669 H         1 <0>         0.0874
     15 H3          0.0135    0.0172    0.2676 H         1 <0>         0.1094
     16 H4         -1.7106    3.4101    1.9853 H         1 <0>         0.4498
     17 H5         -0.4785    3.7754    0.7302 H         1 <0>         0.4323
     18 H6         -1.3765    3.9204   -0.9544 H         1 <0>         0.0557
     19 H7          0.2516    3.2959   -1.3856 H         1 <0>         0.0549
     20 H8         -0.0147    2.8600    2.2045 H         1 <0>         0.4292
@<TRIPOS>BOND
     1    1    4 1
     2    1    2 1
     3    1   14 1
     4    1   15 1
     5    2    3 1
     6    2    4 1
     7    2    9 1
     8    4    5 1
     9    4    8 1
    10    5    6 2
    11    5    7 1
    12    8   16 1
    13    8   17 1
    14    8   20 1
    15    9   10 1
    16    9   18 1
    17    9   19 1
    18   10   11 2
    19   10   12 1
    20   10   13 1
@<TRIPOS>MOLECULE
ZINC00194811
   48    51     0     0     0
SMALL
USER_CHARGES
2-(1-phenylethyl)-3-(p-tolyl)-1,2-dihydroquinazolin-4-one
@<TRIPOS>ATOM
      1 C1         -0.1592   -1.7679    0.5971 C.3       1 <0>        -0.1151
      2 C2          0.9392   -0.7442    0.4684 C.ar      1 <0>        -0.0837
      3 C3          1.0654   -0.0105   -0.6969 C.ar      1 <0>        -0.1099
      4 C4          2.0707    0.9288   -0.8179 C.ar      1 <0>        -0.1233
      5 C5          2.9556    1.1359    0.2324 C.ar      1 <0>         0.1406
      6 C6          2.8260    0.3973    1.4015 C.ar      1 <0>        -0.0825
      7 C7          1.8183   -0.5402    1.5162 C.ar      1 <0>        -0.1067
      8 N1          3.9752    2.0856    0.1129 N.am      1 <0>        -0.5725
      9 C8          3.6269    3.4933   -0.0812 C.3       1 <0>         0.3930
     10 H1          2.6554    3.5605   -0.5709 H         1 <0>         0.1050
     11 N2          4.6369    4.1579   -0.9127 N.pl3     1 <0>        -0.7473
     12 C9          5.9811    3.9012   -0.6666 C.ar      1 <0>         0.2352
     13 C10         6.9639    4.8376   -0.9399 C.ar      1 <0>        -0.1840
     14 C11         8.2879    4.5328   -0.6885 C.ar      1 <0>        -0.0505
     15 C12         8.6397    3.2980   -0.1663 C.ar      1 <0>        -0.1715
     16 C13         7.6727    2.3553    0.1150 C.ar      1 <0>        -0.0197
     17 C14         6.3332    2.6514   -0.1281 C.ar      1 <0>        -0.2010
     18 C15         5.2615    1.6887    0.1839 C.2       1 <0>         0.5721
     19 O1          5.5344    0.5461    0.4986 O.2       1 <0>        -0.5178
     20 C16         3.5534    4.1891    1.2795 C.3       1 <0>        -0.0768
     21 H2          4.4869    4.0307    1.8194 H         1 <0>         0.0827
     22 C17         3.3313    5.6889    1.0740 C.3       1 <0>        -0.1377
     23 C18         2.4092    3.6162    2.0755 C.ar      1 <0>        -0.0718
     24 C19         1.1178    3.7027    1.5900 C.ar      1 <0>        -0.1128
     25 C20         0.0689    3.1725    2.3177 C.ar      1 <0>        -0.1113
     26 C21         0.3101    2.5655    3.5360 C.ar      1 <0>        -0.1168
     27 C22         1.6008    2.4841    4.0242 C.ar      1 <0>        -0.1130
     28 C23         2.6504    3.0092    3.2938 C.ar      1 <0>        -0.1084
     29 H3          0.2011   -2.7338    0.2431 H         1 <0>         0.0707
     30 H4         -0.4569   -1.8520    1.6423 H         1 <0>         0.0665
     31 H5         -1.0162   -1.4584   -0.0011 H         1 <0>         0.0661
     32 H6          0.3799   -0.1753   -1.5150 H         1 <0>         0.1244
     33 H7          2.1689    1.5012   -1.7284 H         1 <0>         0.1195
     34 H8          3.5128    0.5556    2.2199 H         1 <0>         0.1201
     35 H9          1.7171   -1.1148    2.4250 H         1 <0>         0.1232
     36 H10         4.3717    4.7654   -1.6209 H         1 <0>         0.4148
     37 H11         6.6968    5.8012   -1.3479 H         1 <0>         0.1303
     38 H12         9.0550    5.2627   -0.9009 H         1 <0>         0.1293
     39 H13         9.6789    3.0720    0.0214 H         1 <0>         0.1290
     40 H14         7.9520    1.3946    0.5217 H         1 <0>         0.1353
     41 H15         3.2789    6.1846    2.0434 H         1 <0>         0.0633
     42 H16         4.1588    6.1033    0.4982 H         1 <0>         0.0650
     43 H17         2.3977    5.8473    0.5340 H         1 <0>         0.0587
     44 H18         0.9289    4.1809    0.6403 H         1 <0>         0.1157
     45 H19        -0.9395    3.2359    1.9362 H         1 <0>         0.1195
     46 H20        -0.5099    2.1546    4.1063 H         1 <0>         0.1193
     47 H21         1.7892    2.0098    4.9760 H         1 <0>         0.1199
     48 H22         3.6588    2.9456    3.6752 H         1 <0>         0.1152
@<TRIPOS>BOND
     1    1    2 1
     2    1   29 1
     3    1   30 1
     4    1   31 1
     5    2    7 ar
     6    2    3 ar
     7    3    4 ar
     8    3   32 1
     9    4    5 ar
    10    4   33 1
    11    5    6 ar
    12    5    8 1
    13    6    7 ar
    14    6   34 1
    15    7   35 1
    16    8   18 am
    17    8    9 1
    18    9   10 1
    19    9   11 1
    20    9   20 1
    21   11   12 1
    22   11   36 1
    23   12   17 ar
    24   12   13 ar
    25   13   14 ar
    26   13   37 1
    27   14   15 ar
    28   14   38 1
    29   15   16 ar
    30   15   39 1
    31   16   17 ar
    32   16   40 1
    33   17   18 1
    34   18   19 2
    35   20   21 1
    36   20   22 1
    37   20   23 1
    38   22   41 1
    39   22   42 1
    40   22   43 1
    41   23   28 ar
    42   23   24 ar
    43   24   25 ar
    44   24   44 1
    45   25   26 ar
    46   25   45 1
    47   26   27 ar
    48   26   46 1
    49   27   28 ar
    50   27   47 1
    51   28   48 1
@<TRIPOS>MOLECULE
ZINC00194813
   48    51     0     0     0
SMALL
USER_CHARGES
2-(1-phenylethyl)-3-(p-tolyl)-1,2-dihydroquinazolin-4-one
@<TRIPOS>ATOM
      1 C1          6.0449   -0.8355   -0.7681 C.3       1 <0>        -0.1164
      2 C2          4.7420   -0.1063   -0.5635 C.ar      1 <0>        -0.0855
      3 C3          3.9852   -0.3503    0.5679 C.ar      1 <0>        -0.1073
      4 C4          2.7904    0.3159    0.7582 C.ar      1 <0>        -0.0960
      5 C5          2.3494    1.2317   -0.1882 C.ar      1 <0>         0.1373
      6 C6          3.1091    1.4702   -1.3262 C.ar      1 <0>        -0.1247
      7 C7          4.3057    0.8049   -1.5077 C.ar      1 <0>        -0.1076
      8 N1          1.1400    1.9081    0.0014 N.am      1 <0>        -0.5751
      9 C8          1.1356    3.3699    0.0629 C.3       1 <0>         0.3937
     10 H1          1.9830    3.7575   -0.5027 H         1 <0>         0.1053
     11 N2         -0.1099    3.8994   -0.5041 N.pl3     1 <0>        -0.7437
     12 C9         -1.3115    3.2819   -0.1751 C.ar      1 <0>         0.2393
     13 C10        -2.5076    3.9793   -0.1548 C.ar      1 <0>        -0.1834
     14 C11        -3.6791    3.3189    0.1528 C.ar      1 <0>        -0.0495
     15 C12        -3.6663    1.9665    0.4566 C.ar      1 <0>        -0.1731
     16 C13        -2.4825    1.2585    0.4503 C.ar      1 <0>        -0.0188
     17 C14        -1.2929    1.9116    0.1350 C.ar      1 <0>        -0.2041
     18 C15        -0.0017    1.2020    0.1249 C.2       1 <0>         0.5733
     19 O1          0.0334   -0.0097    0.2220 O.2       1 <0>        -0.5168
     20 C16         1.2581    3.8159    1.5214 C.3       1 <0>        -0.0754
     21 H2          0.4165    3.4244    2.0929 H         1 <0>         0.0837
     22 C17         2.5660    3.2829    2.1096 C.3       1 <0>        -0.1486
     23 C18         1.2538    5.3214    1.5883 C.ar      1 <0>        -0.0675
     24 C19         2.2367    6.0449    0.9392 C.ar      1 <0>        -0.1194
     25 C20         2.2305    7.4260    0.9973 C.ar      1 <0>        -0.1157
     26 C21         1.2463    8.0834    1.7115 C.ar      1 <0>        -0.1216
     27 C22         0.2664    7.3597    2.3650 C.ar      1 <0>        -0.1154
     28 C23         0.2703    5.9787    2.3036 C.ar      1 <0>        -0.1074
     29 H3          5.8613   -1.7619   -1.3122 H         1 <0>         0.0721
     30 H4          6.7270   -0.2069   -1.3405 H         1 <0>         0.0672
     31 H5          6.4888   -1.0650    0.2006 H         1 <0>         0.0677
     32 H6          4.3289   -1.0623    1.3036 H         1 <0>         0.1273
     33 H7          2.1996    0.1246    1.6418 H         1 <0>         0.1255
     34 H8          2.7666    2.1782   -2.0663 H         1 <0>         0.1223
     35 H9          4.8991    0.9932   -2.3902 H         1 <0>         0.1268
     36 H10        -0.0953    4.6666   -1.0974 H         1 <0>         0.4145
     37 H11        -2.5253    5.0332   -0.3902 H         1 <0>         0.1292
     38 H12        -4.6127    3.8617    0.1654 H         1 <0>         0.1288
     39 H13        -4.5903    1.4633    0.7004 H         1 <0>         0.1288
     40 H14        -2.4778    0.2050    0.6878 H         1 <0>         0.1352
     41 H15         3.4076    3.6744    1.5381 H         1 <0>         0.0600
     42 H16         2.6533    3.6006    3.1486 H         1 <0>         0.0634
     43 H17         2.5691    2.1940    2.0611 H         1 <0>         0.0690
     44 H18         3.0076    5.5312    0.3840 H         1 <0>         0.1189
     45 H19         2.9963    7.9914    0.4870 H         1 <0>         0.1219
     46 H20         1.2430    9.1623    1.7592 H         1 <0>         0.1212
     47 H21        -0.5023    7.8732    2.9233 H         1 <0>         0.1217
     48 H22        -0.4952    5.4133    2.8142 H         1 <0>         0.1187
@<TRIPOS>BOND
     1    1    2 1
     2    1   29 1
     3    1   30 1
     4    1   31 1
     5    2    7 ar
     6    2    3 ar
     7    3    4 ar
     8    3   32 1
     9    4    5 ar
    10    4   33 1
    11    5    6 ar
    12    5    8 1
    13    6    7 ar
    14    6   34 1
    15    7   35 1
    16    8   18 am
    17    8    9 1
    18    9   10 1
    19    9   11 1
    20    9   20 1
    21   11   12 1
    22   11   36 1
    23   12   17 ar
    24   12   13 ar
    25   13   14 ar
    26   13   37 1
    27   14   15 ar
    28   14   38 1
    29   15   16 ar
    30   15   39 1
    31   16   17 ar
    32   16   40 1
    33   17   18 1
    34   18   19 2
    35   20   21 1
    36   20   22 1
    37   20   23 1
    38   22   41 1
    39   22   42 1
    40   22   43 1
    41   23   28 ar
    42   23   24 ar
    43   24   25 ar
    44   24   44 1
    45   25   26 ar
    46   25   45 1
    47   26   27 ar
    48   26   46 1
    49   27   28 ar
    50   27   47 1
    51   28   48 1
@<TRIPOS>MOLECULE
ZINC00194814
   48    51     0     0     0
SMALL
USER_CHARGES
2-(1-phenylethyl)-3-(p-tolyl)-1,2-dihydroquinazolin-4-one
@<TRIPOS>ATOM
      1 C1          3.7183   -0.6924   -0.0270 C.3       1 <0>        -0.1163
      2 C2          2.4013    0.0400   -0.0141 C.ar      1 <0>        -0.0859
      3 C3          1.5384   -0.0731   -1.0888 C.ar      1 <0>        -0.1069
      4 C4          0.3307    0.5968   -1.0801 C.ar      1 <0>        -0.0964
      5 C5         -0.0168    1.3847    0.0097 C.ar      1 <0>         0.1381
      6 C6          0.8522    1.4962    1.0874 C.ar      1 <0>        -0.1254
      7 C7          2.0582    0.8233    1.0726 C.ar      1 <0>        -0.1071
      8 N1         -1.2364    2.0689    0.0191 N.am      1 <0>        -0.5748
      9 C8         -1.2418    3.5268    0.1442 C.3       1 <0>         0.3935
     10 H1         -0.3473    3.8465    0.6788 H         1 <0>         0.1052
     11 N2         -2.4302    3.9728    0.8752 N.pl3     1 <0>        -0.7434
     12 C9         -3.6582    3.3930    0.5767 C.ar      1 <0>         0.2390
     13 C10        -4.8492    4.0775    0.7498 C.ar      1 <0>        -0.1837
     14 C11        -6.0468    3.4496    0.4659 C.ar      1 <0>        -0.0493
     15 C12        -6.0652    2.1398    0.0124 C.ar      1 <0>        -0.1731
     16 C13        -4.8874    1.4452   -0.1693 C.ar      1 <0>        -0.0184
     17 C14        -3.6722    2.0700    0.1007 C.ar      1 <0>        -0.2039
     18 C15        -2.3868    1.3734   -0.0815 C.2       1 <0>         0.5730
     19 O1         -2.3637    0.1812   -0.3203 O.2       1 <0>        -0.5170
     20 C16        -1.2457    4.1549   -1.2509 C.3       1 <0>        -0.0756
     21 H2         -2.1351    3.8322   -1.7921 H         1 <0>         0.0837
     22 C17         0.0043    3.7114   -2.0134 C.3       1 <0>        -0.1486
     23 C18        -1.2513    5.6567   -1.1255 C.ar      1 <0>        -0.0672
     24 C19        -0.2191    6.2992   -0.4678 C.ar      1 <0>        -0.1196
     25 C20        -0.2220    7.6771   -0.3567 C.ar      1 <0>        -0.1156
     26 C21        -1.2617    8.4118   -0.8953 C.ar      1 <0>        -0.1217
     27 C22        -2.2965    7.7689   -1.5485 C.ar      1 <0>        -0.1153
     28 C23        -2.2915    6.3913   -1.6634 C.ar      1 <0>        -0.1075
     29 H3          4.4829   -0.0573   -0.4745 H         1 <0>         0.0719
     30 H4          4.0054   -0.9418    0.9945 H         1 <0>         0.0672
     31 H5          3.6193   -1.6078   -0.6104 H         1 <0>         0.0678
     32 H6          1.8094   -0.6857   -1.9360 H         1 <0>         0.1273
     33 H7         -0.3429    0.5077   -1.9195 H         1 <0>         0.1254
     34 H8          0.5851    2.1083    1.9361 H         1 <0>         0.1222
     35 H9          2.7341    0.9093    1.9105 H         1 <0>         0.1269
     36 H10        -2.3604    4.6588    1.5573 H         1 <0>         0.4147
     37 H11        -4.8422    5.0973    1.1052 H         1 <0>         0.1294
     38 H12        -6.9761    3.9834    0.5989 H         1 <0>         0.1288
     39 H13        -7.0089    1.6597   -0.2006 H         1 <0>         0.1289
     40 H14        -4.9074    0.4236   -0.5191 H         1 <0>         0.1353
     41 H15         0.0084    2.6252   -2.1041 H         1 <0>         0.0690
     42 H16         0.0015    4.1589   -3.0073 H         1 <0>         0.0632
     43 H17         0.8937    4.0341   -1.4721 H         1 <0>         0.0598
     44 H18         0.5913    5.7249   -0.0437 H         1 <0>         0.1188
     45 H19         0.5867    8.1794    0.1534 H         1 <0>         0.1219
     46 H20        -1.2653    9.4881   -0.8062 H         1 <0>         0.1212
     47 H21        -3.1088    8.3429   -1.9694 H         1 <0>         0.1217
     48 H22        -3.1000    5.8890   -2.1737 H         1 <0>         0.1187
@<TRIPOS>BOND
     1    1    2 1
     2    1   29 1
     3    1   30 1
     4    1   31 1
     5    2    7 ar
     6    2    3 ar
     7    3    4 ar
     8    3   32 1
     9    4    5 ar
    10    4   33 1
    11    5    6 ar
    12    5    8 1
    13    6    7 ar
    14    6   34 1
    15    7   35 1
    16    8   18 am
    17    8    9 1
    18    9   10 1
    19    9   11 1
    20    9   20 1
    21   11   12 1
    22   11   36 1
    23   12   17 ar
    24   12   13 ar
    25   13   14 ar
    26   13   37 1
    27   14   15 ar
    28   14   38 1
    29   15   16 ar
    30   15   39 1
    31   16   17 ar
    32   16   40 1
    33   17   18 1
    34   18   19 2
    35   20   21 1
    36   20   22 1
    37   20   23 1
    38   22   41 1
    39   22   42 1
    40   22   43 1
    41   23   28 ar
    42   23   24 ar
    43   24   25 ar
    44   24   44 1
    45   25   26 ar
    46   25   45 1
    47   26   27 ar
    48   26   46 1
    49   27   28 ar
    50   27   47 1
    51   28   48 1
@<TRIPOS>MOLECULE
ZINC00194815
   48    51     0     0     0
SMALL
USER_CHARGES
2-(1-phenylethyl)-3-(p-tolyl)-1,2-dihydroquinazolin-4-one
@<TRIPOS>ATOM
      1 C1          3.5917    1.2624   -4.9538 C.3       1 <0>        -0.1153
      2 C2          2.2752    1.5487   -4.2786 C.ar      1 <0>        -0.0828
      3 C3          1.4177    0.5087   -3.9697 C.ar      1 <0>        -0.1069
      4 C4          0.2106    0.7676   -3.3506 C.ar      1 <0>        -0.0817
      5 C5         -0.1419    2.0743   -3.0386 C.ar      1 <0>         0.1405
      6 C6          0.7189    3.1171   -3.3558 C.ar      1 <0>        -0.1225
      7 C7          1.9270    2.8508   -3.9698 C.ar      1 <0>        -0.1104
      8 N1         -1.3634    2.3399   -2.4116 N.am      1 <0>        -0.5728
      9 C8         -1.3708    2.9271   -1.0715 C.3       1 <0>         0.3928
     10 H1         -0.4620    3.5117   -0.9286 H         1 <0>         0.1049
     11 N2         -2.5381    3.8010   -0.9058 N.pl3     1 <0>        -0.7474
     12 C9         -3.7722    3.3643   -1.3739 C.ar      1 <0>         0.2353
     13 C10        -4.9601    3.7837   -0.7992 C.ar      1 <0>        -0.1846
     14 C11        -6.1633    3.3443   -1.3172 C.ar      1 <0>        -0.0503
     15 C12        -6.1904    2.4907   -2.4090 C.ar      1 <0>        -0.1718
     16 C13        -5.0160    2.0606   -2.9908 C.ar      1 <0>        -0.0192
     17 C14        -3.7955    2.4850   -2.4708 C.ar      1 <0>        -0.2013
     18 C15        -2.5135    2.0508   -3.0527 C.2       1 <0>         0.5722
     19 O1         -2.4930    1.4366   -4.1021 O.2       1 <0>        -0.5183
     20 C16        -1.4231    1.8088   -0.0286 C.3       1 <0>        -0.0767
     21 H2         -2.2770    1.1624   -0.2315 H         1 <0>         0.0830
     22 C17        -1.5657    2.4193    1.3670 C.3       1 <0>        -0.1375
     23 C18        -0.1535    0.9997   -0.0957 C.ar      1 <0>        -0.0711
     24 C19         1.0715    1.6219    0.0566 C.ar      1 <0>        -0.1124
     25 C20         2.2364    0.8809   -0.0125 C.ar      1 <0>        -0.1104
     26 C21         2.1763   -0.4828   -0.2306 C.ar      1 <0>        -0.1170
     27 C22         0.9513   -1.1051   -0.3823 C.ar      1 <0>        -0.1132
     28 C23        -0.2136   -0.3638   -0.3151 C.ar      1 <0>        -0.1097
     29 H3          3.4593    1.2914   -6.0353 H         1 <0>         0.0709
     30 H4          4.3232    2.0140   -4.6570 H         1 <0>         0.0662
     31 H5          3.9449    0.2747   -4.6573 H         1 <0>         0.0665
     32 H6          1.6924   -0.5072   -4.2126 H         1 <0>         0.1231
     33 H7         -0.4586   -0.0451   -3.1096 H         1 <0>         0.1196
     34 H8          0.4455    4.1347   -3.1189 H         1 <0>         0.1194
     35 H9          2.5986    3.6609   -4.2130 H         1 <0>         0.1243
     36 H10        -2.4503    4.6669   -0.4775 H         1 <0>         0.4149
     37 H11        -4.9462    4.4505    0.0502 H         1 <0>         0.1302
     38 H12        -7.0902    3.6688   -0.8680 H         1 <0>         0.1292
     39 H13        -7.1382    2.1596   -2.8070 H         1 <0>         0.1291
     40 H14        -5.0426    1.3993   -3.8443 H         1 <0>         0.1352
     41 H15        -2.4840    3.0045    1.4155 H         1 <0>         0.0649
     42 H16        -1.6029    1.6226    2.1100 H         1 <0>         0.0633
     43 H17        -0.7118    3.0656    1.5699 H         1 <0>         0.0586
     44 H18         1.1185    2.6872    0.2281 H         1 <0>         0.1151
     45 H19         3.1935    1.3672    0.1058 H         1 <0>         0.1193
     46 H20         3.0863   -1.0620   -0.2827 H         1 <0>         0.1193
     47 H21         0.9043   -2.1704   -0.5531 H         1 <0>         0.1199
     48 H22        -1.1706   -0.8500   -0.4337 H         1 <0>         0.1155
@<TRIPOS>BOND
     1    1    2 1
     2    1   29 1
     3    1   30 1
     4    1   31 1
     5    2    7 ar
     6    2    3 ar
     7    3    4 ar
     8    3   32 1
     9    4    5 ar
    10    4   33 1
    11    5    6 ar
    12    5    8 1
    13    6    7 ar
    14    6   34 1
    15    7   35 1
    16    8   18 am
    17    8    9 1
    18    9   10 1
    19    9   11 1
    20    9   20 1
    21   11   12 1
    22   11   36 1
    23   12   17 ar
    24   12   13 ar
    25   13   14 ar
    26   13   37 1
    27   14   15 ar
    28   14   38 1
    29   15   16 ar
    30   15   39 1
    31   16   17 ar
    32   16   40 1
    33   17   18 1
    34   18   19 2
    35   20   21 1
    36   20   22 1
    37   20   23 1
    38   22   41 1
    39   22   42 1
    40   22   43 1
    41   23   28 ar
    42   23   24 ar
    43   24   25 ar
    44   24   44 1
    45   25   26 ar
    46   25   45 1
    47   26   27 ar
    48   26   46 1
    49   27   28 ar
    50   27   47 1
    51   28   48 1
@<TRIPOS>MOLECULE
ZINC05029798
   35    37     0     0     0
SMALL
USER_CHARGES

@<TRIPOS>ATOM
      1 C1         -0.0184    1.5028    0.0103 C.3       1 <0>        -0.1045
      2 C2          0.0021   -0.0041    0.0020 C.ar      1 <0>         0.0816
      3 C3          0.0057   -0.6942   -1.2236 C.ar      1 <0>         0.3852
      4 N1          0.0236   -2.0142   -1.2490 N.ar      1 <0>        -0.4555
      5 C4          0.0387   -2.6984   -0.0985 C.ar      1 <0>         0.1231
      6 C5          0.0584   -4.1036   -0.0926 C.ar      1 <0>        -0.0956
      7 C6          0.0740   -4.7735    1.0924 C.ar      1 <0>        -0.0886
      8 C7          0.0706   -4.0856    2.3040 C.ar      1 <0>        -0.1172
      9 C8          0.0518   -2.7247    2.3364 C.ar      1 <0>        -0.0691
     10 C9          0.0354   -1.9989    1.1335 C.ar      1 <0>         0.0369
     11 N2          0.0218   -0.6595    1.1370 N.ar      1 <0>        -0.3977
     12 N3         -0.0100    0.0165   -2.4133 N.pl3     1 <0>        -0.5598
     13 N4         -0.0065   -0.6657   -3.6370 N.2       1 <0>        -0.1879
     14 C10        -0.0212    0.0002   -4.7515 C.2       1 <0>         0.0866
     15 C11        -0.0175   -0.7175   -6.0387 C.ar      1 <0>        -0.0811
     16 C12        -0.0275   -0.0050   -7.2400 C.ar      1 <0>        -0.0775
     17 C13        -0.0240   -0.6827   -8.4412 C.ar      1 <0>        -0.1343
     18 C14        -0.0110   -2.0669   -8.4615 C.ar      1 <0>        -0.0885
     19 C15        -0.0010   -2.7834   -7.2795 C.ar      1 <0>        -0.1533
     20 C16         0.0019   -2.1186   -6.0643 C.ar      1 <0>         0.1450
     21 O1          0.0175   -2.8218   -4.9023 O.3       1 <0>        -0.4713
     22 H1          1.0042    1.8801    0.0026 H         1 <0>         0.0870
     23 H2         -0.5455    1.8639   -0.8728 H         1 <0>         0.0720
     24 H3         -0.5286    1.8543    0.9071 H         1 <0>         0.0909
     25 H4          0.0609   -4.6497   -1.0243 H         1 <0>         0.1393
     26 H5          0.0887   -5.8534    1.0933 H         1 <0>         0.1347
     27 H6          0.0828   -4.6399    3.2308 H         1 <0>         0.1342
     28 H7          0.0491   -2.2050    3.2831 H         1 <0>         0.1371
     29 H8         -0.0235    0.9863   -2.3987 H         1 <0>         0.3970
     30 H9         -0.0362    1.0799   -4.7353 H         1 <0>         0.1184
     31 H10        -0.0383    1.0749   -7.2283 H         1 <0>         0.1312
     32 H11        -0.0318   -0.1313   -9.3698 H         1 <0>         0.1298
     33 H12        -0.0091   -2.5900   -9.4064 H         1 <0>         0.1288
     34 H13         0.0087   -3.8631   -7.3034 H         1 <0>         0.1319
     35 H14        -0.8613   -3.0377   -4.5615 H         1 <0>         0.3912
@<TRIPOS>BOND
     1    1    2 1
     2    1   22 1
     3    1   23 1
     4    1   24 1
     5    2   11 ar
     6    2    3 ar
     7    3    4 ar
     8    3   12 1
     9    4    5 ar
    10    5   10 ar
    11    5    6 ar
    12    6    7 ar
    13    6   25 1
    14    7    8 ar
    15    7   26 1
    16    8    9 ar
    17    8   27 1
    18    9   10 ar
    19    9   28 1
    20   10   11 ar
    21   12   13 1
    22   12   29 1
    23   13   14 2
    24   14   15 1
    25   14   30 1
    26   15   20 ar
    27   15   16 ar
    28   16   17 ar
    29   16   31 1
    30   17   18 ar
    31   17   32 1
    32   18   19 ar
    33   18   33 1
    34   19   20 ar
    35   19   34 1
    36   20   21 1
    37   21   35 1
@<TRIPOS>MOLECULE
ZINC05029798
   36    38     0     0     0
SMALL
USER_CHARGES

@<TRIPOS>ATOM
      1 C1         -0.0075    1.5065    0.0091 C.3       1 <0>        -0.1137
      2 C2          0.0252   -0.0002    0.0018 C.ar      1 <0>         0.1071
      3 C3          0.0285   -0.6912   -1.2233 C.ar      1 <0>         0.3325
      4 N1          0.0570   -2.0110   -1.2478 N.ar      1 <0>        -0.4833
      5 C4          0.0833   -2.6942   -0.0969 C.ar      1 <0>         0.1192
      6 C5          0.1145   -4.0991   -0.0900 C.ar      1 <0>        -0.0985
      7 C6          0.1413   -4.7680    1.0954 C.ar      1 <0>        -0.0726
      8 C7          0.1382   -4.0792    2.3065 C.ar      1 <0>        -0.0937
      9 C8          0.1084   -2.7185    2.3380 C.ar      1 <0>        -0.0704
     10 C9          0.0803   -1.9938    1.1347 C.ar      1 <0>         0.0654
     11 N2          0.0557   -0.6545    1.1372 N.ar      1 <0>        -0.3778
     12 N3          0.0012    0.0185   -2.4134 N.pl3     1 <0>        -0.5192
     13 N4          0.0044   -0.6647   -3.6366 N.pl3     1 <0>        -0.2922
     14 C10        -0.0212    0.0002   -4.7515 C.2       1 <0>         0.3097
     15 C11         0.0937   -0.7118   -6.0368 C.ar      1 <0>        -0.1791
     16 C12         0.1833    0.0060   -7.2316 C.ar      1 <0>        -0.0199
     17 C13         0.2906   -0.6664   -8.4310 C.ar      1 <0>        -0.1246
     18 C14         0.3094   -2.0504   -8.4560 C.ar      1 <0>        -0.0285
     19 C15         0.2215   -2.7721   -7.2803 C.ar      1 <0>        -0.1389
     20 C16         0.1195   -2.1127   -6.0665 C.ar      1 <0>         0.1492
     21 O1          0.0387   -2.8210   -4.9103 O.3       1 <0>        -0.4908
     22 H1          1.0119    1.8921   -0.0039 H         1 <0>         0.0980
     23 H2         -0.5419    1.8625   -0.8716 H         1 <0>         0.0742
     24 H3         -0.5162    1.8545    0.9081 H         1 <0>         0.1035
     25 H4          0.1169   -4.6460   -1.0213 H         1 <0>         0.1437
     26 H5          0.1648   -5.8477    1.0970 H         1 <0>         0.1459
     27 H6          0.1594   -4.6327    3.2336 H         1 <0>         0.1467
     28 H7          0.1060   -2.1981    3.2843 H         1 <0>         0.1494
     29 H8         -0.0201    0.9881   -2.3995 H         1 <0>         0.4578
     30 H9          0.0257   -1.6343   -3.6505 H         1 <0>         0.4556
     31 H10        -0.1267    1.0749   -4.7371 H         1 <0>         0.2140
     32 H11         0.1682    1.0858   -7.2164 H         1 <0>         0.1573
     33 H12         0.3598   -0.1109   -9.3546 H         1 <0>         0.1544
     34 H13         0.3930   -2.5693   -9.3995 H         1 <0>         0.1529
     35 H14         0.2365   -3.8517   -7.3079 H         1 <0>         0.1543
     36 H15        -0.8652   -3.0408   -4.6461 H         1 <0>         0.4124
@<TRIPOS>BOND
     1    1    2 1
     2    1   22 1
     3    1   23 1
     4    1   24 1
     5    2   11 ar
     6    2    3 ar
     7    3    4 ar
     8    3   12 1
     9    4    5 ar
    10    5   10 ar
    11    5    6 ar
    12    6    7 ar
    13    6   25 1
    14    7    8 ar
    15    7   26 1
    16    8    9 ar
    17    8   27 1
    18    9   10 ar
    19    9   28 1
    20   10   11 ar
    21   12   13 1
    22   12   29 1
    23   13   14 2
    24   13   30 1
    25   14   15 1
    26   14   31 1
    27   15   20 ar
    28   15   16 ar
    29   16   17 ar
    30   16   32 1
    31   17   18 ar
    32   17   33 1
    33   18   19 ar
    34   18   34 1
    35   19   20 ar
    36   19   35 1
    37   20   21 1
    38   21   36 1
@<TRIPOS>MOLECULE
ZINC00529400
   47    50     0     0     0
SMALL
USER_CHARGES

@<TRIPOS>ATOM
      1 C1         -0.1322    1.4943    0.0605 C.3       1 <0>        -0.1171
      2 C2         -0.0568   -0.0103    0.0238 C.ar      1 <0>        -0.0732
      3 C3          0.7891   -0.6372   -0.8731 C.ar      1 <0>        -0.1108
      4 C4          0.8609   -2.0157   -0.9089 C.ar      1 <0>        -0.0938
      5 C5          0.0825   -2.7729   -0.0430 C.ar      1 <0>         0.1380
      6 C6         -0.7657   -2.1406    0.8563 C.ar      1 <0>        -0.0652
      7 C7         -0.8291   -0.7611    0.8907 C.ar      1 <0>        -0.1107
      8 C8         -1.6125   -2.9583    1.7972 C.3       1 <0>        -0.1091
      9 N1          0.1526   -4.1713   -0.0771 N.pl3     1 <0>        -0.3291
     10 C9          0.1036   -4.9484   -1.1994 C.ar      1 <0>         0.3499
     11 C10         0.2078   -6.2849   -0.7661 C.ar      1 <0>        -0.2789
     12 C11         0.3185   -6.2562    0.6412 C.2       1 <0>         0.1109
     13 N2          0.2912   -5.0139    1.0331 N.2       1 <0>        -0.2312
     14 C12         0.1835   -7.3045   -1.7370 C.ar      1 <0>         0.5220
     15 N3          0.0636   -6.9576   -3.0140 N.ar      1 <0>        -0.5573
     16 C13        -0.0311   -5.6894   -3.3725 C.ar      1 <0>         0.3575
     17 N4         -0.0127   -4.7030   -2.5028 N.ar      1 <0>        -0.5354
     18 N5          0.2823   -8.6324   -1.3709 N.pl3     1 <0>        -0.6641
     19 C14         1.5964   -9.2561   -1.1641 C.3       1 <0>         0.1488
     20 C15         1.6840  -10.5191   -2.0267 C.3       1 <0>        -0.1373
     21 C16         0.4978  -11.4324   -1.7088 C.3       1 <0>        -0.1110
     22 C17        -0.8089  -10.7091   -2.0428 C.3       1 <0>        -0.1088
     23 H1         -0.8115  -10.4305   -3.0966 H         1 <0>         0.0767
     24 C18        -0.9249   -9.4467   -1.1749 C.3       1 <0>         0.1546
     25 C19        -1.9927  -11.6350   -1.7563 C.3       1 <0>        -0.1473
     26 H2          0.6076    1.8782    0.7629 H         1 <0>         0.0745
     27 H3          0.0698    1.8926   -0.9338 H         1 <0>         0.0700
     28 H4         -1.1287    1.8005    0.3790 H         1 <0>         0.0694
     29 H5          1.3939   -0.0478   -1.5464 H         1 <0>         0.1328
     30 H6          1.5213   -2.5046   -1.6098 H         1 <0>         0.1286
     31 H7         -1.4853   -0.2686    1.5930 H         1 <0>         0.1325
     32 H8         -1.0944   -3.0680    2.7500 H         1 <0>         0.0791
     33 H9         -2.5661   -2.4554    1.9580 H         1 <0>         0.0686
     34 H10        -1.7894   -3.9429    1.3643 H         1 <0>         0.0626
     35 H11         0.4143   -7.1186    1.2842 H         1 <0>         0.2024
     36 H12        -0.1267   -5.4533   -4.4221 H         1 <0>         0.2063
     37 H13         2.3818   -8.5590   -1.4562 H         1 <0>         0.0675
     38 H14         1.7133   -9.5223   -0.1136 H         1 <0>         0.0622
     39 H15         1.6579  -10.2424   -3.0807 H         1 <0>         0.0683
     40 H16         2.6149  -11.0434   -1.8107 H         1 <0>         0.0715
     41 H17         0.5710  -12.3430   -2.3035 H         1 <0>         0.0632
     42 H18         0.5105  -11.6887   -0.6495 H         1 <0>         0.0630
     43 H19        -1.0094   -9.7281   -0.1253 H         1 <0>         0.0625
     44 H20        -1.8036   -8.8754   -1.4741 H         1 <0>         0.0675
     45 H21        -1.9903  -11.9123   -0.7022 H         1 <0>         0.0560
     46 H22        -2.9231  -11.1194   -1.9943 H         1 <0>         0.0550
     47 H23        -1.9081  -12.5329   -2.3684 H         1 <0>         0.0581
@<TRIPOS>BOND
     1    1    2 1
     2    1   26 1
     3    1   27 1
     4    1   28 1
     5    2    7 ar
     6    2    3 ar
     7    3    4 ar
     8    3   29 1
     9    4    5 ar
    10    4   30 1
    11    5    6 ar
    12    5    9 1
    13    6    7 ar
    14    6    8 1
    15    7   31 1
    16    8   32 1
    17    8   33 1
    18    8   34 1
    19    9   13 1
    20    9   10 1
    21   10   17 ar
    22   10   11 ar
    23   11   12 1
    24   11   14 ar
    25   12   13 2
    26   12   35 1
    27   14   15 ar
    28   14   18 1
    29   15   16 ar
    30   16   17 ar
    31   16   36 1
    32   18   24 1
    33   18   19 1
    34   19   20 1
    35   19   37 1
    36   19   38 1
    37   20   21 1
    38   20   39 1
    39   20   40 1
    40   21   22 1
    41   21   41 1
    42   21   42 1
    43   22   23 1
    44   22   24 1
    45   22   25 1
    46   24   43 1
    47   24   44 1
    48   25   45 1
    49   25   46 1
    50   25   47 1
@<TRIPOS>MOLECULE
ZINC00529402
   47    50     0     0     0
SMALL
USER_CHARGES

@<TRIPOS>ATOM
      1 C1         -0.1321    1.4944    0.0605 C.3       1 <0>        -0.1171
      2 C2         -0.0567   -0.0103    0.0238 C.ar      1 <0>        -0.0733
      3 C3          0.7892   -0.6372   -0.8731 C.ar      1 <0>        -0.1108
      4 C4          0.8609   -2.0157   -0.9089 C.ar      1 <0>        -0.0939
      5 C5          0.0825   -2.7729   -0.0430 C.ar      1 <0>         0.1380
      6 C6         -0.7657   -2.1405    0.8563 C.ar      1 <0>        -0.0651
      7 C7         -0.8290   -0.7611    0.8908 C.ar      1 <0>        -0.1107
      8 C8         -1.6124   -2.9582    1.7973 C.3       1 <0>        -0.1091
      9 N1          0.1526   -4.1712   -0.0771 N.pl3     1 <0>        -0.3291
     10 C9          0.1036   -4.9484   -1.1993 C.ar      1 <0>         0.3499
     11 C10         0.2077   -6.2849   -0.7661 C.ar      1 <0>        -0.2784
     12 C11         0.3185   -6.2562    0.6412 C.2       1 <0>         0.1111
     13 N2          0.2912   -5.0139    1.0332 N.2       1 <0>        -0.2312
     14 C12         0.1834   -7.3044   -1.7369 C.ar      1 <0>         0.5220
     15 N3          0.0635   -6.9575   -3.0139 N.ar      1 <0>        -0.5578
     16 C13        -0.0311   -5.6894   -3.3725 C.ar      1 <0>         0.3575
     17 N4         -0.0128   -4.7030   -2.5028 N.ar      1 <0>        -0.5354
     18 N5          0.2822   -8.6324   -1.3708 N.pl3     1 <0>        -0.6637
     19 C14        -0.9248   -9.4483   -1.1807 C.3       1 <0>         0.1490
     20 C15        -0.8088  -10.7089   -2.0435 C.3       1 <0>        -0.1378
     21 C16         0.4979  -11.4323   -1.7096 C.3       1 <0>        -0.1108
     22 C17         1.6841  -10.5189   -2.0270 C.3       1 <0>        -0.1094
     23 H1          1.6581  -10.2418   -3.0809 H         1 <0>         0.0755
     24 C18         1.5965   -9.2578   -1.1700 C.3       1 <0>         0.1545
     25 C19         2.9907  -11.2551   -1.7246 C.3       1 <0>        -0.1468
     26 H2          0.6077    1.8782    0.7629 H         1 <0>         0.0745
     27 H3          0.0699    1.8926   -0.9338 H         1 <0>         0.0700
     28 H4         -1.1286    1.8005    0.3790 H         1 <0>         0.0694
     29 H5          1.3939   -0.0478   -1.5465 H         1 <0>         0.1328
     30 H6          1.5213   -2.5046   -1.6098 H         1 <0>         0.1286
     31 H7         -1.4852   -0.2686    1.5930 H         1 <0>         0.1325
     32 H8         -1.0943   -3.0680    2.7500 H         1 <0>         0.0792
     33 H9         -2.5660   -2.4553    1.9581 H         1 <0>         0.0686
     34 H10        -1.7894   -3.9428    1.3644 H         1 <0>         0.0627
     35 H11         0.4143   -7.1186    1.2842 H         1 <0>         0.2025
     36 H12        -0.1268   -5.4533   -4.4220 H         1 <0>         0.2063
     37 H13        -1.0136   -9.7305   -0.1316 H         1 <0>         0.0623
     38 H14        -1.8029   -8.8779   -1.4834 H         1 <0>         0.0678
     39 H15        -1.6522  -11.3684   -1.8392 H         1 <0>         0.0711
     40 H16        -0.8113  -10.4300   -3.0972 H         1 <0>         0.0689
     41 H17         0.5104  -11.6889   -0.6503 H         1 <0>         0.0631
     42 H18         0.5712  -12.3426   -2.3045 H         1 <0>         0.0633
     43 H19         2.3814   -8.5616   -1.4657 H         1 <0>         0.0670
     44 H20         1.7178   -9.5240   -0.1200 H         1 <0>         0.0620
     45 H21         3.0511  -12.1547   -2.3371 H         1 <0>         0.0586
     46 H22         3.8353  -10.6042   -1.9508 H         1 <0>         0.0550
     47 H23         3.0168  -11.5309   -0.6704 H         1 <0>         0.0565
@<TRIPOS>BOND
     1    1    2 1
     2    1   26 1
     3    1   27 1
     4    1   28 1
     5    2    7 ar
     6    2    3 ar
     7    3    4 ar
     8    3   29 1
     9    4    5 ar
    10    4   30 1
    11    5    6 ar
    12    5    9 1
    13    6    7 ar
    14    6    8 1
    15    7   31 1
    16    8   32 1
    17    8   33 1
    18    8   34 1
    19    9   13 1
    20    9   10 1
    21   10   17 ar
    22   10   11 ar
    23   11   12 1
    24   11   14 ar
    25   12   13 2
    26   12   35 1
    27   14   15 ar
    28   14   18 1
    29   15   16 ar
    30   16   17 ar
    31   16   36 1
    32   18   24 1
    33   18   19 1
    34   19   20 1
    35   19   37 1
    36   19   38 1
    37   20   21 1
    38   20   39 1
    39   20   40 1
    40   21   22 1
    41   21   41 1
    42   21   42 1
    43   22   23 1
    44   22   24 1
    45   22   25 1
    46   24   43 1
    47   24   44 1
    48   25   45 1
    49   25   46 1
    50   25   47 1
@<TRIPOS>MOLECULE
ZINC03946640
   36    39     0     0     0
SMALL
USER_CHARGES

@<TRIPOS>ATOM
      1 C1         -0.0153    1.3806    0.0295 C.ar      1 <0>        -0.1318
      2 C2          0.1396    0.2186    0.7630 C.ar      1 <0>        -0.0995
      3 C3          1.3440   -0.4571    0.7429 C.ar      1 <0>        -0.1213
      4 C4          2.3999    0.0313   -0.0153 C.ar      1 <0>         0.1406
      5 C5          2.2410    1.1983   -0.7511 C.ar      1 <0>        -0.1415
      6 C6          1.0343    1.8696   -0.7265 C.ar      1 <0>        -0.0999
      7 N1          3.6215   -0.6506   -0.0375 N.am      1 <0>        -0.6577
      8 C7          3.6447   -1.9949    0.0568 C.2       1 <0>         0.5782
      9 O1          2.6055   -2.6203    0.0643 O.2       1 <0>        -0.4973
     10 C8          4.9618   -2.7209    0.1528 C.3       1 <0>         0.0275
     11 C9          5.1390   -3.9830   -0.6894 C.3       1 <0>        -0.1372
     12 C10         4.9681   -4.1068    0.8281 C.3       1 <0>        -0.1361
     13 H1          4.0373   -4.5109    1.2263 H         1 <0>         0.1520
     14 C11         6.2450   -4.3911    1.6167 C.2       1 <0>         0.1959
     15 N2          6.2622   -5.1213    2.6850 N.2       1 <0>        -0.3084
     16 O2          5.0621   -5.6957    3.1694 O.3       1 <0>        -0.3974
     17 C12         7.4643   -3.7595    1.0537 C.ar      1 <0>        -0.1042
     18 C13         8.7064   -4.3757    1.1322 C.ar      1 <0>        -0.0520
     19 C14         9.8098   -3.7512    0.5832 C.ar      1 <0>        -0.1360
     20 C15         9.6754   -2.5219   -0.0398 C.ar      1 <0>        -0.0738
     21 C16         8.4432   -1.9006   -0.1186 C.ar      1 <0>        -0.1310
     22 C17         7.3266   -2.5086    0.4303 C.ar      1 <0>         0.1316
     23 O3          6.1067   -1.8978    0.4007 O.3       1 <0>        -0.2754
     24 H2         -0.9593    1.9049    0.0437 H         1 <0>         0.1253
     25 H3         -0.6820   -0.1608    1.3524 H         1 <0>         0.1274
     26 H4          1.4645   -1.3643    1.3165 H         1 <0>         0.1333
     27 H5          3.0605    1.5810   -1.3415 H         1 <0>         0.1273
     28 H6          0.9101    2.7772   -1.2985 H         1 <0>         0.1284
     29 H7          4.4517   -0.1559   -0.1207 H         1 <0>         0.4195
     30 H8          4.3019   -4.2905   -1.3161 H         1 <0>         0.1311
     31 H9          6.1295   -4.1774   -1.1010 H         1 <0>         0.1208
     32 H10         5.1746   -6.2239    3.9715 H         1 <0>         0.4088
     33 H11         8.8088   -5.3349    1.6178 H         1 <0>         0.1373
     34 H12        10.7797   -4.2228    0.6406 H         1 <0>         0.1359
     35 H13        10.5431   -2.0430   -0.4688 H         1 <0>         0.1381
     36 H14         8.3512   -0.9422   -0.6080 H         1 <0>         0.1417
@<TRIPOS>BOND
     1    1    6 ar
     2    1    2 ar
     3    1   24 1
     4    2    3 ar
     5    2   25 1
     6    3    4 ar
     7    3   26 1
     8    4    5 ar
     9    4    7 1
    10    5    6 ar
    11    5   27 1
    12    6   28 1
    13    7    8 am
    14    7   29 1
    15    8    9 2
    16    8   10 1
    17   10   12 1
    18   10   23 1
    19   10   11 1
    20   11   12 1
    21   11   30 1
    22   11   31 1
    23   12   13 1
    24   12   14 1
    25   14   15 2
    26   14   17 1
    27   15   16 1
    28   16   32 1
    29   17   22 ar
    30   17   18 ar
    31   18   19 ar
    32   18   33 1
    33   19   20 ar
    34   19   34 1
    35   20   21 ar
    36   20   35 1
    37   21   22 ar
    38   21   36 1
    39   22   23 1
@<TRIPOS>MOLECULE
ZINC04764850
   35    37     0     0     0
SMALL
USER_CHARGES

@<TRIPOS>ATOM
      1 C1         -0.0184    1.5028    0.0103 C.3       1 <0>        -0.1047
      2 C2          0.0021   -0.0041    0.0020 C.ar      1 <0>         0.0828
      3 C3          0.0057   -0.6942   -1.2236 C.ar      1 <0>         0.3853
      4 N1          0.0240   -2.0141   -1.2490 N.ar      1 <0>        -0.4621
      5 C4          0.0392   -2.6984   -0.0985 C.ar      1 <0>         0.1234
      6 C5          0.0593   -4.1035   -0.0926 C.ar      1 <0>        -0.0971
      7 C6          0.0748   -4.7734    1.0923 C.ar      1 <0>        -0.0872
      8 C7          0.0711   -4.0856    2.3040 C.ar      1 <0>        -0.1168
      9 C8          0.0513   -2.7247    2.3364 C.ar      1 <0>        -0.0684
     10 C9          0.0354   -1.9989    1.1335 C.ar      1 <0>         0.0377
     11 N2          0.0218   -0.6595    1.1370 N.ar      1 <0>        -0.3965
     12 N3         -0.0105    0.0166   -2.4133 N.pl3     1 <0>        -0.5563
     13 N4         -0.0069   -0.6656   -3.6370 N.2       1 <0>        -0.2136
     14 C10        -0.0221    0.0001   -4.7514 C.2       1 <0>         0.0973
     15 C11        -0.0184   -0.7177   -6.0391 C.ar      1 <0>        -0.0619
     16 C12        -0.0043   -2.1149   -6.0625 C.ar      1 <0>        -0.0624
     17 C13        -0.0008   -2.7817   -7.2686 C.ar      1 <0>        -0.1500
     18 C14        -0.0108   -2.0672   -8.4595 C.ar      1 <0>         0.1210
     19 C15        -0.0243   -0.6786   -8.4412 C.ar      1 <0>        -0.1497
     20 C16        -0.0347   -0.0032   -7.2399 C.ar      1 <0>        -0.0741
     21 O1         -0.0069   -2.7288   -9.6462 O.3       1 <0>        -0.4997
     22 H1          1.0042    1.8801    0.0026 H         1 <0>         0.0876
     23 H2         -0.5455    1.8639   -0.8728 H         1 <0>         0.0724
     24 H3         -0.5286    1.8543    0.9071 H         1 <0>         0.0915
     25 H4          0.0621   -4.6497   -1.0243 H         1 <0>         0.1387
     26 H5          0.0899   -5.8533    1.0932 H         1 <0>         0.1353
     27 H6          0.0836   -4.6399    3.2308 H         1 <0>         0.1349
     28 H7          0.0486   -2.2050    3.2831 H         1 <0>         0.1378
     29 H8         -0.0242    0.9864   -2.3988 H         1 <0>         0.3999
     30 H9         -0.0374    1.0799   -4.7352 H         1 <0>         0.1205
     31 H10         0.0042   -2.6712   -5.1369 H         1 <0>         0.1401
     32 H11         0.0100   -3.8614   -7.2877 H         1 <0>         0.1330
     33 H12        -0.0314   -0.1271   -9.3698 H         1 <0>         0.1340
     34 H13        -0.0500    1.0766   -7.2265 H         1 <0>         0.1332
     35 H14        -0.8891   -2.9293   -9.9877 H         1 <0>         0.3942
@<TRIPOS>BOND
     1    1    2 1
     2    1   22 1
     3    1   23 1
     4    1   24 1
     5    2   11 ar
     6    2    3 ar
     7    3    4 ar
     8    3   12 1
     9    4    5 ar
    10    5   10 ar
    11    5    6 ar
    12    6    7 ar
    13    6   25 1
    14    7    8 ar
    15    7   26 1
    16    8    9 ar
    17    8   27 1
    18    9   10 ar
    19    9   28 1
    20   10   11 ar
    21   12   13 1
    22   12   29 1
    23   13   14 2
    24   14   15 1
    25   14   30 1
    26   15   20 ar
    27   15   16 ar
    28   16   17 ar
    29   16   31 1
    30   17   18 ar
    31   17   32 1
    32   18   19 ar
    33   18   21 1
    34   19   20 ar
    35   19   33 1
    36   20   34 1
    37   21   35 1
@<TRIPOS>MOLECULE
ZINC03065515
   25    26     0     0     0
SMALL
USER_CHARGES
N-(3,4-dichlorophenyl)pyridine-2-carboxamide
@<TRIPOS>ATOM
      1 C1          1.1739    1.7917   -0.0121 C.ar      1 <0>        -0.0793
      2 C2         -0.0133    1.0758   -0.0144 C.ar      1 <0>        -0.1423
      3 C3         -1.2186    1.7592   -0.0065 C.ar      1 <0>         0.1007
      4 N1         -1.2496    3.0739    0.0149 N.ar      1 <0>        -0.4608
      5 C4         -0.1363    3.7967    0.0173 C.ar      1 <0>         0.0711
      6 C5          1.1110    3.1760    0.0041 C.ar      1 <0>        -0.1051
      7 C6         -0.2207    5.2755    0.0346 C.2       1 <0>         0.5765
      8 O1          0.7954    5.9421    0.0372 O.2       1 <0>        -0.5057
      9 N2         -1.4244    5.8816    0.0474 N.am      1 <0>        -0.6539
     10 C7         -1.5054    7.2734    0.1613 C.ar      1 <0>         0.1611
     11 C8         -2.5521    7.8540    0.8662 C.ar      1 <0>        -0.1257
     12 C9         -2.6271    9.2280    0.9823 C.ar      1 <0>        -0.0774
     13 C10        -1.6673   10.0276    0.3871 C.ar      1 <0>        -0.0467
     14 C11        -0.6256    9.4522   -0.3211 C.ar      1 <0>        -0.0118
     15 C12        -0.5428    8.0771   -0.4349 C.ar      1 <0>        -0.1046
     16 Cl1         0.5771   10.4584   -1.0660 Cl        1 <0>        -0.0403
     17 Cl2        -1.7687   11.7548    0.5291 Cl        1 <0>        -0.0460
     18 H1          2.1261    1.2822   -0.0222 H         1 <0>         0.1467
     19 H2          0.0011   -0.0040   -0.0268 H         1 <0>         0.1451
     20 H3         -2.1453    1.2047   -0.0133 H         1 <0>         0.1674
     21 H4          2.0160    3.7653    0.0060 H         1 <0>         0.1512
     22 H5         -2.2345    5.3528   -0.0223 H         1 <0>         0.4263
     23 H6         -3.3042    7.2310    1.3273 H         1 <0>         0.1447
     24 H7         -3.4383    9.6792    1.5344 H         1 <0>         0.1495
     25 H8          0.2696    7.6283   -0.9873 H         1 <0>         0.1592
@<TRIPOS>BOND
     1    1    6 ar
     2    1    2 ar
     3    1   18 1
     4    2    3 ar
     5    2   19 1
     6    3    4 ar
     7    3   20 1
     8    4    5 ar
     9    5    6 ar
    10    5    7 1
    11    6   21 1
    12    7    8 2
    13    7    9 am
    14    9   10 1
    15    9   22 1
    16   10   15 ar
    17   10   11 ar
    18   11   12 ar
    19   11   23 1
    20   12   13 ar
    21   12   24 1
    22   13   14 ar
    23   13   17 1
    24   14   15 ar
    25   14   16 1
    26   15   25 1
@<TRIPOS>MOLECULE
ZINC42988961
   28    29     0     0     0
SMALL
USER_CHARGES

@<TRIPOS>ATOM
      1 C1          0.3045    1.3833    1.1758 C.ar      1 <0>        -0.0795
      2 C2          1.3392    2.0601    0.5487 C.ar      1 <0>        -0.1415
      3 C3          2.3600    1.3378   -0.0480 C.ar      1 <0>         0.1012
      4 N1          2.3590    0.0227   -0.0265 N.ar      1 <0>        -0.4605
      5 C4          1.3876   -0.6633    0.5630 C.ar      1 <0>         0.0702
      6 C5          0.3293   -0.0022    1.1829 C.ar      1 <0>        -0.1047
      7 C6          1.4290   -2.1440    0.5617 C.2       1 <0>         0.5793
      8 O1          0.5422   -2.7771    1.1000 O.2       1 <0>        -0.5090
      9 N2          2.4501   -2.7891   -0.0363 N.am      1 <0>        -0.6537
     10 C7          2.5409   -4.1831    0.0457 C.ar      1 <0>         0.1348
     11 C8          1.3873   -4.9567    0.0408 C.ar      1 <0>        -0.0602
     12 C9          1.4792   -6.3321    0.1213 C.ar      1 <0>        -0.1325
     13 C10         2.7205   -6.9404    0.2073 C.ar      1 <0>         0.1388
     14 C11         3.8717   -6.1711    0.2127 C.ar      1 <0>        -0.2027
     15 C12         3.7846   -4.7953    0.1261 C.ar      1 <0>        -0.0683
     16 C13         5.2210   -6.8357    0.3069 C.3       1 <0>         0.5150
     17 F1          6.2234   -5.8599    0.2944 F         1 <0>        -0.1725
     18 F2          5.2980   -7.5683    1.4962 F         1 <0>        -0.1699
     19 F3          5.3941   -7.6960   -0.7827 F         1 <0>        -0.1701
     20 F4          2.8082   -8.2862    0.2864 F         1 <0>        -0.1213
     21 H1         -0.5004    1.9237    1.6518 H         1 <0>         0.1468
     22 H2          1.3493    3.1398    0.5252 H         1 <0>         0.1454
     23 H3          3.1675    1.8618   -0.5376 H         1 <0>         0.1677
     24 H4         -0.4602   -0.5617    1.6625 H         1 <0>         0.1513
     25 H5          3.1220   -2.2871   -0.5236 H         1 <0>         0.4265
     26 H6          0.4191   -4.4827   -0.0255 H         1 <0>         0.1599
     27 H7          0.5824   -6.9340    0.1176 H         1 <0>         0.1553
     28 H8          4.6830   -4.1959    0.1256 H         1 <0>         0.1542
@<TRIPOS>BOND
     1    1    6 ar
     2    1    2 ar
     3    1   21 1
     4    2    3 ar
     5    2   22 1
     6    3    4 ar
     7    3   23 1
     8    4    5 ar
     9    5    6 ar
    10    5    7 1
    11    6   24 1
    12    7    8 2
    13    7    9 am
    14    9   10 1
    15    9   25 1
    16   10   15 ar
    17   10   11 ar
    18   11   12 ar
    19   11   26 1
    20   12   13 ar
    21   12   27 1
    22   13   14 ar
    23   13   20 1
    24   14   15 ar
    25   14   16 1
    26   15   28 1
    27   16   17 1
    28   16   18 1
    29   16   19 1
@<TRIPOS>MOLECULE
ZINC00362857
   23    24     0     0     0
SMALL
USER_CHARGES
5-bromo-N-(3,4-dichlorophenyl)-furan-2-carboxamide
@<TRIPOS>ATOM
      1 C1          1.1184    7.8904    0.8297 C.ar      1 <0>        -0.1236
      2 C2          1.8826    9.0362    0.9363 C.ar      1 <0>        -0.0771
      3 C3          3.1264    9.0984    0.3339 C.ar      1 <0>        -0.0441
      4 C4          3.6118    8.0099   -0.3721 C.ar      1 <0>        -0.0120
      5 C5          2.8537    6.8592   -0.4764 C.ar      1 <0>        -0.1027
      6 C6          1.6045    6.7953    0.1275 C.ar      1 <0>         0.1584
      7 N1          0.8349    5.6319    0.0237 N.am      1 <0>        -0.6613
      8 C7          1.4355    4.4253    0.0134 C.2       1 <0>         0.6091
      9 O1          2.6504    4.3502    0.0095 O.2       1 <0>        -0.4870
     10 C8          0.6259    3.2041    0.0068 C.2       1 <0>        -0.0652
     11 C9          1.1039    1.9243   -0.0037 C.2       1 <0>        -0.1019
     12 C10        -0.0132    1.0760   -0.0076 C.2       1 <0>        -0.1640
     13 C11        -1.1125    1.8651   -0.0053 C.2       1 <0>         0.0038
     14 O2         -0.7225    3.1466    0.0093 O.3       1 <0>        -0.1487
     15 Br1        -2.9036    1.2588   -0.0167 Br        1 <0>         0.0719
     16 Cl1         5.1735    8.0911   -1.1259 Cl        1 <0>        -0.0377
     17 Cl2         4.0807   10.5428    0.4633 Cl        1 <0>        -0.0436
     18 H1          0.1455    7.8445    1.2963 H         1 <0>         0.1451
     19 H2          1.5066    9.8861    1.4864 H         1 <0>         0.1506
     20 H3          3.2319    6.0106   -1.0271 H         1 <0>         0.1602
     21 H4         -0.1309    5.6934   -0.0408 H         1 <0>         0.4218
     22 H5          2.1413    1.6238   -0.0082 H         1 <0>         0.1747
     23 H6          0.0013   -0.0039   -0.0156 H         1 <0>         0.1732
@<TRIPOS>BOND
     1    1    6 ar
     2    1    2 ar
     3    1   18 1
     4    2    3 ar
     5    2   19 1
     6    3    4 ar
     7    3   17 1
     8    4    5 ar
     9    4   16 1
    10    5    6 ar
    11    5   20 1
    12    6    7 1
    13    7    8 am
    14    7   21 1
    15    8    9 2
    16    8   10 1
    17   10   14 1
    18   10   11 2
    19   11   12 1
    20   11   22 1
    21   12   13 2
    22   12   23 1
    23   13   14 1
    24   13   15 1
@<TRIPOS>MOLECULE
ZINC00362766
   25    26     0     0     0
SMALL
USER_CHARGES
N-(3-chlorophenyl)pyridine-2-carboxamide
@<TRIPOS>ATOM
      1 C1          1.1930    1.8207   -0.3265 C.ar      1 <0>        -0.0795
      2 C2          0.0288    1.0916   -0.1394 C.ar      1 <0>        -0.1433
      3 C3         -1.1713    1.7615    0.0359 C.ar      1 <0>         0.1002
      4 N1         -1.2171    3.0760    0.0386 N.ar      1 <0>        -0.4608
      5 C4         -0.1261    3.8110   -0.1376 C.ar      1 <0>         0.0719
      6 C5          1.1139    3.2042   -0.3255 C.ar      1 <0>        -0.1061
      7 C6         -0.2277    5.2888   -0.1339 C.2       1 <0>         0.5747
      8 O1          0.7681    5.9667   -0.2944 O.2       1 <0>        -0.5064
      9 N2         -1.4244    5.8816    0.0474 N.am      1 <0>        -0.6547
     10 C7         -1.5054    7.2729    0.1613 C.ar      1 <0>         0.1584
     11 C8         -2.6180    7.9475   -0.3256 C.ar      1 <0>        -0.1392
     12 C9         -2.6955    9.3216   -0.2120 C.ar      1 <0>        -0.0853
     13 C10        -1.6673   10.0268    0.3862 C.ar      1 <0>        -0.1253
     14 C11        -0.5574    9.3584    0.8724 C.ar      1 <0>        -0.0145
     15 C12        -0.4765    7.9824    0.7663 C.ar      1 <0>        -0.1159
     16 Cl1         0.7308   10.2477    1.6231 Cl        1 <0>        -0.0628
     17 H1          2.1401    1.3217   -0.4694 H         1 <0>         0.1464
     18 H2          0.0563    0.0120   -0.1348 H         1 <0>         0.1448
     19 H3         -2.0809    1.1966    0.1774 H         1 <0>         0.1671
     20 H4          2.0008    3.8036   -0.4688 H         1 <0>         0.1509
     21 H5         -2.2295    5.3431    0.0990 H         1 <0>         0.4243
     22 H6         -3.4219    7.3977   -0.7923 H         1 <0>         0.1344
     23 H7         -3.5604    9.8461   -0.5905 H         1 <0>         0.1390
     24 H8         -1.7308   11.1013    0.4744 H         1 <0>         0.1364
     25 H9          0.3876    7.4604    1.1501 H         1 <0>         0.1451
@<TRIPOS>BOND
     1    1    6 ar
     2    1    2 ar
     3    1   17 1
     4    2    3 ar
     5    2   18 1
     6    3    4 ar
     7    3   19 1
     8    4    5 ar
     9    5    6 ar
    10    5    7 1
    11    6   20 1
    12    7    8 2
    13    7    9 am
    14    9   10 1
    15    9   21 1
    16   10   15 ar
    17   10   11 ar
    18   11   12 ar
    19   11   22 1
    20   12   13 ar
    21   12   23 1
    22   13   14 ar
    23   13   24 1
    24   14   15 ar
    25   14   16 1
    26   15   25 1
@<TRIPOS>MOLECULE
ZINC03326915
   29    30     0     0     0
SMALL
USER_CHARGES
N-(3-chloro-4-methoxy-phenyl)pyridine-2-carboxamide
@<TRIPOS>ATOM
      1 C1         -0.2645   12.0672   -0.3798 C.3       1 <0>         0.0246
      2 O1         -1.5243   11.4007   -0.2761 O.3       1 <0>        -0.3042
      3 C2         -1.5000   10.0434   -0.1967 C.ar      1 <0>         0.1263
      4 C3         -0.2879    9.3693   -0.2179 C.ar      1 <0>        -0.1787
      5 C4         -0.2619    7.9914   -0.1312 C.ar      1 <0>        -0.0944
      6 C5         -1.4502    7.2791   -0.0342 C.ar      1 <0>         0.1161
      7 C6         -2.6636    7.9537   -0.0129 C.ar      1 <0>        -0.0745
      8 C7         -2.6881    9.3330   -0.0941 C.ar      1 <0>        -0.0517
      9 Cl1        -4.2048   10.1773   -0.0681 Cl        1 <0>        -0.0485
     10 N1         -1.4244    5.8816    0.0479 N.am      1 <0>        -0.6510
     11 C8         -2.3994    5.1543   -0.5324 C.2       1 <0>         0.5741
     12 O2         -3.3448    5.7120   -1.0542 O.2       1 <0>        -0.5098
     13 C9         -2.3188    3.6752   -0.5342 C.ar      1 <0>         0.0732
     14 C10        -3.3301    2.9290   -1.1357 C.ar      1 <0>        -0.1063
     15 C11        -3.2405    1.5461   -1.1298 C.ar      1 <0>        -0.0796
     16 C12        -2.1423    0.9572   -0.5222 C.ar      1 <0>        -0.1440
     17 C13        -1.1768    1.7612    0.0618 C.ar      1 <0>         0.1000
     18 N2         -1.2837    3.0718    0.0369 N.ar      1 <0>        -0.4611
     19 H1          0.2518   11.7305   -1.2788 H         1 <0>         0.0579
     20 H2         -0.4264   13.1437   -0.4355 H         1 <0>         0.1041
     21 H3          0.3421   11.8359    0.4957 H         1 <0>         0.0581
     22 H4          0.6361    9.9226   -0.2978 H         1 <0>         0.1434
     23 H5          0.6824    7.4673   -0.1429 H         1 <0>         0.1376
     24 H6         -3.5879    7.4007    0.0673 H         1 <0>         0.1570
     25 H7         -0.7047    5.4369    0.5225 H         1 <0>         0.4234
     26 H8         -4.1719    3.4213   -1.5998 H         1 <0>         0.1510
     27 H9         -4.0085    0.9410   -1.5884 H         1 <0>         0.1460
     28 H10        -2.0426   -0.1180   -0.5005 H         1 <0>         0.1444
     29 H11        -0.3225    1.3055    0.5402 H         1 <0>         0.1666
@<TRIPOS>BOND
     1    1    2 1
     2    1   19 1
     3    1   20 1
     4    1   21 1
     5    2    3 1
     6    3    8 ar
     7    3    4 ar
     8    4    5 ar
     9    4   22 1
    10    5    6 ar
    11    5   23 1
    12    6    7 ar
    13    6   10 1
    14    7    8 ar
    15    7   24 1
    16    8    9 1
    17   10   11 am
    18   10   25 1
    19   11   12 2
    20   11   13 1
    21   13   18 ar
    22   13   14 ar
    23   14   15 ar
    24   14   26 1
    25   15   16 ar
    26   15   27 1
    27   16   17 ar
    28   16   28 1
    29   17   18 ar
    30   17   29 1
@<TRIPOS>MOLECULE
ZINC43122151
   29    30     0     0     0
SMALL
USER_CHARGES

@<TRIPOS>ATOM
      1 C1         -0.0208    1.4088    0.0075 C.3       1 <0>         0.0240
      2 O1          0.0094   -0.0198   -0.0012 O.3       1 <0>        -0.3014
      3 C2          0.6366   -0.6301    1.0388 C.ar      1 <0>         0.1576
      4 C3          1.2052    0.1303    2.0484 C.ar      1 <0>        -0.2233
      5 C4          1.8445   -0.4959    3.1093 C.ar      1 <0>         0.1880
      6 C5          1.9128   -1.8827    3.1566 C.ar      1 <0>        -0.1465
      7 C6          1.3451   -2.6378    2.1488 C.ar      1 <0>        -0.0524
      8 C7          0.7031   -2.0160    1.0935 C.ar      1 <0>        -0.0828
      9 Cl1        -0.0153   -2.9690   -0.1673 Cl        1 <0>        -0.0547
     10 N1          2.4198    0.2685    4.1297 N.am      1 <0>        -0.6551
     11 C8          2.3990   -0.1793    5.4007 C.2       1 <0>         0.5769
     12 O2          1.9561   -1.2835    5.6487 O.2       1 <0>        -0.5053
     13 C9          2.9159    0.6745    6.4953 C.ar      1 <0>         0.0716
     14 C10         2.8968    0.2035    7.8064 C.ar      1 <0>        -0.1056
     15 C11         3.3839    1.0137    8.8198 C.ar      1 <0>        -0.0794
     16 C12         3.8732    2.2673    8.4866 C.ar      1 <0>        -0.1430
     17 C13         3.8615    2.6708    7.1612 C.ar      1 <0>         0.1003
     18 N2          3.3983    1.8795    6.2182 N.ar      1 <0>        -0.4613
     19 H1          0.9989    1.7939    0.0013 H         1 <0>         0.0585
     20 H2         -0.5496    1.7665   -0.8760 H         1 <0>         0.1053
     21 H3         -0.5348    1.7559    0.9039 H         1 <0>         0.0579
     22 H4          1.1512    1.2082    2.0095 H         1 <0>         0.1417
     23 H5          2.4104   -2.3707    3.9816 H         1 <0>         0.1503
     24 H6          1.3992   -3.7158    2.1872 H         1 <0>         0.1457
     25 H7          2.8338    1.1210    3.9225 H         1 <0>         0.4235
     26 H8          2.5077   -0.7788    8.0299 H         1 <0>         0.1513
     27 H9          3.3819    0.6764    9.8457 H         1 <0>         0.1465
     28 H10         4.2596    2.9231    9.2528 H         1 <0>         0.1449
     29 H11         4.2417    3.6469    6.8982 H         1 <0>         0.1669
@<TRIPOS>BOND
     1    1    2 1
     2    1   19 1
     3    1   20 1
     4    1   21 1
     5    2    3 1
     6    3    8 ar
     7    3    4 ar
     8    4    5 ar
     9    4   22 1
    10    5    6 ar
    11    5   10 1
    12    6    7 ar
    13    6   23 1
    14    7    8 ar
    15    7   24 1
    16    8    9 1
    17   10   11 am
    18   10   25 1
    19   11   12 2
    20   11   13 1
    21   13   18 ar
    22   13   14 ar
    23   14   15 ar
    24   14   26 1
    25   15   16 ar
    26   15   27 1
    27   16   17 ar
    28   16   28 1
    29   17   18 ar
    30   17   29 1
@<TRIPOS>MOLECULE
ZINC07306536
   28    29     0     0     0
SMALL
USER_CHARGES
N-[4-chloro-3-(trifluoromethyl)phenyl]pyridine-2-carboxamide
@<TRIPOS>ATOM
      1 C1          0.7009    1.7992   -1.4704 C.ar      1 <0>        -0.0794
      2 C2         -0.2068    1.0815   -0.7070 C.ar      1 <0>        -0.1413
      3 C3         -1.1663    1.7619    0.0253 C.ar      1 <0>         0.1013
      4 N1         -1.2195    3.0760    0.0128 N.ar      1 <0>        -0.4604
      5 C4         -0.3695    3.8004   -0.7045 C.ar      1 <0>         0.0697
      6 C5          0.6179    3.1826   -1.4689 C.ar      1 <0>        -0.1046
      7 C6         -0.4713    5.2782   -0.6917 C.2       1 <0>         0.5789
      8 O1          0.3045    5.9464   -1.3463 O.2       1 <0>        -0.5062
      9 N2         -1.4244    5.8816    0.0458 N.am      1 <0>        -0.6548
     10 C7         -1.4526    7.2765    0.1461 C.ar      1 <0>         0.1538
     11 C8         -0.2661    7.9988    0.1372 C.ar      1 <0>        -0.0787
     12 C9         -0.2970    9.3761    0.2312 C.ar      1 <0>        -0.0868
     13 C10        -1.5082   10.0362    0.3456 C.ar      1 <0>        -0.0087
     14 C11        -2.6913    9.3188    0.3600 C.ar      1 <0>        -0.1563
     15 C12        -2.6664    7.9413    0.2606 C.ar      1 <0>        -0.0868
     16 C13        -4.0081   10.0409    0.4838 C.3       1 <0>         0.5113
     17 F1         -5.0529    9.1105    0.4750 F         1 <0>        -0.1739
     18 F2         -4.0345   10.7604    1.6833 F         1 <0>        -0.1677
     19 F3         -4.1595   10.9223   -0.5920 F         1 <0>        -0.1675
     20 Cl1        -1.5431   11.7673    0.4708 Cl        1 <0>        -0.0401
     21 H1          1.4558    1.2919   -2.0527 H         1 <0>         0.1470
     22 H2         -0.1692    0.0023   -0.6867 H         1 <0>         0.1455
     23 H3         -1.8776    1.2056    0.6178 H         1 <0>         0.1678
     24 H4          1.3086    3.7733   -2.0524 H         1 <0>         0.1513
     25 H5         -2.0908    5.3487    0.5070 H         1 <0>         0.4267
     26 H6          0.6795    7.4840    0.0525 H         1 <0>         0.1542
     27 H7          0.6249    9.9385    0.2198 H         1 <0>         0.1525
     28 H8         -3.5901    7.3818    0.2723 H         1 <0>         0.1533
@<TRIPOS>BOND
     1    1    6 ar
     2    1    2 ar
     3    1   21 1
     4    2    3 ar
     5    2   22 1
     6    3    4 ar
     7    3   23 1
     8    4    5 ar
     9    5    6 ar
    10    5    7 1
    11    6   24 1
    12    7    8 2
    13    7    9 am
    14    9   10 1
    15    9   25 1
    16   10   15 ar
    17   10   11 ar
    18   11   12 ar
    19   11   26 1
    20   12   13 ar
    21   12   27 1
    22   13   14 ar
    23   13   20 1
    24   14   15 ar
    25   14   16 1
    26   15   28 1
    27   16   17 1
    28   16   18 1
    29   16   19 1
@<TRIPOS>MOLECULE
ZINC01482113
   18    17     0     0     0
SMALL
USER_CHARGES

@<TRIPOS>ATOM
      1 C1         -0.0187    1.5258    0.0104 C.3       1 <0>        -0.1000
      2 C2          0.0021   -0.0041    0.0020 C.3       1 <0>        -0.1962
      3 C3         -1.4117   -0.5257    0.0127 C.2       1 <0>         0.4893
      4 O1         -2.3491    0.2539    0.0259 O.co2     1 <0>        -0.6870
      5 O2         -1.6182   -1.7273    0.0082 O.co2     1 <0>        -0.7019
      6 C4          1.4167    2.0553   -0.0004 C.3       1 <0>        -0.0520
      7 H1          1.9535    1.6326   -0.8497 H         1 <0>         0.1269
      8 C5          1.3970    3.5578   -0.1160 C.2       1 <0>         0.4945
      9 O3          1.7295    4.2467    0.8334 O.co2     1 <0>        -0.6861
     10 O4          1.0484    4.0844   -1.1589 O.co2     1 <0>        -0.6413
     11 N1          2.0906    1.6690    1.2464 N.4       1 <0>        -0.6105
     12 H2         -0.5459    1.8868   -0.8726 H         1 <0>         0.1064
     13 H3         -0.5289    1.8773    0.9072 H         1 <0>         0.0773
     14 H4          0.5123   -0.3556   -0.8948 H         1 <0>         0.0672
     15 H5          0.5293   -0.3651    0.8851 H         1 <0>         0.0471
     16 H6          2.1039    0.6630    1.3237 H         1 <0>         0.4141
     17 H7          3.0372    2.0182    1.2392 H         1 <0>         0.4227
     18 H8          1.5937    2.0603    2.0325 H         1 <0>         0.4293
@<TRIPOS>BOND
     1    1    2 1
     2    1    6 1
     3    1   12 1
     4    1   13 1
     5    2    3 1
     6    2   14 1
     7    2   15 1
     8    3    4 2
     9    3    5 1
    10    6    7 1
    11    6    8 1
    12    6   11 1
    13    8    9 2
    14    8   10 1
    15   11   16 1
    16   11   17 1
    17   11   18 1
@<TRIPOS>MOLECULE
ZINC06328639
   32    33     0     0     0
SMALL
USER_CHARGES
6-[(3,5-dichlorophenyl)carbamoyl]cyclohex-3-ene-1-carboxylic acid
@<TRIPOS>ATOM
      1 C1         -0.8225    4.2485    2.1589 C.ar      1 <0>        -0.1417
      2 C2         -0.2242    3.5828    1.0973 C.ar      1 <0>         0.1953
      3 C3          0.2677    4.3039    0.0174 C.ar      1 <0>        -0.1113
      4 C4          0.1513    5.6812   -0.0031 C.ar      1 <0>        -0.0034
      5 C5         -0.4457    6.3421    1.0560 C.ar      1 <0>        -0.1324
      6 C6         -0.9320    5.6263    2.1357 C.ar      1 <0>        -0.0035
      7 Cl1        -1.6798    6.4593    3.4626 Cl        1 <0>        -0.0638
      8 Cl2         0.7607    6.5830   -1.3556 Cl        1 <0>        -0.0608
      9 N1         -0.1122    2.1882    1.1182 N.am      1 <0>        -0.6537
     10 C7         -0.2286    1.4855   -0.0259 C.2       1 <0>         0.5403
     11 O1         -0.3538    2.0655   -1.0837 O.2       1 <0>        -0.5240
     12 C8         -0.2094   -0.0210    0.0097 C.3       1 <0>        -0.0865
     13 H1         -0.4437   -0.3666    1.0165 H         1 <0>         0.0926
     14 C9         -1.2414   -0.5720   -0.9766 C.3       1 <0>        -0.0690
     15 C10        -0.7920   -0.3249   -2.3869 C.2       1 <0>        -0.1607
     16 C11         0.4234   -0.0287   -2.7194 C.2       1 <0>        -0.1258
     17 C12         1.5509    0.1184   -1.7400 C.3       1 <0>        -0.0711
     18 C13         1.1774   -0.5289   -0.4049 C.3       1 <0>        -0.1179
     19 H2          1.1519   -1.6127   -0.5179 H         1 <0>         0.0851
     20 C14         2.1906   -0.1484    0.6438 C.2       1 <0>         0.4675
     21 O2          1.8435    0.4664    1.6243 O.co2     1 <0>        -0.6407
     22 H3         -1.2022    3.6902    3.0019 H         1 <0>         0.1417
     23 H4          0.7377    3.7888   -0.8074 H         1 <0>         0.1563
     24 H5         -0.5319    7.4186    1.0399 H         1 <0>         0.1405
     25 H6          0.0493    1.7271    1.9563 H         1 <0>         0.4275
     26 H7         -1.3574   -1.6440   -0.8169 H         1 <0>         0.0776
     27 H8         -2.1984   -0.0767   -0.8124 H         1 <0>         0.0664
     28 H9         -1.5285   -0.3985   -3.1733 H         1 <0>         0.0953
     29 H10         0.6396    0.1215   -3.7668 H         1 <0>         0.0948
     30 H11         2.4421   -0.3657   -2.1396 H         1 <0>         0.0746
     31 H12         1.7555    1.1771   -1.5810 H         1 <0>         0.0695
     32 O3          3.4787   -0.4924    0.4885 O.co2     1 <0>        -0.7590
@<TRIPOS>BOND
     1    1    6 ar
     2    1    2 ar
     3    1   22 1
     4    2    3 ar
     5    2    9 1
     6    3    4 ar
     7    3   23 1
     8    4    5 ar
     9    4    8 1
    10    5    6 ar
    11    5   24 1
    12    6    7 1
    13    9   10 am
    14    9   25 1
    15   10   11 2
    16   10   12 1
    17   12   13 1
    18   12   18 1
    19   12   14 1
    20   14   15 1
    21   14   26 1
    22   14   27 1
    23   15   16 2
    24   15   28 1
    25   16   17 1
    26   16   29 1
    27   17   18 1
    28   17   30 1
    29   17   31 1
    30   18   19 1
    31   18   20 1
    32   20   21 2
    33   20   32 1
@<TRIPOS>MOLECULE
ZINC00461742
   34    35     0     0     0
SMALL
USER_CHARGES
2-[(3,5-dichlorophenyl)carbamoyl]cyclohexane-1-carboxylic acid
@<TRIPOS>ATOM
      1 C1          0.0586    1.2252   -0.5862 C.ar      1 <0>        -0.1442
      2 C2          1.1805    1.7875    0.0082 C.ar      1 <0>         0.1901
      3 C3          1.0880    3.0278    0.6256 C.ar      1 <0>        -0.1091
      4 C4         -0.1200    3.6995    0.6472 C.ar      1 <0>        -0.0032
      5 C5         -1.2367    3.1366    0.0545 C.ar      1 <0>        -0.1297
      6 C6         -1.1457    1.9035   -0.5669 C.ar      1 <0>        -0.0062
      7 Cl1        -2.5469    1.2047   -1.3165 Cl        1 <0>        -0.0642
      8 Cl2        -0.2365    5.2502    1.4189 Cl        1 <0>        -0.0550
      9 N1          2.4021    1.1058   -0.0154 N.am      1 <0>        -0.6830
     10 C7          3.5558    1.7939   -0.1245 C.2       1 <0>         0.5361
     11 O1          3.5416    3.0067   -0.1176 O.2       1 <0>        -0.4776
     12 C8          4.8636    1.0565   -0.2550 C.3       1 <0>        -0.0819
     13 H1          5.0146    0.4266    0.6216 H         1 <0>         0.0968
     14 C9          4.8337    0.1836   -1.5113 C.3       1 <0>        -0.1115
     15 C10         4.6218    1.0678   -2.7418 C.3       1 <0>        -0.1196
     16 C11         5.7675    2.0762   -2.8486 C.3       1 <0>        -0.1186
     17 C12         5.7974    2.9491   -1.5924 C.3       1 <0>        -0.1107
     18 C13         6.0093    2.0649   -0.3619 C.3       1 <0>        -0.1106
     19 H2          6.9552    1.5315   -0.4563 H         1 <0>         0.0731
     20 C14         6.0387    2.9247    0.8755 C.2       1 <0>         0.4766
     21 O2          5.2267    2.7489    1.7527 O.co2     1 <0>        -0.6370
     22 H3          0.1279    0.2606   -1.0670 H         1 <0>         0.1399
     23 H4          1.9592    3.4675    1.0883 H         1 <0>         0.1656
     24 H5         -2.1797    3.6627    0.0731 H         1 <0>         0.1409
     25 H6          2.4187    0.1379    0.0467 H         1 <0>         0.4089
     26 H7          5.7796   -0.3498   -1.6057 H         1 <0>         0.0736
     27 H8          4.0175   -0.5348   -1.4352 H         1 <0>         0.0596
     28 H9          3.6759    1.6012   -2.6473 H         1 <0>         0.0568
     29 H10         4.6005    0.4460   -3.6367 H         1 <0>         0.0587
     30 H11         5.6165    2.7062   -3.7252 H         1 <0>         0.0552
     31 H12         6.7133    1.5429   -2.9430 H         1 <0>         0.0571
     32 H13         4.8515    3.4825   -1.4979 H         1 <0>         0.0813
     33 H14         6.6136    3.6675   -1.6685 H         1 <0>         0.0656
     34 O3          6.9671    3.8857    1.0030 O.co2     1 <0>        -0.7737
@<TRIPOS>BOND
     1    1    6 ar
     2    1    2 ar
     3    1   22 1
     4    2    3 ar
     5    2    9 1
     6    3    4 ar
     7    3   23 1
     8    4    5 ar
     9    4    8 1
    10    5    6 ar
    11    5   24 1
    12    6    7 1
    13    9   10 am
    14    9   25 1
    15   10   11 2
    16   10   12 1
    17   12   13 1
    18   12   18 1
    19   12   14 1
    20   14   15 1
    21   14   26 1
    22   14   27 1
    23   15   16 1
    24   15   28 1
    25   15   29 1
    26   16   17 1
    27   16   30 1
    28   16   31 1
    29   17   18 1
    30   17   32 1
    31   17   33 1
    32   18   19 1
    33   18   20 1
    34   20   21 2
    35   20   34 1
@<TRIPOS>MOLECULE
ZINC00895124
   18    17     0     0     0
SMALL
USER_CHARGES

@<TRIPOS>ATOM
      1 C1         -0.0187    1.5258    0.0104 C.3       1 <0>        -0.1010
      2 C2          0.0021   -0.0041    0.0020 C.3       1 <0>        -0.1959
      3 C3         -1.4117   -0.5257    0.0127 C.2       1 <0>         0.4893
      4 O1         -2.3491    0.2539    0.0259 O.co2     1 <0>        -0.6871
      5 O2         -1.6182   -1.7273    0.0082 O.co2     1 <0>        -0.7016
      6 C4          1.4167    2.0553   -0.0004 C.3       1 <0>        -0.0510
      7 H1          1.9696    1.6236    0.8338 H         1 <0>         0.1263
      8 C5          1.3993    3.5565    0.1316 C.2       1 <0>         0.4931
      9 O3          1.4342    4.0717    1.2361 O.co2     1 <0>        -0.6465
     10 O4          1.3504    4.2557   -0.8660 O.co2     1 <0>        -0.6784
     11 N1          2.0667    1.6824   -1.2639 N.4       1 <0>        -0.6121
     12 H2         -0.5459    1.8868   -0.8726 H         1 <0>         0.0805
     13 H3         -0.5289    1.8773    0.9072 H         1 <0>         0.1026
     14 H4          0.5123   -0.3556   -0.8948 H         1 <0>         0.0475
     15 H5          0.5293   -0.3651    0.8851 H         1 <0>         0.0673
     16 H6          3.0133    2.0317   -1.2711 H         1 <0>         0.4211
     17 H7          2.0783    0.6774   -1.3524 H         1 <0>         0.4148
     18 H8          1.5549    2.0821   -2.0362 H         1 <0>         0.4310
@<TRIPOS>BOND
     1    1    2 1
     2    1    6 1
     3    1   12 1
     4    1   13 1
     5    2    3 1
     6    2   14 1
     7    2   15 1
     8    3    4 2
     9    3    5 1
    10    6    7 1
    11    6    8 1
    12    6   11 1
    13    8    9 2
    14    8   10 1
    15   11   16 1
    16   11   17 1
    17   11   18 1
