@<TRIPOS>MOLECULE
ZINC00122236
   28    30     0     0     0
SMALL
USER_CHARGES

@<TRIPOS>ATOM
      1 C1          1.0889   -0.4658    0.7439 C.ar      1 <0>        -0.0858
      2 C2          2.2775    0.2379    0.7310 C.ar      1 <0>        -0.1057
      3 C3          2.3813    1.4101   -0.0067 C.ar      1 <0>         0.1615
      4 C4          1.2887    1.8715   -0.7297 C.ar      1 <0>        -0.1388
      5 C5          0.1022    1.1631   -0.7129 C.ar      1 <0>        -0.0151
      6 C6          0.0027   -0.0048    0.0236 C.ar      1 <0>        -0.1223
      7 Cl1        -1.2645    1.7385   -1.6154 Cl        1 <0>        -0.0628
      8 N1          3.5828    2.1244   -0.0212 N.pl3     1 <0>        -0.6354
      9 C7          4.7851    1.4537    0.0679 C.ar      1 <0>         0.4738
     10 C8          6.0073    2.1619    0.1732 C.ar      1 <0>        -0.1905
     11 C9          6.0577    3.5600    0.1922 C.ar      1 <0>        -0.0387
     12 C10         7.2651    4.1875    0.2958 C.ar      1 <0>        -0.1017
     13 C11         8.4464    3.4547    0.3824 C.ar      1 <0>        -0.0528
     14 C12         8.4303    2.0918    0.3666 C.ar      1 <0>        -0.0958
     15 C13         7.2074    1.4153    0.2618 C.ar      1 <0>         0.2002
     16 N2          7.1360    0.0758    0.2423 N.ar      1 <0>        -0.5430
     17 C14         5.9751   -0.5270    0.1431 C.ar      1 <0>         0.3536
     18 N3          4.8278    0.1281    0.0629 N.ar      1 <0>        -0.5794
     19 Br1         7.3353    6.0771    0.3216 Br        1 <0>        -0.0356
     20 H1          1.0095   -1.3797    1.3139 H         1 <0>         0.1383
     21 H2          3.1253   -0.1230    1.2943 H         1 <0>         0.1441
     22 H3          1.3661    2.7829   -1.3040 H         1 <0>         0.1360
     23 H4         -0.9254   -0.5569    0.0355 H         1 <0>         0.1362
     24 H5          3.5712    3.0916   -0.0938 H         1 <0>         0.4232
     25 H6          5.1479    4.1382    0.1249 H         1 <0>         0.1363
     26 H7          9.3898    3.9743    0.4630 H         1 <0>         0.1458
     27 H8          9.3542    1.5367    0.4346 H         1 <0>         0.1525
     28 H9          5.9544   -1.6067    0.1300 H         1 <0>         0.2020
@<TRIPOS>BOND
     1    1    6 ar
     2    1    2 ar
     3    1   20 1
     4    2    3 ar
     5    2   21 1
     6    3    4 ar
     7    3    8 1
     8    4    5 ar
     9    4   22 1
    10    5    6 ar
    11    5    7 1
    12    6   23 1
    13    8    9 1
    14    8   24 1
    15    9   18 ar
    16    9   10 ar
    17   10   15 ar
    18   10   11 ar
    19   11   12 ar
    20   11   25 1
    21   12   13 ar
    22   12   19 1
    23   13   14 ar
    24   13   26 1
    25   14   15 ar
    26   14   27 1
    27   15   16 ar
    28   16   17 ar
    29   17   18 ar
    30   17   28 1
@<TRIPOS>MOLECULE
ZINC18222880
   49    52     0     0     0
SMALL
USER_CHARGES
[3-(2-phenylethynyl)phenyl]-[4-(2-pyridyl)piperazin-1-yl]methanone
@<TRIPOS>ATOM
      1 C1         12.0073    1.6471   -5.1592 C.ar      1 <0>        -0.1073
      2 C2         11.1433    2.3164   -4.3104 C.ar      1 <0>        -0.1188
      3 C3         10.3221    1.6082   -3.4582 C.ar      1 <0>        -0.0932
      4 C4         10.3641    0.2115   -3.4533 C.ar      1 <0>         0.0077
      5 C5         11.2392   -0.4574   -4.3132 C.ar      1 <0>        -0.0932
      6 C6         12.0544    0.2641   -5.1599 C.ar      1 <0>        -0.1189
      7 C7          9.5142   -0.5308   -2.5716 C.1       1 <0>        -0.1027
      8 C8          8.8175   -1.1393   -1.8488 C.1       1 <0>        -0.1221
      9 C9          7.9676   -1.8815   -0.9671 C.ar      1 <0>         0.0125
     10 C10         7.0924   -1.2106   -0.1071 C.ar      1 <0>        -0.0710
     11 C11         6.2726   -1.9252    0.7427 C.ar      1 <0>        -0.1190
     12 C12         6.3102   -3.3059    0.7503 C.ar      1 <0>        -0.0547
     13 C13         7.1796   -3.9893   -0.1028 C.ar      1 <0>        -0.1293
     14 C14         8.0063   -3.2757   -0.9677 C.ar      1 <0>        -0.0686
     15 C15         7.2177   -5.4675   -0.0925 C.2       1 <0>         0.5646
     16 O1          6.1866   -6.1013    0.0197 O.2       1 <0>        -0.5263
     17 N1          8.3958   -6.1120   -0.2076 N.am      1 <0>        -0.6115
     18 C16         9.6647   -5.3684   -0.2235 C.3       1 <0>         0.1023
     19 C17        10.6037   -5.9952    0.8194 C.3       1 <0>         0.0444
     20 N2         10.7253   -7.4357    0.5582 N.pl3     1 <0>        -0.4765
     21 C18         9.4329   -8.1164    0.7142 C.3       1 <0>         0.0548
     22 C19         8.4462   -7.5771   -0.3268 C.3       1 <0>         0.1127
     23 C20        11.6926   -8.0101    1.3745 C.ar      1 <0>         0.3098
     24 C21        12.9885   -7.5034    1.3695 C.ar      1 <0>        -0.1864
     25 C22        13.9410   -8.0844    2.1866 C.ar      1 <0>        -0.0526
     26 C23        13.5645   -9.1570    2.9846 C.ar      1 <0>        -0.1996
     27 C24        12.2609   -9.6084    2.9395 C.ar      1 <0>         0.1268
     28 N3         11.3715   -9.0310    2.1539 N.ar      1 <0>        -0.5203
     29 H1         12.6513    2.2070   -5.8212 H         1 <0>         0.1273
     30 H2         11.1122    3.3959   -4.3151 H         1 <0>         0.1296
     31 H3          9.6480    2.1318   -2.7966 H         1 <0>         0.1275
     32 H4         11.2773   -1.5368   -4.3145 H         1 <0>         0.1275
     33 H5         12.7315   -0.2515   -5.8248 H         1 <0>         0.1296
     34 H6          7.0576   -0.1312   -0.1082 H         1 <0>         0.1340
     35 H7          5.5982   -1.4023    1.4046 H         1 <0>         0.1389
     36 H8          5.6653   -3.8585    1.4175 H         1 <0>         0.1370
     37 H9          8.6766   -3.7996   -1.6330 H         1 <0>         0.1365
     38 H10        10.1156   -5.4349   -1.2136 H         1 <0>         0.0849
     39 H11         9.4803   -4.3241    0.0286 H         1 <0>         0.1035
     40 H12        10.1974   -5.8398    1.8188 H         1 <0>         0.0541
     41 H13        11.5863   -5.5286    0.7492 H         1 <0>         0.0983
     42 H14         9.0429   -7.9315    1.7151 H         1 <0>         0.0559
     43 H15         9.5661   -9.1884    0.5681 H         1 <0>         0.1022
     44 H16         7.4559   -7.9937   -0.1430 H         1 <0>         0.1040
     45 H17         8.7790   -7.8518   -1.3277 H         1 <0>         0.0796
     46 H18        13.2469   -6.6674    0.7363 H         1 <0>         0.1362
     47 H19        14.9549   -7.7128    2.2035 H         1 <0>         0.1369
     48 H20        14.2843   -9.6327    3.6341 H         1 <0>         0.1355
     49 H21        11.9639  -10.4421    3.5584 H         1 <0>         0.1573
@<TRIPOS>BOND
     1    1    6 ar
     2    1    2 ar
     3    1   29 1
     4    2    3 ar
     5    2   30 1
     6    3    4 ar
     7    3   31 1
     8    4    5 ar
     9    4    7 1
    10    5    6 ar
    11    5   32 1
    12    6   33 1
    13    7    8 3
    14    8    9 1
    15    9   14 ar
    16    9   10 ar
    17   10   11 ar
    18   10   34 1
    19   11   12 ar
    20   11   35 1
    21   12   13 ar
    22   12   36 1
    23   13   14 ar
    24   13   15 1
    25   14   37 1
    26   15   16 2
    27   15   17 am
    28   17   22 1
    29   17   18 1
    30   18   19 1
    31   18   38 1
    32   18   39 1
    33   19   20 1
    34   19   40 1
    35   19   41 1
    36   20   21 1
    37   20   23 1
    38   21   22 1
    39   21   42 1
    40   21   43 1
    41   22   44 1
    42   22   45 1
    43   23   28 ar
    44   23   24 ar
    45   24   25 ar
    46   24   46 1
    47   25   26 ar
    48   25   47 1
    49   26   27 ar
    50   26   48 1
    51   27   28 ar
    52   27   49 1
@<TRIPOS>MOLECULE
ZINC18137707
   51    55     0     0     0
SMALL
USER_CHARGES
1-adamantyl-[4-(2-pyridyl)piperazin-1-yl]methanone
@<TRIPOS>ATOM
      1 C1          0.8403    2.2715   -0.3305 C.ar      1 <0>        -0.0525
      2 C2          2.0614    1.6098   -0.3403 C.ar      1 <0>        -0.2000
      3 C3          2.0835    0.2307   -0.2887 C.ar      1 <0>         0.1268
      4 N1          0.9620   -0.4625   -0.2296 N.ar      1 <0>        -0.5205
      5 C4         -0.2213    0.1313   -0.2179 C.ar      1 <0>         0.3099
      6 C5         -0.3180    1.5184   -0.2681 C.ar      1 <0>        -0.1869
      7 N2         -1.3773   -0.6379   -0.1544 N.pl3     1 <0>        -0.4754
      8 C6         -2.2104   -0.2430    0.9892 C.3       1 <0>         0.0425
      9 C7         -3.5503   -0.9832    0.9207 C.3       1 <0>         0.0867
     10 N3         -3.2824   -2.4256    0.8152 N.am      1 <0>        -0.6136
     11 C8         -2.3473   -2.8855   -0.2227 C.3       1 <0>         0.1117
     12 C9         -1.0547   -2.0704   -0.1092 C.3       1 <0>         0.0554
     13 C10        -3.8777   -3.3025    1.6478 C.2       1 <0>         0.5267
     14 O1         -3.7202   -4.4942    1.4868 O.2       1 <0>        -0.5336
     15 C11        -4.7389   -2.8022    2.7787 C.3       1 <0>        -0.0684
     16 C12        -3.9065   -1.9022    3.6941 C.3       1 <0>        -0.1130
     17 C13        -4.7809   -1.3943    4.8423 C.3       1 <0>        -0.0840
     18 C14        -5.3127   -2.5844    5.6434 C.3       1 <0>        -0.1103
     19 C15        -6.1451   -3.4843    4.7280 C.3       1 <0>        -0.0869
     20 C16        -5.2707   -3.9923    3.5798 C.3       1 <0>        -0.0862
     21 C17        -7.3202   -2.6862    4.1596 C.3       1 <0>        -0.1103
     22 C18        -6.7884   -1.4961    3.3585 C.3       1 <0>        -0.0839
     23 C19        -5.9560   -0.5962    4.2739 C.3       1 <0>        -0.1107
     24 C20        -5.9140   -2.0040    2.2103 C.3       1 <0>        -0.1167
     25 H1          0.7963    3.3498   -0.3708 H         1 <0>         0.1369
     26 H2          2.9842    2.1687   -0.3881 H         1 <0>         0.1354
     27 H3          3.0308   -0.2878   -0.2965 H         1 <0>         0.1571
     28 H4         -1.2845    2.0002   -0.2628 H         1 <0>         0.1362
     29 H5         -1.6997   -0.5002    1.9172 H         1 <0>         0.0531
     30 H6         -2.3867    0.8322    0.9567 H         1 <0>         0.0971
     31 H7         -4.1087   -0.6496    0.0461 H         1 <0>         0.0817
     32 H8         -4.1289   -0.7833    1.8226 H         1 <0>         0.1225
     33 H9         -2.7900   -2.7347   -1.2073 H         1 <0>         0.0759
     34 H10        -2.1270   -3.9432   -0.0785 H         1 <0>         0.1005
     35 H11        -0.3929   -2.3205   -0.9384 H         1 <0>         0.1006
     36 H12        -0.5597   -2.3021    0.8339 H         1 <0>         0.0542
     37 H13        -3.0693   -2.4708    4.0991 H         1 <0>         0.0677
     38 H14        -3.5276   -1.0544    3.1234 H         1 <0>         0.0755
     39 H15        -4.1878   -0.7532    5.4945 H         1 <0>         0.0748
     40 H16        -5.9356   -2.2226    6.4614 H         1 <0>         0.0651
     41 H17        -4.4755   -3.1530    6.0483 H         1 <0>         0.0629
     42 H18        -6.5240   -4.3322    5.2987 H         1 <0>         0.0747
     43 H19        -5.8638   -4.6334    2.9276 H         1 <0>         0.0699
     44 H20        -4.4335   -4.5609    3.9847 H         1 <0>         0.0686
     45 H21        -7.9133   -3.3273    3.5074 H         1 <0>         0.0636
     46 H22        -7.9431   -2.3244    4.9776 H         1 <0>         0.0649
     47 H23        -7.6256   -0.9275    2.9535 H         1 <0>         0.0758
     48 H24        -6.5789   -0.2343    5.0919 H         1 <0>         0.0671
     49 H25        -5.5771    0.2517    3.7032 H         1 <0>         0.0627
     50 H26        -5.5352   -1.1562    1.6396 H         1 <0>         0.0789
     51 H27        -6.5071   -2.6452    1.5581 H         1 <0>         0.0698
@<TRIPOS>BOND
     1    1    6 ar
     2    1    2 ar
     3    1   25 1
     4    2    3 ar
     5    2   26 1
     6    3    4 ar
     7    3   27 1
     8    4    5 ar
     9    5    6 ar
    10    5    7 1
    11    6   28 1
    12    7   12 1
    13    7    8 1
    14    8    9 1
    15    8   29 1
    16    8   30 1
    17    9   10 1
    18    9   31 1
    19    9   32 1
    20   10   11 1
    21   10   13 am
    22   11   12 1
    23   11   33 1
    24   11   34 1
    25   12   35 1
    26   12   36 1
    27   13   14 2
    28   13   15 1
    29   15   20 1
    30   15   24 1
    31   15   16 1
    32   16   17 1
    33   16   37 1
    34   16   38 1
    35   17   23 1
    36   17   18 1
    37   17   39 1
    38   18   19 1
    39   18   40 1
    40   18   41 1
    41   19   20 1
    42   19   21 1
    43   19   42 1
    44   20   43 1
    45   20   44 1
    46   21   22 1
    47   21   45 1
    48   21   46 1
    49   22   23 1
    50   22   24 1
    51   22   47 1
    52   23   48 1
    53   23   49 1
    54   24   50 1
    55   24   51 1
@<TRIPOS>MOLECULE
ZINC01364533
   41    44     0     0     0
SMALL
USER_CHARGES
(4-fluorophenyl)-[3-[3-(2-thienyl)-1,2,4-oxadiazol-5-yl]-1-piperidyl]-methanone
@<TRIPOS>ATOM
      1 C1         -1.8360  -10.0238   -1.7715 C.2       1 <0>        -0.1653
      2 C2         -2.1215   -8.9017   -1.0276 C.2       1 <0>        -0.1029
      3 C3         -1.8690   -7.6695   -1.5702 C.2       1 <0>        -0.1122
      4 S1         -1.2183   -8.1013   -3.1758 S.3       1 <0>         0.1270
      5 C4         -1.3140   -9.8769   -3.0174 C.2       1 <0>        -0.1604
      6 C5         -2.0849   -6.3315   -0.9824 C.2       1 <0>         0.2562
      7 N1         -1.8192   -5.1417   -1.5714 N.2       1 <0>        -0.4642
      8 C6         -2.1593   -4.2313   -0.6942 C.2       1 <0>         0.1953
      9 O1         -2.6223   -4.8738    0.3829 O.3       1 <0>         0.0908
     10 N2         -2.5743   -6.0726    0.2053 N.2       1 <0>        -0.3630
     11 C7         -2.0547   -2.7381   -0.8685 C.3       1 <0>        -0.0071
     12 H1         -1.6418   -2.5142   -1.8521 H         1 <0>         0.1243
     13 C8         -3.4449   -2.1105   -0.7432 C.3       1 <0>        -0.1192
     14 C9         -3.3444   -0.5978   -0.9527 C.3       1 <0>        -0.1326
     15 C10        -2.4424    0.0050    0.1349 C.3       1 <0>         0.0900
     16 N3         -1.1504   -0.6943    0.1110 N.am      1 <0>        -0.6067
     17 C11        -1.1384   -2.1598    0.2145 C.3       1 <0>         0.1169
     18 C12         0.0021   -0.0041    0.0020 C.2       1 <0>         0.5667
     19 O2          1.0568   -0.5969   -0.1163 O.2       1 <0>        -0.5237
     20 C13        -0.0163    1.4729    0.0263 C.ar      1 <0>        -0.1440
     21 C14        -0.8662    2.1487    0.9045 C.ar      1 <0>        -0.0614
     22 C15        -0.8755    3.5269    0.9267 C.ar      1 <0>        -0.1595
     23 C16        -0.0512    4.2421    0.0714 C.ar      1 <0>         0.1252
     24 C17         0.7903    3.5761   -0.8066 C.ar      1 <0>        -0.1575
     25 C18         0.8118    2.1982   -0.8330 C.ar      1 <0>        -0.0342
     26 F1         -0.0684    5.5929    0.0932 F         1 <0>        -0.1322
     27 H2         -2.0247  -11.0086   -1.3703 H         1 <0>         0.1438
     28 H3         -2.5366   -8.9909   -0.0345 H         1 <0>         0.1413
     29 H4         -1.0341  -10.6383   -3.7305 H         1 <0>         0.1950
     30 H5         -4.1057   -2.5384   -1.4971 H         1 <0>         0.0792
     31 H6         -3.8469   -2.3135    0.2494 H         1 <0>         0.0812
     32 H7         -2.9193   -0.3941   -1.9355 H         1 <0>         0.0756
     33 H8         -4.3381   -0.1547   -0.8871 H         1 <0>         0.0897
     34 H9         -2.9086   -0.1219    1.1120 H         1 <0>         0.0802
     35 H10        -2.2875    1.0656   -0.0633 H         1 <0>         0.1011
     36 H11        -0.1229   -2.5281    0.0687 H         1 <0>         0.1049
     37 H12        -1.4981   -2.4596    1.1988 H         1 <0>         0.0848
     38 H13        -1.5116    1.5926    1.5682 H         1 <0>         0.1432
     39 H14        -1.5288    4.0506    1.6088 H         1 <0>         0.1448
     40 H15         1.4303    4.1380   -1.4706 H         1 <0>         0.1451
     41 H16         1.4677    1.6804   -1.5172 H         1 <0>         0.1435
@<TRIPOS>BOND
     1    1    5 2
     2    1    2 1
     3    1   27 1
     4    2    3 2
     5    2   28 1
     6    3    4 1
     7    3    6 1
     8    4    5 1
     9    5   29 1
    10    6   10 2
    11    6    7 1
    12    7    8 2
    13    8    9 1
    14    8   11 1
    15    9   10 1
    16   11   12 1
    17   11   17 1
    18   11   13 1
    19   13   14 1
    20   13   30 1
    21   13   31 1
    22   14   15 1
    23   14   32 1
    24   14   33 1
    25   15   16 1
    26   15   34 1
    27   15   35 1
    28   16   17 1
    29   16   18 am
    30   17   36 1
    31   17   37 1
    32   18   19 2
    33   18   20 1
    34   20   25 ar
    35   20   21 ar
    36   21   22 ar
    37   21   38 1
    38   22   23 ar
    39   22   39 1
    40   23   24 ar
    41   23   26 1
    42   24   25 ar
    43   24   40 1
    44   25   41 1
@<TRIPOS>MOLECULE
ZINC02581406
   26    27     0     0     0
SMALL
USER_CHARGES

@<TRIPOS>ATOM
      1 C1         -0.0184    1.5028    0.0103 C.3       1 <0>        -0.1063
      2 C2          0.0021   -0.0041    0.0020 C.ar      1 <0>         0.1350
      3 C3          0.0056   -0.6793   -1.2053 C.ar      1 <0>        -0.1659
      4 C4          0.0249   -2.0674   -1.2106 C.ar      1 <0>        -0.0682
      5 C5          0.0401   -2.7329    0.0020 C.ar      1 <0>        -0.1518
      6 C6          0.0355   -1.9885    1.1842 C.ar      1 <0>         0.2351
      7 N1          0.0218   -0.6593    1.1441 N.ar      1 <0>        -0.4711
      8 C7          0.0505   -2.6615    2.4481 C.1       1 <0>        -0.1144
      9 C8          0.0629   -3.2132    3.4843 C.1       1 <0>        -0.0803
     10 C9          0.0780   -3.8862    4.7482 C.ar      1 <0>         0.0056
     11 C10         0.1030   -5.2825    4.7999 C.ar      1 <0>        -0.0916
     12 C11         0.1173   -5.9237    6.0209 C.ar      1 <0>        -0.1202
     13 C12         0.1066   -5.1879    7.1929 C.ar      1 <0>        -0.1057
     14 C13         0.0818   -3.8050    7.1495 C.ar      1 <0>        -0.1195
     15 C14         0.0735   -3.1498    5.9359 C.ar      1 <0>        -0.0891
     16 H1          1.0042    1.8801    0.0026 H         1 <0>         0.0814
     17 H2         -0.5455    1.8639   -0.8728 H         1 <0>         0.0787
     18 H3         -0.5286    1.8543    0.9071 H         1 <0>         0.0792
     19 H4         -0.0069   -0.1313   -2.1358 H         1 <0>         0.1407
     20 H5          0.0276   -2.6157   -2.1411 H         1 <0>         0.1429
     21 H6          0.0549   -3.8123    0.0344 H         1 <0>         0.1401
     22 H7          0.1107   -5.8580    3.8861 H         1 <0>         0.1282
     23 H8          0.1367   -7.0027    6.0625 H         1 <0>         0.1299
     24 H9          0.1172   -5.6955    8.1461 H         1 <0>         0.1277
     25 H10         0.0732   -3.2373    8.0682 H         1 <0>         0.1303
     26 H11         0.0591   -2.0704    5.9035 H         1 <0>         0.1293
@<TRIPOS>BOND
     1    1    2 1
     2    1   16 1
     3    1   17 1
     4    1   18 1
     5    2    7 ar
     6    2    3 ar
     7    3    4 ar
     8    3   19 1
     9    4    5 ar
    10    4   20 1
    11    5    6 ar
    12    5   21 1
    13    6    7 ar
    14    6    8 1
    15    8    9 3
    16    9   10 1
    17   10   15 ar
    18   10   11 ar
    19   11   12 ar
    20   11   22 1
    21   12   13 ar
    22   12   23 1
    23   13   14 ar
    24   13   24 1
    25   14   15 ar
    26   14   25 1
    27   15   26 1
@<TRIPOS>MOLECULE
ZINC13584924
   41    44     0     0     0
SMALL
USER_CHARGES
N-(2,5-diphenylpyrazol-3-yl)pyrazine-2-carboxamide
@<TRIPOS>ATOM
      1 C1          5.1747    0.6611   -0.0422 C.ar      1 <0>        -0.1085
      2 C2          4.8719    2.0107   -0.0329 C.ar      1 <0>        -0.1232
      3 C3          3.5555    2.4251   -0.0185 C.ar      1 <0>        -0.0890
      4 C4          2.5306    1.4810   -0.0137 C.ar      1 <0>        -0.0210
      5 C5          2.8415    0.1227   -0.0178 C.ar      1 <0>        -0.0892
      6 C6          4.1614   -0.2804   -0.0380 C.ar      1 <0>        -0.1213
      7 C7          1.1134    1.9205    0.0017 C.2       1 <0>         0.1368
      8 C8         -0.0126    1.0758    0.0080 C.2       1 <0>        -0.2508
      9 C9         -1.1216    1.8616    0.0168 C.2       1 <0>         0.3077
     10 N1         -0.7085    3.1595    0.0258 N.pl3     1 <0>        -0.3360
     11 N2          0.6920    3.1679    0.0125 N.2       1 <0>        -0.2657
     12 C10        -1.5387    4.2878    0.0398 C.ar      1 <0>         0.1526
     13 C11        -2.7476    4.2706   -0.6432 C.ar      1 <0>        -0.1471
     14 C12        -3.5665    5.3826   -0.6228 C.ar      1 <0>        -0.0894
     15 C13        -3.1784    6.5163    0.0675 C.ar      1 <0>        -0.1210
     16 C14        -1.9724    6.5385    0.7439 C.ar      1 <0>        -0.0941
     17 C15        -1.1517    5.4278    0.7320 C.ar      1 <0>        -0.1082
     18 N3         -2.4428    1.4191    0.0199 N.am      1 <0>        -0.6326
     19 C16        -2.7111    0.0983    0.0143 C.2       1 <0>         0.5874
     20 O1         -1.8006   -0.7068    0.0066 O.2       1 <0>        -0.4862
     21 C17        -4.1154   -0.3720    0.0175 C.ar      1 <0>         0.0231
     22 C18        -4.3955   -1.7383    0.0117 C.ar      1 <0>         0.1220
     23 N4         -5.6495   -2.1527    0.0151 N.ar      1 <0>        -0.4350
     24 C19        -6.6370   -1.2747    0.0239 C.ar      1 <0>         0.0851
     25 C20        -6.3619    0.0849    0.0302 C.ar      1 <0>         0.0546
     26 N5         -5.1134    0.5073    0.0315 N.ar      1 <0>        -0.4151
     27 H1          6.2062    0.3412   -0.0531 H         1 <0>         0.1247
     28 H2          5.6670    2.7416   -0.0366 H         1 <0>         0.1262
     29 H3          3.3201    3.4791   -0.0113 H         1 <0>         0.1287
     30 H4          2.0511   -0.6132   -0.0093 H         1 <0>         0.1305
     31 H5          4.4034   -1.3329   -0.0456 H         1 <0>         0.1280
     32 H6          0.0021   -0.0041    0.0020 H         1 <0>         0.1829
     33 H7         -3.0493    3.3870   -1.1861 H         1 <0>         0.1256
     34 H8         -4.5091    5.3681   -1.1498 H         1 <0>         0.1359
     35 H9         -3.8186    7.3860    0.0786 H         1 <0>         0.1325
     36 H10        -1.6719    7.4255    1.2817 H         1 <0>         0.1353
     37 H11        -0.2102    5.4456    1.2607 H         1 <0>         0.1364
     38 H12        -3.1694    2.0616    0.0260 H         1 <0>         0.4236
     39 H13        -3.5885   -2.4560    0.0041 H         1 <0>         0.1877
     40 H14        -7.6615   -1.6167    0.0267 H         1 <0>         0.1826
     41 H15        -7.1724    0.7988    0.0381 H         1 <0>         0.1835
@<TRIPOS>BOND
     1    1    6 ar
     2    1    2 ar
     3    1   27 1
     4    2    3 ar
     5    2   28 1
     6    3    4 ar
     7    3   29 1
     8    4    5 ar
     9    4    7 1
    10    5    6 ar
    11    5   30 1
    12    6   31 1
    13    7   11 2
    14    7    8 1
    15    8    9 2
    16    8   32 1
    17    9   10 1
    18    9   18 1
    19   10   11 1
    20   10   12 1
    21   12   17 ar
    22   12   13 ar
    23   13   14 ar
    24   13   33 1
    25   14   15 ar
    26   14   34 1
    27   15   16 ar
    28   15   35 1
    29   16   17 ar
    30   16   36 1
    31   17   37 1
    32   18   19 am
    33   18   38 1
    34   19   20 2
    35   19   21 1
    36   21   26 ar
    37   21   22 ar
    38   22   23 ar
    39   22   39 1
    40   23   24 ar
    41   24   25 ar
    42   24   40 1
    43   25   26 ar
    44   25   41 1
@<TRIPOS>MOLECULE
ZINC03986698
   44    47     0     0     0
SMALL
USER_CHARGES
3-cyano-N-(2,5-diphenylpyrazol-3-yl)-benzamide
@<TRIPOS>ATOM
      1 C1         -2.0688   12.9787    0.0814 C.ar      1 <0>        -0.1082
      2 C2         -0.6937   13.1278    0.0691 C.ar      1 <0>        -0.1233
      3 C3          0.1234   12.0156    0.0563 C.ar      1 <0>        -0.0890
      4 C4         -0.4393   10.7408    0.0563 C.ar      1 <0>        -0.0217
      5 C5         -1.8252   10.5966    0.0638 C.ar      1 <0>        -0.0889
      6 C6         -2.6328   11.7157    0.0814 C.ar      1 <0>        -0.1213
      7 C7          0.4342    9.5413    0.0420 C.2       1 <0>         0.1376
      8 C8         -0.0018    8.2029    0.0345 C.2       1 <0>        -0.2502
      9 C9          1.0998    7.4070    0.0262 C.2       1 <0>         0.3095
     10 N1          2.1949    8.2168    0.0191 N.pl3     1 <0>        -0.3380
     11 N2          1.7508    9.5451    0.0292 N.2       1 <0>        -0.2671
     12 C10         3.5307    7.7953    0.0047 C.ar      1 <0>         0.1554
     13 C11         3.9056    6.6474    0.6904 C.ar      1 <0>        -0.1532
     14 C12         5.2223    6.2312    0.6695 C.ar      1 <0>        -0.0907
     15 C13         6.1692    6.9626   -0.0239 C.ar      1 <0>        -0.1214
     16 C14         5.8001    8.1092   -0.7031 C.ar      1 <0>        -0.0922
     17 C15         4.4839    8.5275   -0.6908 C.ar      1 <0>        -0.1085
     18 N3          1.1075    6.0134    0.0200 N.am      1 <0>        -0.6461
     19 C16        -0.0559    5.3331    0.0284 C.2       1 <0>         0.5693
     20 O1         -1.1120    5.9351    0.0413 O.2       1 <0>        -0.4913
     21 C17        -0.0478    3.8549    0.0218 C.ar      1 <0>        -0.1347
     22 C18         1.1651    3.1615    0.0070 C.ar      1 <0>        -0.0591
     23 C19         1.1747    1.7810    0.0004 C.ar      1 <0>        -0.1197
     24 C20        -0.0126    1.0758    0.0080 C.ar      1 <0>        -0.0385
     25 C21        -1.2327    1.7564    0.0174 C.ar      1 <0>        -0.0263
     26 C22        -1.2495    3.1501    0.0300 C.ar      1 <0>        -0.0057
     27 C23        -2.4632    1.0238    0.0197 C.1       1 <0>         0.2465
     28 N4         -3.4392    0.4426    0.0216 N.1       1 <0>        -0.3971
     29 H1         -2.7045   13.8518    0.0914 H         1 <0>         0.1247
     30 H2         -0.2586   14.1163    0.0692 H         1 <0>         0.1262
     31 H3          1.1970   12.1331    0.0468 H         1 <0>         0.1287
     32 H4         -2.2665    9.6109    0.0596 H         1 <0>         0.1304
     33 H5         -3.7070   11.6050    0.0910 H         1 <0>         0.1279
     34 H6         -1.0286    7.8682    0.0375 H         1 <0>         0.1830
     35 H7          3.1673    6.0782    1.2359 H         1 <0>         0.1251
     36 H8          5.5136    5.3360    1.1987 H         1 <0>         0.1364
     37 H9          7.1990    6.6374   -0.0354 H         1 <0>         0.1327
     38 H10         6.5420    8.6785   -1.2435 H         1 <0>         0.1355
     39 H11         4.1963    9.4229   -1.2217 H         1 <0>         0.1366
     40 H12         1.9501    5.5331    0.0097 H         1 <0>         0.4127
     41 H13         2.0973    3.7067    0.0010 H         1 <0>         0.1316
     42 H14         2.1151    1.2501   -0.0111 H         1 <0>         0.1466
     43 H15         0.0021   -0.0041    0.0020 H         1 <0>         0.1437
     44 H16        -2.1898    3.6813    0.0411 H         1 <0>         0.1518
@<TRIPOS>BOND
     1    1    6 ar
     2    1    2 ar
     3    1   29 1
     4    2    3 ar
     5    2   30 1
     6    3    4 ar
     7    3   31 1
     8    4    5 ar
     9    4    7 1
    10    5    6 ar
    11    5   32 1
    12    6   33 1
    13    7   11 2
    14    7    8 1
    15    8    9 2
    16    8   34 1
    17    9   10 1
    18    9   18 1
    19   10   11 1
    20   10   12 1
    21   12   17 ar
    22   12   13 ar
    23   13   14 ar
    24   13   35 1
    25   14   15 ar
    26   14   36 1
    27   15   16 ar
    28   15   37 1
    29   16   17 ar
    30   16   38 1
    31   17   39 1
    32   18   19 am
    33   18   40 1
    34   19   20 2
    35   19   21 1
    36   21   26 ar
    37   21   22 ar
    38   22   23 ar
    39   22   41 1
    40   23   24 ar
    41   23   42 1
    42   24   25 ar
    43   24   43 1
    44   25   26 ar
    45   25   27 1
    46   26   44 1
    47   27   28 3
@<TRIPOS>MOLECULE
ZINC13584908
   43    46     0     0     0
SMALL
USER_CHARGES
3-chloro-N-(2,5-diphenylpyrazol-3-yl)benzamide
@<TRIPOS>ATOM
      1 C1         -1.5873    8.9654   -1.8039 C.ar      1 <0>        -0.1084
      2 C2         -2.0315    7.6954   -2.1251 C.ar      1 <0>        -0.1232
      3 C3         -1.3471    6.5866   -1.6702 C.ar      1 <0>        -0.0891
      4 C4         -0.2067    6.7483   -0.8860 C.ar      1 <0>        -0.0210
      5 C5          0.2330    8.0298   -0.5607 C.ar      1 <0>        -0.0891
      6 C6         -0.4556    9.1317   -1.0262 C.ar      1 <0>        -0.1213
      7 C7          0.5334    5.5599   -0.3941 C.2       1 <0>         0.1370
      8 C8          1.6937    5.5816    0.4025 C.2       1 <0>        -0.2507
      9 C9          2.0580    4.2943    0.6414 C.2       1 <0>         0.3097
     10 N1          1.1616    3.4868    0.0092 N.pl3     1 <0>        -0.3377
     11 N2          0.2181    4.3030   -0.6274 N.2       1 <0>        -0.2668
     12 C10         1.1772    2.0861    0.0020 C.ar      1 <0>         0.1549
     13 C11        -0.0167    1.3769    0.0096 C.ar      1 <0>        -0.1086
     14 C12         0.0021   -0.0041    0.0020 C.ar      1 <0>        -0.0923
     15 C13         1.2080   -0.6806   -0.0131 C.ar      1 <0>        -0.1209
     16 C14         2.3987    0.0227   -0.0207 C.ar      1 <0>        -0.0899
     17 C15         2.3866    1.4038   -0.0132 C.ar      1 <0>        -0.1527
     18 N3          3.1528    3.8758    1.3954 N.am      1 <0>        -0.6471
     19 C16         3.9634    4.7867    1.9695 C.2       1 <0>         0.5706
     20 O1          3.7396    5.9734    1.8296 O.2       1 <0>        -0.4912
     21 C17         5.1245    4.3429    2.7692 C.ar      1 <0>        -0.1232
     22 C18         5.9662    5.2840    3.3652 C.ar      1 <0>        -0.0475
     23 C19         7.0482    4.8638    4.1103 C.ar      1 <0>        -0.1090
     24 C20         7.3011    3.5127    4.2681 C.ar      1 <0>        -0.0774
     25 C21         6.4705    2.5736    3.6805 C.ar      1 <0>        -0.0413
     26 C22         5.3809    2.9813    2.9365 C.ar      1 <0>        -0.0800
     27 Cl1         6.7957    0.8807    3.8848 Cl        1 <0>        -0.0549
     28 H1         -2.1259    9.8303   -2.1620 H         1 <0>         0.1247
     29 H2         -2.9157    7.5713   -2.7327 H         1 <0>         0.1262
     30 H3         -1.6946    5.5955   -1.9219 H         1 <0>         0.1287
     31 H4          1.1138    8.1608    0.0504 H         1 <0>         0.1303
     32 H5         -0.1131   10.1256   -0.7784 H         1 <0>         0.1279
     33 H6          2.2013    6.4640    0.7633 H         1 <0>         0.1829
     34 H7         -0.9589    1.9047    0.0169 H         1 <0>         0.1368
     35 H8         -0.9261   -0.5562    0.0076 H         1 <0>         0.1357
     36 H9          1.2201   -1.7605   -0.0187 H         1 <0>         0.1329
     37 H10         3.3389   -0.5085   -0.0322 H         1 <0>         0.1363
     38 H11         3.3168    1.9525   -0.0188 H         1 <0>         0.1242
     39 H12         3.3313    2.9289    1.5071 H         1 <0>         0.4127
     40 H13         5.7701    6.3391    3.2433 H         1 <0>         0.1487
     41 H14         7.6995    5.5912    4.5719 H         1 <0>         0.1465
     42 H15         8.1497    3.1891    4.8526 H         1 <0>         0.1437
     43 H16         4.7309    2.2482    2.4820 H         1 <0>         0.1331
@<TRIPOS>BOND
     1    1    6 ar
     2    1    2 ar
     3    1   28 1
     4    2    3 ar
     5    2   29 1
     6    3    4 ar
     7    3   30 1
     8    4    5 ar
     9    4    7 1
    10    5    6 ar
    11    5   31 1
    12    6   32 1
    13    7   11 2
    14    7    8 1
    15    8    9 2
    16    8   33 1
    17    9   10 1
    18    9   18 1
    19   10   11 1
    20   10   12 1
    21   12   17 ar
    22   12   13 ar
    23   13   14 ar
    24   13   34 1
    25   14   15 ar
    26   14   35 1
    27   15   16 ar
    28   15   36 1
    29   16   17 ar
    30   16   37 1
    31   17   38 1
    32   18   19 am
    33   18   39 1
    34   19   20 2
    35   19   21 1
    36   21   26 ar
    37   21   22 ar
    38   22   23 ar
    39   22   40 1
    40   23   24 ar
    41   23   41 1
    42   24   25 ar
    43   24   42 1
    44   25   26 ar
    45   25   27 1
    46   26   43 1
@<TRIPOS>MOLECULE
ZINC03185886
   43    46     0     0     0
SMALL
USER_CHARGES
N-(2,5-diphenylpyrazol-3-yl)benzamide
@<TRIPOS>ATOM
      1 C1          5.1748    0.6612   -0.0427 C.ar      1 <0>        -0.1086
      2 C2          4.8719    2.0108   -0.0329 C.ar      1 <0>        -0.1233
      3 C3          3.5555    2.4252   -0.0185 C.ar      1 <0>        -0.0892
      4 C4          2.5307    1.4811   -0.0137 C.ar      1 <0>        -0.0208
      5 C5          2.8416    0.1228   -0.0178 C.ar      1 <0>        -0.0891
      6 C6          4.1615   -0.2803   -0.0380 C.ar      1 <0>        -0.1213
      7 C7          1.1134    1.9205    0.0017 C.2       1 <0>         0.1372
      8 C8         -0.0126    1.0758    0.0080 C.2       1 <0>        -0.2523
      9 C9         -1.1215    1.8615    0.0168 C.2       1 <0>         0.3110
     10 N1         -0.7085    3.1594    0.0258 N.pl3     1 <0>        -0.3388
     11 N2          0.6920    3.1679    0.0125 N.2       1 <0>        -0.2685
     12 C10        -1.5387    4.2876    0.0398 C.ar      1 <0>         0.1561
     13 C11        -2.7477    4.2704   -0.6432 C.ar      1 <0>        -0.1530
     14 C12        -3.5666    5.3824   -0.6227 C.ar      1 <0>        -0.0906
     15 C13        -3.1785    6.5160    0.0675 C.ar      1 <0>        -0.1218
     16 C14        -1.9726    6.5383    0.7440 C.ar      1 <0>        -0.0924
     17 C15        -1.1519    5.4276    0.7320 C.ar      1 <0>        -0.1089
     18 N3         -2.4429    1.4189    0.0193 N.am      1 <0>        -0.6480
     19 C16        -2.7112    0.0981    0.0130 C.2       1 <0>         0.5683
     20 O1         -1.8005   -0.7071    0.0052 O.2       1 <0>        -0.4962
     21 C17        -4.1128   -0.3713    0.0155 C.ar      1 <0>        -0.1375
     22 C18        -5.1609    0.5507    0.0303 C.ar      1 <0>        -0.0873
     23 C19        -6.4667    0.1059    0.0273 C.ar      1 <0>        -0.1240
     24 C20        -6.7387   -1.2508    0.0209 C.ar      1 <0>        -0.0860
     25 C21        -5.7045   -2.1699    0.0120 C.ar      1 <0>        -0.1244
     26 C22        -4.3942   -1.7385    0.0090 C.ar      1 <0>        -0.0521
     27 H1          6.2063    0.3414   -0.0543 H         1 <0>         0.1247
     28 H2          5.6670    2.7417   -0.0363 H         1 <0>         0.1262
     29 H3          3.3201    3.4792   -0.0113 H         1 <0>         0.1286
     30 H4          2.0512   -0.6132   -0.0096 H         1 <0>         0.1303
     31 H5          4.4035   -1.3328   -0.0456 H         1 <0>         0.1279
     32 H6          0.0021   -0.0041    0.0020 H         1 <0>         0.1827
     33 H7         -3.0493    3.3869   -1.1861 H         1 <0>         0.1246
     34 H8         -4.5092    5.3679   -1.1497 H         1 <0>         0.1360
     35 H9         -3.8188    7.3857    0.0787 H         1 <0>         0.1327
     36 H10        -1.6721    7.4254    1.2818 H         1 <0>         0.1356
     37 H11        -0.2103    5.4455    1.2608 H         1 <0>         0.1366
     38 H12        -3.1696    2.0614    0.0255 H         1 <0>         0.4124
     39 H13        -4.9499    1.6098    0.0395 H         1 <0>         0.1222
     40 H14        -7.2785    0.8181    0.0346 H         1 <0>         0.1331
     41 H15        -7.7627   -1.5938    0.0224 H         1 <0>         0.1318
     42 H16        -5.9236   -3.2275    0.0069 H         1 <0>         0.1351
     43 H17        -3.5879   -2.4570    0.0021 H         1 <0>         0.1408
@<TRIPOS>BOND
     1    1    6 ar
     2    1    2 ar
     3    1   27 1
     4    2    3 ar
     5    2   28 1
     6    3    4 ar
     7    3   29 1
     8    4    5 ar
     9    4    7 1
    10    5    6 ar
    11    5   30 1
    12    6   31 1
    13    7   11 2
    14    7    8 1
    15    8    9 2
    16    8   32 1
    17    9   10 1
    18    9   18 1
    19   10   11 1
    20   10   12 1
    21   12   17 ar
    22   12   13 ar
    23   13   14 ar
    24   13   33 1
    25   14   15 ar
    26   14   34 1
    27   15   16 ar
    28   15   35 1
    29   16   17 ar
    30   16   36 1
    31   17   37 1
    32   18   19 am
    33   18   38 1
    34   19   20 2
    35   19   21 1
    36   21   26 ar
    37   21   22 ar
    38   22   23 ar
    39   22   39 1
    40   23   24 ar
    41   23   40 1
    42   24   25 ar
    43   24   41 1
    44   25   26 ar
    45   25   42 1
    46   26   43 1
@<TRIPOS>MOLECULE
ZINC08449876
   56    59     0     0     0
SMALL
USER_CHARGES

@<TRIPOS>ATOM
      1 C1         -0.0184    1.5028    0.0103 C.3       1 <0>        -0.1250
      2 C2          0.0021   -0.0041    0.0020 C.ar      1 <0>        -0.0495
      3 C3          0.0056   -0.6859   -1.2026 C.ar      1 <0>        -0.1278
      4 C4          0.0243   -2.0644   -1.2186 C.ar      1 <0>        -0.0762
      5 C5          0.0396   -2.7739   -0.0133 C.ar      1 <0>        -0.1707
      6 C6          0.0359   -2.0777    1.1995 C.ar      1 <0>        -0.0523
      7 C7          0.0229   -0.6987    1.1987 C.ar      1 <0>        -0.0981
      8 C8          0.0250    0.0537    2.5044 C.3       1 <0>        -0.1188
      9 C9          0.0591   -4.2454   -0.0214 C.2       1 <0>         0.3997
     10 O1          0.0724   -4.8573    1.0254 O.2       1 <0>        -0.4263
     11 C10         0.0626   -4.9917   -1.3306 C.3       1 <0>         0.0213
     12 O2          0.0825   -6.3979   -1.0772 O.3       1 <0>        -0.3299
     13 C11         0.0880   -7.2128   -2.1503 C.2       1 <0>         0.5130
     14 O3          0.0762   -6.7424   -3.2704 O.2       1 <0>        -0.5002
     15 C12         0.1083   -8.6761   -1.9651 C.ar      1 <0>        -0.1384
     16 C13         0.1161   -9.2193   -0.6772 C.ar      1 <0>        -0.0338
     17 C14         0.1351  -10.5857   -0.5083 C.ar      1 <0>        -0.1561
     18 C15         0.1465  -11.4250   -1.6171 C.ar      1 <0>         0.1590
     19 C16         0.1389  -10.8883   -2.9001 C.ar      1 <0>        -0.1553
     20 C17         0.1141   -9.5231   -3.0770 C.ar      1 <0>        -0.0273
     21 N1          0.1663  -12.8116   -1.4416 N.am      1 <0>        -0.5365
     22 C18         0.1695  -13.4096   -0.2195 C.2       1 <0>         0.5470
     23 O4         -0.0564  -12.8851    0.8498 O.2       1 <0>        -0.4379
     24 C19         0.5084  -14.8459   -0.4640 C.3       1 <0>        -0.1328
     25 H1          1.5902  -14.9699   -0.5126 H         1 <0>         0.1369
     26 C20        -0.0940  -15.9132    0.4236 C.3       1 <0>        -0.0892
     27 C21         0.4191  -17.2626   -0.1181 C.3       1 <0>        -0.0548
     28 H2          1.5039  -17.2962   -0.0169 H         1 <0>         0.1226
     29 C22         0.0508  -17.4634   -1.5840 C.3       1 <0>        -0.0535
     30 H3         -1.0303  -17.5766   -1.6651 H         1 <0>         0.1224
     31 C23         0.4969  -16.2790   -2.4613 C.3       1 <0>        -0.0902
     32 C24        -0.1137  -15.0336   -1.8799 C.3       1 <0>        -0.1336
     33 H4         -1.1912  -15.1746   -1.7953 H         1 <0>         0.1352
     34 C25         0.1784  -13.6951   -2.4762 C.2       1 <0>         0.5492
     35 O5          0.3866  -13.4478   -3.6445 O.2       1 <0>        -0.4391
     36 Br1         0.9150  -19.1026   -2.2407 Br        1 <0>        -0.1174
     37 Br2        -0.3677  -18.7189    0.9426 Br        1 <0>        -0.1180
     38 H5          1.0042    1.8801    0.0026 H         1 <0>         0.0777
     39 H6         -0.5455    1.8639   -0.8728 H         1 <0>         0.0717
     40 H7         -0.5286    1.8543    0.9071 H         1 <0>         0.0739
     41 H8         -0.0066   -0.1367   -2.1325 H         1 <0>         0.1322
     42 H9          0.0267   -2.5950   -2.1593 H         1 <0>         0.1325
     43 H10         0.0474   -2.6186    2.1342 H         1 <0>         0.1361
     44 H11        -1.0020    0.2211    2.8290 H         1 <0>         0.0742
     45 H12         0.5540   -0.5290    3.2586 H         1 <0>         0.0700
     46 H13         0.5246    1.0131    2.3701 H         1 <0>         0.0723
     47 H14        -0.8337   -4.7371   -1.8963 H         1 <0>         0.1070
     48 H15         0.9461   -4.7135   -1.9051 H         1 <0>         0.1070
     49 H16         0.1075   -8.5681    0.1844 H         1 <0>         0.1504
     50 H17         0.1414  -11.0061    0.4865 H         1 <0>         0.1618
     51 H18         0.1478  -11.5433   -3.7587 H         1 <0>         0.1629
     52 H19         0.1032   -9.1071   -4.0736 H         1 <0>         0.1481
     53 H20         0.2347  -15.7735    1.4534 H         1 <0>         0.1078
     54 H21        -1.1820  -15.8765    0.3680 H         1 <0>         0.0956
     55 H22         1.5831  -16.1902   -2.4435 H         1 <0>         0.0939
     56 H23         0.1501  -16.4217   -3.4847 H         1 <0>         0.1072
@<TRIPOS>BOND
     1    1    2 1
     2    1   38 1
     3    1   39 1
     4    1   40 1
     5    2    7 ar
     6    2    3 ar
     7    3    4 ar
     8    3   41 1
     9    4    5 ar
    10    4   42 1
    11    5    6 ar
    12    5    9 1
    13    6    7 ar
    14    6   43 1
    15    7    8 1
    16    8   44 1
    17    8   45 1
    18    8   46 1
    19    9   10 2
    20    9   11 1
    21   11   12 1
    22   11   47 1
    23   11   48 1
    24   12   13 1
    25   13   14 2
    26   13   15 1
    27   15   20 ar
    28   15   16 ar
    29   16   17 ar
    30   16   49 1
    31   17   18 ar
    32   17   50 1
    33   18   19 ar
    34   18   21 1
    35   19   20 ar
    36   19   51 1
    37   20   52 1
    38   21   34 am
    39   21   22 am
    40   22   23 2
    41   22   24 1
    42   24   25 1
    43   24   32 1
    44   24   26 1
    45   26   27 1
    46   26   53 1
    47   26   54 1
    48   27   28 1
    49   27   29 1
    50   27   37 1
    51   29   30 1
    52   29   31 1
    53   29   36 1
    54   31   32 1
    55   31   55 1
    56   31   56 1
    57   32   33 1
    58   32   34 1
    59   34   35 2
@<TRIPOS>MOLECULE
ZINC17779250
   56    59     0     0     0
SMALL
USER_CHARGES

@<TRIPOS>ATOM
      1 C1         -0.0184    1.5028    0.0103 C.3       1 <0>        -0.1250
      2 C2          0.0021   -0.0041    0.0020 C.ar      1 <0>        -0.0496
      3 C3          0.0056   -0.6859   -1.2026 C.ar      1 <0>        -0.1278
      4 C4          0.0243   -2.0644   -1.2186 C.ar      1 <0>        -0.0762
      5 C5          0.0396   -2.7739   -0.0133 C.ar      1 <0>        -0.1706
      6 C6          0.0359   -2.0777    1.1995 C.ar      1 <0>        -0.0523
      7 C7          0.0229   -0.6987    1.1987 C.ar      1 <0>        -0.0982
      8 C8          0.0250    0.0537    2.5044 C.3       1 <0>        -0.1188
      9 C9          0.0591   -4.2454   -0.0214 C.2       1 <0>         0.3997
     10 O1          0.0724   -4.8573    1.0254 O.2       1 <0>        -0.4262
     11 C10         0.0626   -4.9917   -1.3306 C.3       1 <0>         0.0213
     12 O2          0.0825   -6.3979   -1.0772 O.3       1 <0>        -0.3299
     13 C11         0.0880   -7.2128   -2.1503 C.2       1 <0>         0.5132
     14 O3          0.0762   -6.7424   -3.2704 O.2       1 <0>        -0.5004
     15 C12         0.1083   -8.6761   -1.9651 C.ar      1 <0>        -0.1391
     16 C13         0.1161   -9.2193   -0.6772 C.ar      1 <0>        -0.0337
     17 C14         0.1351  -10.5857   -0.5083 C.ar      1 <0>        -0.1565
     18 C15         0.1465  -11.4250   -1.6171 C.ar      1 <0>         0.1598
     19 C16         0.1389  -10.8883   -2.9001 C.ar      1 <0>        -0.1556
     20 C17         0.1141   -9.5231   -3.0770 C.ar      1 <0>        -0.0273
     21 N1          0.1663  -12.8116   -1.4416 N.am      1 <0>        -0.5366
     22 C18         0.1695  -13.4096   -0.2195 C.2       1 <0>         0.5477
     23 O4         -0.0558  -12.8852    0.8500 O.2       1 <0>        -0.4384
     24 C19         0.5070  -14.8456   -0.4645 C.3       1 <0>        -0.1305
     25 H1          1.5889  -14.9679   -0.5160 H         1 <0>         0.1350
     26 C20        -0.0884  -15.9162    0.4189 C.3       1 <0>        -0.0972
     27 C21         0.4069  -17.2678   -0.1281 C.3       1 <0>        -0.0553
     28 H2          1.4900  -17.3190   -0.0174 H         1 <0>         0.1274
     29 C22         0.0498  -17.4576   -1.5983 C.3       1 <0>        -0.0547
     30 H3          0.5183  -18.3721   -1.9620 H         1 <0>         0.1295
     31 C23         0.5246  -16.2722   -2.4626 C.3       1 <0>        -0.0899
     32 C24        -0.1150  -15.0341   -1.8803 C.3       1 <0>        -0.1456
     33 H4         -1.1915  -15.1842   -1.7977 H         1 <0>         0.1418
     34 C25         0.1784  -13.6951   -2.4761 C.2       1 <0>         0.5495
     35 O5          0.3869  -13.4476   -3.6443 O.2       1 <0>        -0.4409
     36 Br1        -1.9016  -17.6282   -1.7661 Br        1 <0>        -0.1222
     37 Br2        -0.4106  -18.7181    0.9176 Br        1 <0>        -0.1153
     38 H5          1.0042    1.8801    0.0026 H         1 <0>         0.0777
     39 H6         -0.5455    1.8639   -0.8728 H         1 <0>         0.0717
     40 H7         -0.5286    1.8543    0.9071 H         1 <0>         0.0738
     41 H8         -0.0066   -0.1367   -2.1325 H         1 <0>         0.1322
     42 H9          0.0267   -2.5950   -2.1593 H         1 <0>         0.1326
     43 H10         0.0474   -2.6186    2.1342 H         1 <0>         0.1361
     44 H11        -1.0020    0.2211    2.8290 H         1 <0>         0.0742
     45 H12         0.5540   -0.5290    3.2586 H         1 <0>         0.0700
     46 H13         0.5246    1.0131    2.3701 H         1 <0>         0.0723
     47 H14        -0.8337   -4.7371   -1.8963 H         1 <0>         0.1069
     48 H15         0.9461   -4.7135   -1.9051 H         1 <0>         0.1069
     49 H16         0.1075   -8.5681    0.1844 H         1 <0>         0.1502
     50 H17         0.1414  -11.0061    0.4865 H         1 <0>         0.1619
     51 H18         0.1478  -11.5433   -3.7587 H         1 <0>         0.1629
     52 H19         0.1032   -9.1071   -4.0736 H         1 <0>         0.1479
     53 H20         0.2507  -15.7830    1.4463 H         1 <0>         0.1057
     54 H21        -1.1766  -15.8727    0.3757 H         1 <0>         0.0982
     55 H22         1.6100  -16.1847   -2.4147 H         1 <0>         0.1001
     56 H23         0.2037  -16.4093   -3.4952 H         1 <0>         0.1074
@<TRIPOS>BOND
     1    1    2 1
     2    1   38 1
     3    1   39 1
     4    1   40 1
     5    2    7 ar
     6    2    3 ar
     7    3    4 ar
     8    3   41 1
     9    4    5 ar
    10    4   42 1
    11    5    6 ar
    12    5    9 1
    13    6    7 ar
    14    6   43 1
    15    7    8 1
    16    8   44 1
    17    8   45 1
    18    8   46 1
    19    9   10 2
    20    9   11 1
    21   11   12 1
    22   11   47 1
    23   11   48 1
    24   12   13 1
    25   13   14 2
    26   13   15 1
    27   15   20 ar
    28   15   16 ar
    29   16   17 ar
    30   16   49 1
    31   17   18 ar
    32   17   50 1
    33   18   19 ar
    34   18   21 1
    35   19   20 ar
    36   19   51 1
    37   20   52 1
    38   21   34 am
    39   21   22 am
    40   22   23 2
    41   22   24 1
    42   24   25 1
    43   24   32 1
    44   24   26 1
    45   26   27 1
    46   26   53 1
    47   26   54 1
    48   27   28 1
    49   27   29 1
    50   27   37 1
    51   29   30 1
    52   29   31 1
    53   29   36 1
    54   31   32 1
    55   31   55 1
    56   31   56 1
    57   32   33 1
    58   32   34 1
    59   34   35 2
@<TRIPOS>MOLECULE
ZINC18258072
   56    59     0     0     0
SMALL
USER_CHARGES
[2-(3,4-dimethylphenyl)-2-oxo-ethyl] 4-[(3aS,5R,6S,7aR)-5,6-dibromo-1,3-dioxo-3a,4,5,6,7,7a-hexahydroisoindol-2-yl]benzoate
@<TRIPOS>ATOM
      1 C1          2.4869    1.0395   -0.1397 C.3       1 <0>        -0.1265
      2 C2          1.1753    1.7812   -0.1157 C.ar      1 <0>        -0.0493
      3 C3         -0.0140    1.0751   -0.0592 C.ar      1 <0>        -0.1272
      4 C4         -1.2182    1.7462   -0.0426 C.ar      1 <0>        -0.0765
      5 C5         -1.2357    3.1445   -0.0719 C.ar      1 <0>        -0.1711
      6 C6         -0.0300    3.8506   -0.1289 C.ar      1 <0>        -0.0513
      7 C7          1.1661    3.1646   -0.1506 C.ar      1 <0>        -0.0982
      8 C8          2.4667    3.9234   -0.2120 C.3       1 <0>        -0.1202
      9 C9         -2.5166    3.8689   -0.0479 C.2       1 <0>         0.3983
     10 O1         -2.5283    5.0810   -0.0776 O.2       1 <0>        -0.4251
     11 C10        -3.8136    3.1041    0.0135 C.3       1 <0>         0.0362
     12 O2         -4.9257    4.0376    0.0268 O.3       1 <0>        -0.3341
     13 C11        -6.1652    3.5117    0.0804 C.2       1 <0>         0.5129
     14 O3         -6.3126    2.3062    0.1152 O.2       1 <0>        -0.4978
     15 C12        -7.3430    4.3997    0.0970 C.ar      1 <0>        -0.1169
     16 C13        -7.1751    5.7869    0.0629 C.ar      1 <0>        -0.0452
     17 C14        -8.2772    6.6123    0.0717 C.ar      1 <0>        -0.1141
     18 C15        -9.5556    6.0677    0.1275 C.ar      1 <0>         0.1484
     19 C16        -9.7265    4.6881    0.1679 C.ar      1 <0>        -0.1105
     20 C17        -8.6295    3.8561    0.1526 C.ar      1 <0>        -0.0385
     21 N1        -10.6717    6.9091    0.1427 N.am      1 <0>        -0.5335
     22 C18       -10.9566    7.7233    1.1730 C.2       1 <0>         0.5367
     23 O4        -10.3394    7.7975    2.2136 O.2       1 <0>        -0.4475
     24 C19       -12.1767    8.5274    0.8089 C.3       1 <0>        -0.1220
     25 H1        -11.7995    9.5112    0.5297 H         1 <0>         0.1263
     26 C20       -13.1256    8.7553    1.9309 C.3       1 <0>        -0.0989
     27 C21       -14.2995    7.8068    1.9999 C.3       1 <0>        -0.0506
     28 H2        -15.0434    8.2119    2.6859 H         1 <0>         0.1296
     29 C22       -14.9395    7.6031    0.6422 C.3       1 <0>        -0.0456
     30 H3        -15.3657    8.5488    0.3072 H         1 <0>         0.1282
     31 C23       -13.9528    7.1215   -0.3904 C.3       1 <0>        -0.1126
     32 C24       -12.6768    7.9234   -0.4839 C.3       1 <0>        -0.0974
     33 H4        -12.7843    8.7024   -1.2387 H         1 <0>         0.1348
     34 C25       -11.5454    6.9763   -0.8717 C.2       1 <0>         0.5309
     35 O5        -11.4529    6.3803   -1.9232 O.2       1 <0>        -0.4531
     36 Br1       -16.3827    6.2788    0.8105 Br        1 <0>        -0.1169
     37 Br2       -13.6800    6.0696    2.6807 Br        1 <0>        -0.1298
     38 H5          2.7697    0.8349   -1.1723 H         1 <0>         0.0781
     39 H6          3.2571    1.6480    0.3342 H         1 <0>         0.0758
     40 H7          2.3825    0.0992    0.4016 H         1 <0>         0.0712
     41 H8          0.0013   -0.0045   -0.0325 H         1 <0>         0.1324
     42 H9         -2.1454    1.1938   -0.0027 H         1 <0>         0.1323
     43 H10        -0.0356    4.9302   -0.1562 H         1 <0>         0.1363
     44 H11         2.7470    4.0802   -1.2536 H         1 <0>         0.0745
     45 H12         2.3481    4.8880    0.2815 H         1 <0>         0.0695
     46 H13         3.2455    3.3508    0.2916 H         1 <0>         0.0742
     47 H14        -3.8876    2.5087   -0.7865 H         1 <0>         0.0961
     48 H15        -3.8362    2.4992    0.9200 H         1 <0>         0.1095
     49 H16        -6.1825    6.2107    0.0244 H         1 <0>         0.1519
     50 H17        -8.1485    7.6842    0.0402 H         1 <0>         0.1377
     51 H18       -10.7208    4.2688    0.2108 H         1 <0>         0.1388
     52 H19        -8.7630    2.7848    0.1839 H         1 <0>         0.1495
     53 H20       -12.5715    8.6807    2.8666 H         1 <0>         0.1064
     54 H21       -13.5150    9.7699    1.8474 H         1 <0>         0.1032
     55 H22       -13.6924    6.0884   -0.1601 H         1 <0>         0.0875
     56 H23       -14.4406    7.1384   -1.3650 H         1 <0>         0.1031
@<TRIPOS>BOND
     1    1    2 1
     2    1   38 1
     3    1   39 1
     4    1   40 1
     5    2    7 ar
     6    2    3 ar
     7    3    4 ar
     8    3   41 1
     9    4    5 ar
    10    4   42 1
    11    5    6 ar
    12    5    9 1
    13    6    7 ar
    14    6   43 1
    15    7    8 1
    16    8   44 1
    17    8   45 1
    18    8   46 1
    19    9   10 2
    20    9   11 1
    21   11   12 1
    22   11   47 1
    23   11   48 1
    24   12   13 1
    25   13   14 2
    26   13   15 1
    27   15   20 ar
    28   15   16 ar
    29   16   17 ar
    30   16   49 1
    31   17   18 ar
    32   17   50 1
    33   18   19 ar
    34   18   21 1
    35   19   20 ar
    36   19   51 1
    37   20   52 1
    38   21   34 am
    39   21   22 am
    40   22   23 2
    41   22   24 1
    42   24   25 1
    43   24   32 1
    44   24   26 1
    45   26   27 1
    46   26   53 1
    47   26   54 1
    48   27   28 1
    49   27   29 1
    50   27   37 1
    51   29   30 1
    52   29   31 1
    53   29   36 1
    54   31   32 1
    55   31   55 1
    56   31   56 1
    57   32   33 1
    58   32   34 1
    59   34   35 2
@<TRIPOS>MOLECULE
ZINC18058000
   54    58     0     0     0
SMALL
USER_CHARGES

@<TRIPOS>ATOM
      1 C1         -0.0164    1.3575    0.0095 C.ar      1 <0>        -0.0994
      2 C2          1.1681    2.0917    0.0021 C.ar      1 <0>        -0.1186
      3 C3          2.3778    1.4684   -0.0127 C.ar      1 <0>        -0.0938
      4 C4          2.4367    0.0628   -0.0207 C.ar      1 <0>        -0.0693
      5 C5          3.6667   -0.6105   -0.0354 C.ar      1 <0>        -0.0238
      6 C6          3.6843   -1.9985   -0.0425 C.ar      1 <0>        -0.1674
      7 C7          2.4786   -2.7277   -0.0356 C.ar      1 <0>        -0.0867
      8 C8          1.2813   -2.0907   -0.0218 C.ar      1 <0>        -0.1096
      9 C9          1.2309   -0.6840   -0.0133 C.ar      1 <0>        -0.0274
     10 C10         0.0021   -0.0041    0.0020 C.ar      1 <0>        -0.1147
     11 C11         4.9698   -2.7126   -0.0580 C.2       1 <0>         0.3990
     12 O1          6.0098   -2.0890   -0.0644 O.2       1 <0>        -0.4261
     13 C12         4.9947   -4.2194   -0.0658 C.3       1 <0>         0.0215
     14 O2          6.3496   -4.6734   -0.0805 O.3       1 <0>        -0.3302
     15 C13         6.5482   -6.0061   -0.0891 C.2       1 <0>         0.5137
     16 O3          5.5970   -6.7620   -0.0841 O.2       1 <0>        -0.5007
     17 C14         7.9203   -6.5472   -0.1044 C.ar      1 <0>        -0.1404
     18 C15         9.0159   -5.6792   -0.1043 C.ar      1 <0>        -0.0340
     19 C16        10.2952   -6.1881   -0.1187 C.ar      1 <0>        -0.1574
     20 C17        10.4981   -7.5638   -0.1333 C.ar      1 <0>         0.1599
     21 C18         9.4106   -8.4307   -0.1335 C.ar      1 <0>        -0.1566
     22 C19         8.1283   -7.9294   -0.1133 C.ar      1 <0>        -0.0275
     23 N1         11.7983   -8.0766   -0.1484 N.am      1 <0>        -0.5368
     24 C20        12.9081   -7.2932   -0.1438 C.2       1 <0>         0.5422
     25 O4         12.9575   -6.1030    0.0810 O.2       1 <0>        -0.4444
     26 C21        14.0589   -8.1950   -0.4725 C.3       1 <0>        -0.1287
     27 H1         14.1752   -8.2830   -1.5527 H         1 <0>         0.1329
     28 C22        15.3970   -7.9171    0.1795 C.3       1 <0>        -0.0690
     29 C23        16.2556   -9.1456   -0.0368 C.2       1 <0>        -0.1538
     30 C24        15.7927  -10.3161   -0.3567 C.2       1 <0>        -0.1532
     31 C25        14.3232  -10.6346   -0.5360 C.3       1 <0>        -0.0695
     32 C26        13.5371   -9.5355    0.1313 C.3       1 <0>        -0.1299
     33 H2         13.7142   -9.5642    1.2064 H         1 <0>         0.1326
     34 C27        12.0743   -9.4066   -0.1631 C.2       1 <0>         0.5442
     35 O5         11.2934  -10.3094   -0.3740 O.2       1 <0>        -0.4454
     36 H3         -0.9635    1.8763    0.0259 H         1 <0>         0.1277
     37 H4          1.1254    3.1708    0.0079 H         1 <0>         0.1281
     38 H5          3.2879    2.0498   -0.0186 H         1 <0>         0.1323
     39 H6          4.5922   -0.0540   -0.0415 H         1 <0>         0.1428
     40 H7          2.5083   -3.8073   -0.0417 H         1 <0>         0.1330
     41 H8          0.3656   -2.6634   -0.0173 H         1 <0>         0.1358
     42 H9         -0.9245   -0.5589    0.0082 H         1 <0>         0.1319
     43 H10         4.4951   -4.5957    0.8269 H         1 <0>         0.1075
     44 H11         4.4788   -4.5867   -0.9529 H         1 <0>         0.1075
     45 H12         8.8591   -4.6107   -0.0934 H         1 <0>         0.1499
     46 H13        11.1422   -5.5180   -0.1190 H         1 <0>         0.1622
     47 H14         9.5721   -9.4985   -0.1448 H         1 <0>         0.1633
     48 H15         7.2843   -8.6032   -0.1085 H         1 <0>         0.1477
     49 H16        15.8647   -7.0494   -0.2857 H         1 <0>         0.0945
     50 H17        15.2616   -7.7407    1.2466 H         1 <0>         0.0887
     51 H18        17.3239   -9.0413    0.0825 H         1 <0>         0.1168
     52 H19        16.5034  -11.1157   -0.5050 H         1 <0>         0.1171
     53 H20        14.0748  -10.6605   -1.5970 H         1 <0>         0.0872
     54 H21        14.0914  -11.5947   -0.0749 H         1 <0>         0.0944
@<TRIPOS>BOND
     1    1   10 ar
     2    1    2 ar
     3    1   36 1
     4    2    3 ar
     5    2   37 1
     6    3    4 ar
     7    3   38 1
     8    4    9 ar
     9    4    5 ar
    10    5    6 ar
    11    5   39 1
    12    6    7 ar
    13    6   11 1
    14    7    8 ar
    15    7   40 1
    16    8    9 ar
    17    8   41 1
    18    9   10 ar
    19   10   42 1
    20   11   12 2
    21   11   13 1
    22   13   14 1
    23   13   43 1
    24   13   44 1
    25   14   15 1
    26   15   16 2
    27   15   17 1
    28   17   22 ar
    29   17   18 ar
    30   18   19 ar
    31   18   45 1
    32   19   20 ar
    33   19   46 1
    34   20   21 ar
    35   20   23 1
    36   21   22 ar
    37   21   47 1
    38   22   48 1
    39   23   34 am
    40   23   24 am
    41   24   25 2
    42   24   26 1
    43   26   27 1
    44   26   32 1
    45   26   28 1
    46   28   29 1
    47   28   49 1
    48   28   50 1
    49   29   30 2
    50   29   51 1
    51   30   31 1
    52   30   52 1
    53   31   32 1
    54   31   53 1
    55   31   54 1
    56   32   33 1
    57   32   34 1
    58   34   35 2
@<TRIPOS>MOLECULE
ZINC17986746
   59    62     0     0     0
SMALL
USER_CHARGES

@<TRIPOS>ATOM
      1 C1          0.6240    1.5034   -0.0574 C.3       1 <0>        -0.1248
      2 C2          0.6053   -0.0035   -0.0616 C.ar      1 <0>        -0.0497
      3 C3          0.3547   -0.6857   -1.2398 C.ar      1 <0>        -0.1278
      4 C4          0.3359   -2.0641   -1.2518 C.ar      1 <0>        -0.0762
      5 C5          0.5708   -2.7734   -0.0693 C.ar      1 <0>        -0.1704
      6 C6          0.8231   -2.0770    1.1167 C.ar      1 <0>        -0.0523
      7 C7          0.8442   -0.6981    1.1112 C.ar      1 <0>        -0.0982
      8 C8          1.1220    0.0544    2.3870 C.3       1 <0>        -0.1187
      9 C9          0.5520   -4.2449   -0.0733 C.2       1 <0>         0.3996
     10 O1          0.7561   -4.8567    0.9535 O.2       1 <0>        -0.4261
     11 C10         0.2792   -4.9915   -1.3537 C.3       1 <0>         0.0212
     12 O2          0.3139   -6.3977   -1.1017 O.3       1 <0>        -0.3299
     13 C11         0.0880   -7.2129   -2.1506 C.2       1 <0>         0.5134
     14 O3         -0.1326   -6.7426   -3.2490 O.2       1 <0>        -0.5007
     15 C12         0.1083   -8.6761   -1.9652 C.ar      1 <0>        -0.1383
     16 C13         0.3561   -9.2189   -0.7012 C.ar      1 <0>        -0.0361
     17 C14         0.3743  -10.5853   -0.5322 C.ar      1 <0>        -0.1536
     18 C15         0.1465  -11.4250   -1.6171 C.ar      1 <0>         0.1547
     19 C16        -0.1004  -10.8887   -2.8763 C.ar      1 <0>        -0.1526
     20 C17        -0.1259   -9.5233   -3.0520 C.ar      1 <0>        -0.0296
     21 N1          0.1663  -12.8116   -1.4416 N.am      1 <0>        -0.5266
     22 C18         0.0857  -13.6806   -2.4641 C.2       1 <0>         0.5267
     23 O4          0.1360  -13.4028   -3.6430 O.2       1 <0>        -0.4526
     24 C19        -0.0795  -15.0807   -1.8758 C.3       1 <0>        -0.1025
     25 H1          0.5358  -15.7986   -2.4182 H         1 <0>         0.1302
     26 C20        -1.5447  -15.4589   -1.9745 C.3       1 <0>        -0.1087
     27 C21        -1.9570  -16.4781   -0.9214 C.3       1 <0>        -0.1123
     28 C22        -1.6859  -15.8810    0.4641 C.3       1 <0>        -0.0957
     29 H2         -2.1741  -14.9101    0.5481 H         1 <0>         0.0712
     30 C23        -0.1791  -15.7147    0.6236 C.3       1 <0>        -0.1002
     31 C24         0.4547  -14.8808   -0.4644 C.3       1 <0>        -0.1116
     32 H3          1.5281  -15.0694   -0.4812 H         1 <0>         0.1244
     33 C25         0.2735  -13.3968   -0.2336 C.2       1 <0>         0.5301
     34 O5          0.2307  -12.8379    0.8412 O.2       1 <0>        -0.4497
     35 C26        -2.2198  -16.8226    1.5454 C.3       1 <0>        -0.1461
     36 H4          1.6340    1.8547   -0.2683 H         1 <0>         0.0777
     37 H5         -0.0577    1.8773   -0.8213 H         1 <0>         0.0717
     38 H6          0.3092    1.8679    0.9204 H         1 <0>         0.0738
     39 H7          0.1732   -0.1366   -2.1519 H         1 <0>         0.1322
     40 H8          0.1399   -2.5949   -2.1717 H         1 <0>         0.1325
     41 H9          1.0051   -2.6176    2.0338 H         1 <0>         0.1361
     42 H10         0.1834    0.2478    2.9065 H         1 <0>         0.0742
     43 H11         1.7746   -0.5411    3.0254 H         1 <0>         0.0700
     44 H12         1.6088    1.0009    2.1519 H         1 <0>         0.0723
     45 H13        -0.7043   -4.7146   -1.7332 H         1 <0>         0.1068
     46 H14         1.0389   -4.7359   -2.0923 H         1 <0>         0.1068
     47 H15         0.5335   -8.5674    0.1417 H         1 <0>         0.1498
     48 H16         0.5661  -11.0054    0.4441 H         1 <0>         0.1629
     49 H17        -0.2769  -11.5440   -3.7164 H         1 <0>         0.1633
     50 H18        -0.3225   -9.1075   -4.0292 H         1 <0>         0.1476
     51 H19        -2.1496  -14.5606   -1.8514 H         1 <0>         0.0642
     52 H20        -1.7350  -15.8769   -2.9630 H         1 <0>         0.0852
     53 H21        -3.0191  -16.7006   -1.0230 H         1 <0>         0.0759
     54 H22        -1.3747  -17.3909   -1.0473 H         1 <0>         0.0741
     55 H23         0.0223  -15.2473    1.5875 H         1 <0>         0.0849
     56 H24         0.2862  -16.7003    0.6101 H         1 <0>         0.0827
     57 H25        -1.7212  -17.7885    1.4646 H         1 <0>         0.0583
     58 H26        -2.0250  -16.3943    2.5286 H         1 <0>         0.0580
     59 H27        -3.2935  -16.9558    1.4134 H         1 <0>         0.0587
@<TRIPOS>BOND
     1    1    2 1
     2    1   36 1
     3    1   37 1
     4    1   38 1
     5    2    7 ar
     6    2    3 ar
     7    3    4 ar
     8    3   39 1
     9    4    5 ar
    10    4   40 1
    11    5    6 ar
    12    5    9 1
    13    6    7 ar
    14    6   41 1
    15    7    8 1
    16    8   42 1
    17    8   43 1
    18    8   44 1
    19    9   10 2
    20    9   11 1
    21   11   12 1
    22   11   45 1
    23   11   46 1
    24   12   13 1
    25   13   14 2
    26   13   15 1
    27   15   20 ar
    28   15   16 ar
    29   16   17 ar
    30   16   47 1
    31   17   18 ar
    32   17   48 1
    33   18   19 ar
    34   18   21 1
    35   19   20 ar
    36   19   49 1
    37   20   50 1
    38   21   33 am
    39   21   22 am
    40   22   23 2
    41   22   24 1
    42   24   25 1
    43   24   31 1
    44   24   26 1
    45   26   27 1
    46   26   51 1
    47   26   52 1
    48   27   28 1
    49   27   53 1
    50   27   54 1
    51   28   29 1
    52   28   30 1
    53   28   35 1
    54   30   31 1
    55   30   55 1
    56   30   56 1
    57   31   32 1
    58   31   33 1
    59   33   34 2
    60   35   57 1
    61   35   58 1
    62   35   59 1
@<TRIPOS>MOLECULE
ZINC17986749
   59    62     0     0     0
SMALL
USER_CHARGES

@<TRIPOS>ATOM
      1 C1         -0.0993    1.5016    0.0098 C.3       1 <0>        -0.1248
      2 C2         -0.0739   -0.0052    0.0015 C.ar      1 <0>        -0.0497
      3 C3         -0.0383   -0.6866   -1.2029 C.ar      1 <0>        -0.1278
      4 C4         -0.0150   -2.0650   -1.2188 C.ar      1 <0>        -0.0762
      5 C5         -0.0273   -2.7749   -0.0137 C.ar      1 <0>        -0.1704
      6 C6         -0.0633   -2.0792    1.1988 C.ar      1 <0>        -0.0523
      7 C7         -0.0806   -0.7002    1.1981 C.ar      1 <0>        -0.0982
      8 C8         -0.1132    0.0516    2.5038 C.3       1 <0>        -0.1187
      9 C9         -0.0030   -4.2463   -0.0218 C.2       1 <0>         0.3996
     10 O1         -0.0138   -4.8586    1.0248 O.2       1 <0>        -0.4261
     11 C10         0.0353   -4.9921   -1.3307 C.3       1 <0>         0.0212
     12 O2          0.0533   -6.3984   -1.0774 O.3       1 <0>        -0.3299
     13 C11         0.0880   -7.2128   -2.1502 C.2       1 <0>         0.5134
     14 O3          0.1025   -6.7420   -3.2702 O.2       1 <0>        -0.5008
     15 C12         0.1083   -8.6761   -1.9650 C.ar      1 <0>        -0.1384
     16 C13         0.0858   -9.2198   -0.6775 C.ar      1 <0>        -0.0360
     17 C14         0.1049  -10.5861   -0.5087 C.ar      1 <0>        -0.1535
     18 C15         0.1465  -11.4250   -1.6171 C.ar      1 <0>         0.1549
     19 C16         0.1690  -10.8879   -2.8997 C.ar      1 <0>        -0.1529
     20 C17         0.1443   -9.5226   -3.0767 C.ar      1 <0>        -0.0294
     21 N1          0.1663  -12.8116   -1.4416 N.am      1 <0>        -0.5268
     22 C18         0.0856  -13.6824   -2.4664 C.2       1 <0>         0.5329
     23 O4         -0.1520  -13.4108   -3.6236 O.2       1 <0>        -0.4505
     24 C19         0.3467  -15.0607   -1.9046 C.3       1 <0>        -0.1122
     25 H1          1.4178  -15.2455   -1.9865 H         1 <0>         0.1224
     26 C20        -0.3579  -16.1543   -2.6344 C.3       1 <0>        -0.1061
     27 C21        -1.7804  -16.4336   -2.1948 C.3       1 <0>        -0.1174
     28 C22        -1.8692  -16.4918   -0.6710 C.3       1 <0>        -0.0882
     29 H2         -1.2064  -17.2706   -0.2939 H         1 <0>         0.0813
     30 C23        -1.4405  -15.1356   -0.1123 C.3       1 <0>        -0.1097
     31 C24         0.0241  -14.8938   -0.4195 C.3       1 <0>        -0.1010
     32 H3          0.6711  -15.5050    0.2097 H         1 <0>         0.1363
     33 C25         0.2734  -13.3959   -0.2353 C.2       1 <0>         0.5262
     34 O5          0.5207  -12.8353    0.8107 O.2       1 <0>        -0.4513
     35 C26        -3.3091  -16.7919   -0.2497 C.3       1 <0>        -0.1490
     36 H4          0.9220    1.8820    0.0275 H         1 <0>         0.0777
     37 H5         -0.6056    1.8613   -0.8860 H         1 <0>         0.0717
     38 H6         -0.6327    1.8511    0.8938 H         1 <0>         0.0738
     39 H7         -0.0292   -0.1370   -2.1326 H         1 <0>         0.1322
     40 H8          0.0124   -2.5952   -2.1593 H         1 <0>         0.1325
     41 H9         -0.0733   -2.6204    2.1334 H         1 <0>         0.1361
     42 H10        -1.1485    0.2157    2.8028 H         1 <0>         0.0741
     43 H11         0.3987   -0.5297    3.2707 H         1 <0>         0.0700
     44 H12         0.3865    1.0126    2.3822 H         1 <0>         0.0723
     45 H13        -0.8475   -4.7401   -1.9184 H         1 <0>         0.1068
     46 H14         0.9319   -4.7109   -1.8830 H         1 <0>         0.1068
     47 H15         0.0539   -8.5689    0.1837 H         1 <0>         0.1498
     48 H16         0.0880  -11.0069    0.4858 H         1 <0>         0.1623
     49 H17         0.2013  -11.5425   -3.7581 H         1 <0>         0.1636
     50 H18         0.1569   -9.1063   -4.0732 H         1 <0>         0.1476
     51 H19        -0.3727  -15.9016   -3.6946 H         1 <0>         0.0842
     52 H20         0.2210  -17.0704   -2.5163 H         1 <0>         0.0805
     53 H21        -2.4325  -15.6416   -2.5630 H         1 <0>         0.0633
     54 H22        -2.1044  -17.3877   -2.6105 H         1 <0>         0.0766
     55 H23        -2.0401  -14.3493   -0.5707 H         1 <0>         0.0671
     56 H24        -1.5942  -15.1237    0.9668 H         1 <0>         0.0858
     57 H25        -3.6173  -17.7508   -0.6665 H         1 <0>         0.0603
     58 H26        -3.3685  -16.8326    0.8380 H         1 <0>         0.0586
     59 H27        -3.9674  -16.0062   -0.6203 H         1 <0>         0.0556
@<TRIPOS>BOND
     1    1    2 1
     2    1   36 1
     3    1   37 1
     4    1   38 1
     5    2    7 ar
     6    2    3 ar
     7    3    4 ar
     8    3   39 1
     9    4    5 ar
    10    4   40 1
    11    5    6 ar
    12    5    9 1
    13    6    7 ar
    14    6   41 1
    15    7    8 1
    16    8   42 1
    17    8   43 1
    18    8   44 1
    19    9   10 2
    20    9   11 1
    21   11   12 1
    22   11   45 1
    23   11   46 1
    24   12   13 1
    25   13   14 2
    26   13   15 1
    27   15   20 ar
    28   15   16 ar
    29   16   17 ar
    30   16   47 1
    31   17   18 ar
    32   17   48 1
    33   18   19 ar
    34   18   21 1
    35   19   20 ar
    36   19   49 1
    37   20   50 1
    38   21   33 am
    39   21   22 am
    40   22   23 2
    41   22   24 1
    42   24   25 1
    43   24   31 1
    44   24   26 1
    45   26   27 1
    46   26   51 1
    47   26   52 1
    48   27   28 1
    49   27   53 1
    50   27   54 1
    51   28   29 1
    52   28   30 1
    53   28   35 1
    54   30   31 1
    55   30   55 1
    56   30   56 1
    57   31   32 1
    58   31   33 1
    59   33   34 2
    60   35   57 1
    61   35   58 1
    62   35   59 1
@<TRIPOS>MOLECULE
ZINC01174116
   54    57     0     0     0
SMALL
USER_CHARGES
[2-(4-methoxy-3-nitro-phenyl)-2-oxo-ethyl] 4-(1,3-dioxo-3a,4,7,7a-tetrahydroisoindol-2-yl)benzoate
@<TRIPOS>ATOM
      1 C1          2.3037   -0.3098   -0.0207 C.3       1 <0>         0.0139
      2 O1          2.3650    1.1179   -0.0141 O.3       1 <0>        -0.2729
      3 C2          1.1838    1.7850    0.0003 C.ar      1 <0>         0.2305
      4 C3         -0.0126    1.0758    0.0080 C.ar      1 <0>        -0.2200
      5 C4         -1.2060    1.7400    0.0172 C.ar      1 <0>         0.0140
      6 C5         -1.2281    3.1402    0.0297 C.ar      1 <0>        -0.2061
      7 C6         -0.0238    3.8548    0.0216 C.ar      1 <0>         0.0452
      8 C7          1.1735    3.1757    0.0070 C.ar      1 <0>        -0.0928
      9 N1          2.4496    3.9255   -0.0012 N.pl3     1 <0>         0.0334
     10 O2          2.4405    5.1434    0.0047 O.2       1 <0>        -0.1669
     11 O3          3.5090    3.3245   -0.0137 O.3       1 <0>        -0.1297
     12 C8         -2.5099    3.8568    0.0453 C.2       1 <0>         0.4011
     13 O4         -2.5267    5.0696    0.0511 O.2       1 <0>        -0.4127
     14 C9         -3.8044    3.0852    0.0540 C.3       1 <0>         0.0377
     15 O5         -4.9210    4.0133    0.0690 O.3       1 <0>        -0.3336
     16 C10        -6.1588    3.4810    0.0783 C.2       1 <0>         0.5159
     17 O6         -6.3013    2.2744    0.0740 O.2       1 <0>        -0.5017
     18 C11        -7.3409    4.3633    0.0936 C.ar      1 <0>        -0.1412
     19 C12        -7.1790    5.7516    0.1044 C.ar      1 <0>        -0.0347
     20 C13        -8.2848    6.5719    0.1133 C.ar      1 <0>        -0.1571
     21 C14        -9.5616    6.0206    0.1224 C.ar      1 <0>         0.1575
     22 C15        -9.7267    4.6397    0.1176 C.ar      1 <0>        -0.1562
     23 C16        -8.6258    3.8130    0.1033 C.ar      1 <0>        -0.0279
     24 N2        -10.6818    6.8566    0.1370 N.am      1 <0>        -0.5304
     25 C17       -10.5957    8.2008    0.1424 C.2       1 <0>         0.5245
     26 O7         -9.5985    8.8584   -0.0644 O.2       1 <0>        -0.4476
     27 C18       -11.9983    8.7456    0.4598 C.3       1 <0>        -0.0957
     28 H1        -12.2177    9.6987   -0.0213 H         1 <0>         0.1450
     29 C19       -12.0630    8.7930    1.9885 C.3       1 <0>        -0.0869
     30 C20       -13.3993    8.4726    2.5410 C.2       1 <0>        -0.1563
     31 C21       -14.3475    7.8877    1.8877 C.2       1 <0>        -0.1467
     32 C22       -14.2287    7.4857    0.4516 C.3       1 <0>        -0.0769
     33 C23       -12.8384    7.5791   -0.0850 C.3       1 <0>        -0.1232
     34 H2        -12.9138    7.7171   -1.1636 H         1 <0>         0.1234
     35 C24       -11.9505    6.3899    0.1410 C.2       1 <0>         0.5411
     36 O8        -12.3019    5.2404    0.2977 O.2       1 <0>        -0.4457
     37 H3          1.7664   -0.6463   -0.9074 H         1 <0>         0.0683
     38 H4          3.3147   -0.7168   -0.0322 H         1 <0>         0.1181
     39 H5          1.7831   -0.6553    0.8725 H         1 <0>         0.0683
     40 H6          0.0021   -0.0041    0.0020 H         1 <0>         0.1625
     41 H7         -2.1326    1.1853    0.0186 H         1 <0>         0.1556
     42 H8         -0.0343    4.9347    0.0264 H         1 <0>         0.1737
     43 H9         -3.8571    2.5134   -0.7647 H         1 <0>         0.0976
     44 H10        -3.8450    2.4536    0.9415 H         1 <0>         0.1113
     45 H11        -6.1877    6.1804    0.1017 H         1 <0>         0.1501
     46 H12        -8.1605    7.6447    0.1178 H         1 <0>         0.1646
     47 H13       -10.7198    4.2153    0.1254 H         1 <0>         0.1656
     48 H14        -8.7548    2.7407    0.0999 H         1 <0>         0.1477
     49 H15       -11.3538    8.0697    2.3910 H         1 <0>         0.0748
     50 H16       -11.7689    9.7888    2.3202 H         1 <0>         0.0961
     51 H17       -13.5985    8.7565    3.5638 H         1 <0>         0.1151
     52 H18       -15.2727    7.6786    2.4040 H         1 <0>         0.1187
     53 H19       -14.8762    8.1286   -0.1447 H         1 <0>         0.0968
     54 H20       -14.5736    6.4569    0.3482 H         1 <0>         0.0948
@<TRIPOS>BOND
     1    1    2 1
     2    1   37 1
     3    1   38 1
     4    1   39 1
     5    2    3 1
     6    3    8 ar
     7    3    4 ar
     8    4    5 ar
     9    4   40 1
    10    5    6 ar
    11    5   41 1
    12    6    7 ar
    13    6   12 1
    14    7    8 ar
    15    7   42 1
    16    8    9 1
    17    9   10 2
    18    9   11 1
    19   12   13 2
    20   12   14 1
    21   14   15 1
    22   14   43 1
    23   14   44 1
    24   15   16 1
    25   16   17 2
    26   16   18 1
    27   18   23 ar
    28   18   19 ar
    29   19   20 ar
    30   19   45 1
    31   20   21 ar
    32   20   46 1
    33   21   22 ar
    34   21   24 1
    35   22   23 ar
    36   22   47 1
    37   23   48 1
    38   24   35 am
    39   24   25 am
    40   25   26 2
    41   25   27 1
    42   27   28 1
    43   27   33 1
    44   27   29 1
    45   29   30 1
    46   29   49 1
    47   29   50 1
    48   30   31 2
    49   30   51 1
    50   31   32 1
    51   31   52 1
    52   32   33 1
    53   32   53 1
    54   32   54 1
    55   33   34 1
    56   33   35 1
    57   35   36 2
@<TRIPOS>MOLECULE
ZINC17986935
   54    57     0     0     0
SMALL
USER_CHARGES

@<TRIPOS>ATOM
      1 C1         -0.0173    1.4248    0.0099 C.3       1 <0>         0.0141
      2 O1          0.0021   -0.0041    0.0020 O.3       1 <0>        -0.2734
      3 C2          0.6247   -0.6173    1.0397 C.ar      1 <0>         0.2299
      4 C3          1.2015    0.1449    2.0500 C.ar      1 <0>        -0.2204
      5 C4          1.8302   -0.4649    3.0981 C.ar      1 <0>         0.0138
      6 C5          1.8959   -1.8624    3.1583 C.ar      1 <0>        -0.2058
      7 C6          1.3153   -2.6303    2.1413 C.ar      1 <0>         0.0445
      8 C7          0.6791   -2.0060    1.0923 C.ar      1 <0>        -0.0981
      9 N1          0.0580   -2.8124    0.0177 N.pl3     1 <0>         0.0392
     10 O2          0.1053   -4.0196    0.0636 O.2       1 <0>        -0.1660
     11 O3         -0.4968   -2.2639   -0.9059 O.3       1 <0>        -0.1291
     12 C8          2.5717   -2.5204    4.2839 C.2       1 <0>         0.4029
     13 O4          2.6274   -3.7311    4.3340 O.2       1 <0>        -0.4143
     14 C9          3.1960   -1.6916    5.3767 C.3       1 <0>         0.0225
     15 O5          3.7870   -2.5545    6.3505 O.3       1 <0>        -0.3289
     16 C10         4.3920   -1.9671    7.4015 C.2       1 <0>         0.5158
     17 O6          4.4171   -0.7556    7.4888 O.2       1 <0>        -0.5007
     18 C11         5.0239   -2.7952    8.4460 C.ar      1 <0>        -0.1424
     19 C12         5.0011   -4.1890    8.3443 C.ar      1 <0>        -0.0335
     20 C13         5.5919   -4.9586    9.3214 C.ar      1 <0>        -0.1576
     21 C14         6.2109   -4.3507   10.4083 C.ar      1 <0>         0.1616
     22 C15         6.2356   -2.9641   10.5130 C.ar      1 <0>        -0.1568
     23 C16         5.6520   -2.1877    9.5370 C.ar      1 <0>        -0.0268
     24 N2          6.8092   -5.1353   11.3984 N.am      1 <0>        -0.5372
     25 C17         6.8295   -6.4931   11.3616 C.2       1 <0>         0.5423
     26 O7          6.1846   -7.2108   10.6279 O.2       1 <0>        -0.4439
     27 C18         7.8098   -6.9259   12.4093 C.3       1 <0>        -0.1289
     28 H1          8.8201   -6.9403   12.0003 H         1 <0>         0.1329
     29 C19         7.5309   -8.2067   13.1671 C.3       1 <0>        -0.0691
     30 C20         8.4538   -8.2176   14.3677 C.2       1 <0>        -0.1537
     31 C21         9.0509   -7.1665   14.8426 C.2       1 <0>        -0.1534
     32 C22         8.8937   -5.7681   14.2833 C.3       1 <0>        -0.0700
     33 C23         7.6513   -5.7580   13.4313 C.3       1 <0>        -0.1293
     34 H2          6.7782   -5.9199   14.0634 H         1 <0>         0.1332
     35 C24         7.4315   -4.6136   12.4873 C.2       1 <0>         0.5443
     36 O8          7.7440   -3.4553   12.6614 O.2       1 <0>        -0.4451
     37 H3          1.0053    1.8021    0.0021 H         1 <0>         0.0681
     38 H4         -0.5445    1.7859   -0.8732 H         1 <0>         0.1179
     39 H5         -0.5275    1.7763    0.9067 H         1 <0>         0.0681
     40 H6          1.1523    1.2228    2.0055 H         1 <0>         0.1621
     41 H7          2.2770    0.1309    3.8803 H         1 <0>         0.1557
     42 H8          1.3627   -3.7085    2.1821 H         1 <0>         0.1732
     43 H9          3.9635   -1.0461    4.9497 H         1 <0>         0.1093
     44 H10         2.4293   -1.0793    5.8515 H         1 <0>         0.1093
     45 H11         4.5203   -4.6618    7.5007 H         1 <0>         0.1501
     46 H12         5.5744   -6.0356    9.2437 H         1 <0>         0.1629
     47 H13         6.7172   -2.4956   11.3585 H         1 <0>         0.1635
     48 H14         5.6758   -1.1109    9.6165 H         1 <0>         0.1476
     49 H15         6.4919   -8.2259   13.4961 H         1 <0>         0.0888
     50 H16         7.7370   -9.0678   12.5314 H         1 <0>         0.0947
     51 H17         8.6267   -9.1621   14.8620 H         1 <0>         0.1170
     52 H18         9.7028   -7.2987   15.6935 H         1 <0>         0.1171
     53 H19         8.7961   -5.0503   15.0977 H         1 <0>         0.0945
     54 H20         9.7549   -5.5158   13.6645 H         1 <0>         0.0870
@<TRIPOS>BOND
     1    1    2 1
     2    1   37 1
     3    1   38 1
     4    1   39 1
     5    2    3 1
     6    3    8 ar
     7    3    4 ar
     8    4    5 ar
     9    4   40 1
    10    5    6 ar
    11    5   41 1
    12    6    7 ar
    13    6   12 1
    14    7    8 ar
    15    7   42 1
    16    8    9 1
    17    9   10 2
    18    9   11 1
    19   12   13 2
    20   12   14 1
    21   14   15 1
    22   14   43 1
    23   14   44 1
    24   15   16 1
    25   16   17 2
    26   16   18 1
    27   18   23 ar
    28   18   19 ar
    29   19   20 ar
    30   19   45 1
    31   20   21 ar
    32   20   46 1
    33   21   22 ar
    34   21   24 1
    35   22   23 ar
    36   22   47 1
    37   23   48 1
    38   24   35 am
    39   24   25 am
    40   25   26 2
    41   25   27 1
    42   27   28 1
    43   27   33 1
    44   27   29 1
    45   29   30 1
    46   29   49 1
    47   29   50 1
    48   30   31 2
    49   30   51 1
    50   31   32 1
    51   31   52 1
    52   32   33 1
    53   32   53 1
    54   32   54 1
    55   33   34 1
    56   33   35 1
    57   35   36 2
@<TRIPOS>MOLECULE
ZINC05269603
   40    43     0     0     0
SMALL
USER_CHARGES
3-cyano-N-(2-phenylimidazo[3,2-a]pyridin-3-yl)benzamide
@<TRIPOS>ATOM
      1 C1          6.2195    7.1589   -0.3148 C.ar      1 <0>        -0.1128
      2 C2          5.7726    8.2414   -1.0512 C.ar      1 <0>        -0.1174
      3 C3          4.4424    8.6061   -1.0091 C.ar      1 <0>        -0.0847
      4 C4          3.5481    7.8809   -0.2224 C.ar      1 <0>        -0.0118
      5 C5          4.0055    6.7937    0.5215 C.ar      1 <0>        -0.1131
      6 C6          5.3370    6.4354    0.4671 C.ar      1 <0>        -0.1171
      7 C7          2.1184    8.2678   -0.1724 C.2       1 <0>         0.0940
      8 C8          1.0483    7.4040   -0.0619 C.2       1 <0>         0.1710
      9 N1         -0.0827    8.1743   -0.0574 N.pl3     1 <0>        -0.3551
     10 C9         -1.4106    7.8597    0.0368 C.2       1 <0>         0.0753
     11 C10        -2.3484    8.8286    0.0230 C.2       1 <0>        -0.1491
     12 C11        -1.9723   10.1791   -0.0824 C.2       1 <0>        -0.0926
     13 C12        -0.6563   10.5087   -0.1713 C.2       1 <0>        -0.0861
     14 C13         0.3159    9.4863   -0.1563 C.2       1 <0>         0.2372
     15 N2          1.6372    9.5216   -0.2272 N.2       1 <0>        -0.4642
     16 N3          1.1075    6.0133    0.0228 N.am      1 <0>        -0.6266
     17 C14         0.1684    5.3398    0.7163 C.2       1 <0>         0.5513
     18 O1         -0.6639    5.9479    1.3614 O.2       1 <0>        -0.5124
     19 C15         0.1501    3.8620    0.6927 C.ar      1 <0>        -0.1372
     20 C16         1.1057    3.1617   -0.0481 C.ar      1 <0>        -0.0565
     21 C17         1.0899    1.7815   -0.0717 C.ar      1 <0>        -0.1197
     22 C18         0.1311    1.0833    0.6355 C.ar      1 <0>        -0.0386
     23 C19        -0.8340    1.7708    1.3758 C.ar      1 <0>        -0.0275
     24 C20        -0.8203    3.1643    1.4086 C.ar      1 <0>        -0.0083
     25 C21        -1.8315    1.0456    2.1035 C.1       1 <0>         0.2463
     26 N4         -2.6228    0.4702    2.6808 N.1       1 <0>        -0.3977
     27 H1          7.2616    6.8774   -0.3507 H         1 <0>         0.1248
     28 H2          6.4661    8.8023   -1.6601 H         1 <0>         0.1271
     29 H3          4.0946    9.4514   -1.5844 H         1 <0>         0.1299
     30 H4          3.3184    6.2311    1.1360 H         1 <0>         0.1207
     31 H5          5.6916    5.5908    1.0393 H         1 <0>         0.1267
     32 H6         -1.7110    6.8255    0.1185 H         1 <0>         0.1747
     33 H7         -3.3936    8.5658    0.0936 H         1 <0>         0.1515
     34 H8         -2.7264   10.9522   -0.0932 H         1 <0>         0.1446
     35 H9         -0.3578   11.5434   -0.2523 H         1 <0>         0.1547
     36 H10         1.8246    5.5307   -0.4174 H         1 <0>         0.4243
     37 H11         1.8586    3.7015   -0.6032 H         1 <0>         0.1351
     38 H12         1.8307    1.2453   -0.6462 H         1 <0>         0.1468
     39 H13         0.1245    0.0036    0.6127 H         1 <0>         0.1433
     40 H14        -1.5614    3.7007    1.9826 H         1 <0>         0.1490
@<TRIPOS>BOND
     1    1    6 ar
     2    1    2 ar
     3    1   27 1
     4    2    3 ar
     5    2   28 1
     6    3    4 ar
     7    3   29 1
     8    4    5 ar
     9    4    7 1
    10    5    6 ar
    11    5   30 1
    12    6   31 1
    13    7   15 1
    14    7    8 2
    15    8    9 1
    16    8   16 1
    17    9   14 1
    18    9   10 1
    19   10   11 2
    20   10   32 1
    21   11   12 1
    22   11   33 1
    23   12   13 2
    24   12   34 1
    25   13   14 1
    26   13   35 1
    27   14   15 2
    28   16   17 am
    29   16   36 1
    30   17   18 2
    31   17   19 1
    32   19   24 ar
    33   19   20 ar
    34   20   21 ar
    35   20   37 1
    36   21   22 ar
    37   21   38 1
    38   22   23 ar
    39   22   39 1
    40   23   24 ar
    41   23   25 1
    42   24   40 1
    43   25   26 3
@<TRIPOS>MOLECULE
ZINC05269603
   41    44     0     0     0
SMALL
USER_CHARGES
3-cyano-N-(2-phenylimidazo[3,2-a]pyridin-3-yl)benzamide
@<TRIPOS>ATOM
      1 C1          6.2195    7.1589   -0.3148 C.ar      1 <0>        -0.0822
      2 C2          5.7726    8.2414   -1.0512 C.ar      1 <0>        -0.1071
      3 C3          4.4424    8.6061   -1.0091 C.ar      1 <0>        -0.0905
      4 C4          3.5481    7.8809   -0.2224 C.ar      1 <0>        -0.0688
      5 C5          4.0055    6.7937    0.5215 C.ar      1 <0>        -0.0909
      6 C6          5.3370    6.4354    0.4671 C.ar      1 <0>        -0.1070
      7 C7          2.1184    8.2678   -0.1724 C.2       1 <0>         0.1329
      8 C8          1.0483    7.4040   -0.0619 C.2       1 <0>         0.2446
      9 N1         -0.0827    8.1743   -0.0574 N.pl3     1 <0>        -0.3271
     10 C9         -1.4106    7.8597    0.0368 C.2       1 <0>         0.1030
     11 C10        -2.3484    8.8286    0.0230 C.2       1 <0>        -0.1223
     12 C11        -1.9723   10.1791   -0.0824 C.2       1 <0>        -0.0117
     13 C12        -0.6563   10.5087   -0.1713 C.2       1 <0>        -0.1307
     14 C13         0.3159    9.4863   -0.1563 C.cat     1 <0>         0.3191
     15 N2          1.1075    6.0133    0.0228 N.am      1 <0>        -0.6331
     16 C14         0.1684    5.3398    0.7163 C.2       1 <0>         0.5688
     17 O1         -0.6639    5.9479    1.3614 O.2       1 <0>        -0.5057
     18 C15         0.1501    3.8620    0.6927 C.ar      1 <0>        -0.1520
     19 C16         1.1057    3.1617   -0.0481 C.ar      1 <0>        -0.0553
     20 C17         1.0899    1.7815   -0.0717 C.ar      1 <0>        -0.1166
     21 C18         0.1311    1.0833    0.6355 C.ar      1 <0>        -0.0269
     22 C19        -0.8340    1.7708    1.3758 C.ar      1 <0>        -0.0187
     23 C20        -0.8203    3.1643    1.4086 C.ar      1 <0>        -0.0030
     24 C21        -1.8315    1.0456    2.1035 C.1       1 <0>         0.2359
     25 N3         -2.6228    0.4702    2.6808 N.1       1 <0>        -0.3816
     26 H1          7.2616    6.8774   -0.3507 H         1 <0>         0.1390
     27 H2          6.4661    8.8023   -1.6601 H         1 <0>         0.1400
     28 H3          4.0946    9.4514   -1.5844 H         1 <0>         0.1290
     29 H4          3.3184    6.2311    1.1360 H         1 <0>         0.1299
     30 H5          5.6916    5.5908    1.0393 H         1 <0>         0.1409
     31 H6         -1.7110    6.8255    0.1185 H         1 <0>         0.2051
     32 H7         -3.3936    8.5658    0.0936 H         1 <0>         0.1824
     33 H8         -2.7264   10.9522   -0.0932 H         1 <0>         0.1755
     34 H9         -0.3578   11.5434   -0.2523 H         1 <0>         0.1818
     35 H10         1.8246    5.5307   -0.4174 H         1 <0>         0.4373
     36 H11         1.8586    3.7015   -0.6032 H         1 <0>         0.1340
     37 H12         1.8307    1.2453   -0.6462 H         1 <0>         0.1513
     38 H13         0.1245    0.0036    0.6127 H         1 <0>         0.1489
     39 H14        -1.5614    3.7007    1.9826 H         1 <0>         0.1514
     40 N4          1.6366    9.5206   -0.2271 N.pl3     1 <0>        -0.4996
     41 H15         2.2045   10.3719   -0.3108 H         1 <0>         0.4798
@<TRIPOS>BOND
     1    1    6 ar
     2    1    2 ar
     3    1   26 1
     4    2    3 ar
     5    2   27 1
     6    3    4 ar
     7    3   28 1
     8    4    5 ar
     9    4    7 1
    10    5    6 ar
    11    5   29 1
    12    6   30 1
    13    7    8 2
    14    7   40 1
    15    8    9 1
    16    8   15 1
    17    9   14 1
    18    9   10 1
    19   10   11 2
    20   10   31 1
    21   11   12 1
    22   11   32 1
    23   12   13 2
    24   12   33 1
    25   13   14 1
    26   13   34 1
    27   14   40 2
    28   15   16 am
    29   15   35 1
    30   16   17 2
    31   16   18 1
    32   18   23 ar
    33   18   19 ar
    34   19   20 ar
    35   19   36 1
    36   20   21 ar
    37   20   37 1
    38   21   22 ar
    39   21   38 1
    40   22   23 ar
    41   22   24 1
    42   23   39 1
    43   24   25 3
    44   40   41 1
@<TRIPOS>MOLECULE
ZINC12545036
   29    30     0     0     0
SMALL
USER_CHARGES
3-cyano-N-(6-methyl-2-pyridyl)benzamide
@<TRIPOS>ATOM
      1 C1         -1.4365   10.0684   -0.1227 C.3       1 <0>        -0.1061
      2 C2         -0.1005    9.3717   -0.1502 C.ar      1 <0>         0.1616
      3 C3          1.0553   10.1183   -0.2701 C.ar      1 <0>        -0.2026
      4 C4          2.2828    9.4710   -0.2949 C.ar      1 <0>        -0.0435
      5 C5          2.3038    8.0910   -0.1921 C.ar      1 <0>        -0.2135
      6 C6          1.1011    7.4031   -0.0790 C.ar      1 <0>         0.3633
      7 N1         -0.0500    8.0568   -0.0591 N.ar      1 <0>        -0.4779
      8 N2          1.1075    6.0134    0.0200 N.am      1 <0>        -0.6580
      9 C7         -0.0559    5.3330    0.0268 C.2       1 <0>         0.5506
     10 O1         -1.1119    5.9348    0.0401 O.2       1 <0>        -0.4588
     11 C8         -0.0476    3.8548    0.0180 C.ar      1 <0>        -0.1348
     12 C9          1.1653    3.1615    0.0028 C.ar      1 <0>        -0.0597
     13 C10         1.1751    1.7810   -0.0059 C.ar      1 <0>        -0.1220
     14 C11        -0.0121    1.0757    0.0000 C.ar      1 <0>        -0.0432
     15 C12        -1.2324    1.7562    0.0099 C.ar      1 <0>        -0.0285
     16 C13        -1.2492    3.1499    0.0245 C.ar      1 <0>        -0.0104
     17 C14        -2.4627    1.0235    0.0105 C.1       1 <0>         0.2482
     18 N3         -3.4388    0.4422    0.0110 N.1       1 <0>        -0.4010
     19 H1         -1.6994   10.3096    0.9073 H         1 <0>         0.0803
     20 H2         -1.3797   10.9864   -0.7076 H         1 <0>         0.0767
     21 H3         -2.1968    9.4132   -0.5478 H         1 <0>         0.0802
     22 H4          1.0044   11.1946   -0.3441 H         1 <0>         0.1367
     23 H5          3.2011   10.0319   -0.3878 H         1 <0>         0.1399
     24 H6          3.2417    7.5556   -0.2033 H         1 <0>         0.1365
     25 H7          1.9492    5.5356    0.0841 H         1 <0>         0.4169
     26 H8          2.0975    3.7069   -0.0026 H         1 <0>         0.1341
     27 H9          2.1155    1.2502   -0.0177 H         1 <0>         0.1445
     28 H10         0.0026   -0.0041   -0.0075 H         1 <0>         0.1414
     29 H11        -2.1896    3.6810    0.0360 H         1 <0>         0.1489
@<TRIPOS>BOND
     1    1    2 1
     2    1   19 1
     3    1   20 1
     4    1   21 1
     5    2    7 ar
     6    2    3 ar
     7    3    4 ar
     8    3   22 1
     9    4    5 ar
    10    4   23 1
    11    5    6 ar
    12    5   24 1
    13    6    7 ar
    14    6    8 1
    15    8    9 am
    16    8   25 1
    17    9   10 2
    18    9   11 1
    19   11   16 ar
    20   11   12 ar
    21   12   13 ar
    22   12   26 1
    23   13   14 ar
    24   13   27 1
    25   14   15 ar
    26   14   28 1
    27   15   16 ar
    28   15   17 1
    29   16   29 1
    30   17   18 3
@<TRIPOS>MOLECULE
ZINC08598812
   47    50     0     0     0
SMALL
USER_CHARGES

@<TRIPOS>ATOM
      1 C1         -0.0173    1.4248    0.0099 C.3       1 <0>         0.0223
      2 O1          0.0021   -0.0041    0.0020 O.3       1 <0>        -0.3104
      3 C2          0.6050   -0.6063   -1.0542 C.ar      1 <0>         0.1638
      4 C3          1.1723    0.1659   -2.0612 C.ar      1 <0>        -0.2166
      5 C4          1.7853   -0.4412   -3.1344 C.ar      1 <0>        -0.0073
      6 C5          1.8366   -1.8357   -3.2103 C.ar      1 <0>        -0.1794
      7 C6          1.2650   -2.6084   -2.1958 C.ar      1 <0>        -0.0447
      8 C7          0.6585   -1.9935   -1.1233 C.ar      1 <0>        -0.1570
      9 C8          2.4921   -2.4905   -4.3588 C.2       1 <0>         0.5731
     10 O2          2.9886   -1.8166   -5.2408 O.2       1 <0>        -0.5004
     11 N1          2.5406   -3.8355   -4.4301 N.am      1 <0>        -0.6492
     12 C9          3.1597   -4.4539   -5.5148 C.2       1 <0>         0.3121
     13 C10         3.7570   -3.8265   -6.5620 C.2       1 <0>        -0.2527
     14 C11         4.2535   -4.8166   -7.4307 C.2       1 <0>         0.1369
     15 N2          3.9630   -5.9950   -6.9202 N.2       1 <0>        -0.2690
     16 N3          3.2803   -5.7960   -5.7135 N.pl3     1 <0>        -0.3390
     17 C12         2.8026   -6.8007   -4.8622 C.ar      1 <0>         0.1567
     18 C13         2.8077   -6.6079   -3.4870 C.ar      1 <0>        -0.1534
     19 C14         2.3356   -7.6002   -2.6503 C.ar      1 <0>        -0.0903
     20 C15         1.8587   -8.7849   -3.1807 C.ar      1 <0>        -0.1221
     21 C16         1.8528   -8.9801   -4.5497 C.ar      1 <0>        -0.0924
     22 C17         2.3177   -7.9892   -5.3920 C.ar      1 <0>        -0.1095
     23 C18         4.9788   -4.5742   -8.7024 C.ar      1 <0>        -0.0204
     24 C19         5.2271   -3.2708   -9.1282 C.ar      1 <0>        -0.0891
     25 C20         5.9025   -3.0511  -10.3116 C.ar      1 <0>        -0.1214
     26 C21         6.3323   -4.1218  -11.0747 C.ar      1 <0>        -0.1089
     27 C22         6.0881   -5.4177  -10.6570 C.ar      1 <0>        -0.1234
     28 C23         5.4190   -5.6490   -9.4722 C.ar      1 <0>        -0.0893
     29 H1          1.0053    1.8021    0.0021 H         1 <0>         0.0609
     30 H2         -0.5445    1.7859   -0.8732 H         1 <0>         0.0609
     31 H3         -0.5275    1.7763    0.9067 H         1 <0>         0.1058
     32 H4          1.1319    1.2435   -2.0020 H         1 <0>         0.1403
     33 H5          2.2256    0.1594   -3.9165 H         1 <0>         0.1442
     34 H6          1.3022   -3.6864   -2.2509 H         1 <0>         0.1297
     35 H7          0.2201   -2.5899   -0.3369 H         1 <0>         0.1420
     36 H8          2.1445   -4.3731   -3.7265 H         1 <0>         0.4118
     37 H9          3.8365   -2.7587   -6.7026 H         1 <0>         0.1827
     38 H10         3.1807   -5.6832   -3.0721 H         1 <0>         0.1250
     39 H11         2.3393   -7.4509   -1.5807 H         1 <0>         0.1362
     40 H12         1.4904   -9.5595   -2.5244 H         1 <0>         0.1326
     41 H13         1.4803   -9.9067   -4.9609 H         1 <0>         0.1353
     42 H14         2.3083   -8.1402   -6.4614 H         1 <0>         0.1365
     43 H15         4.8914   -2.4342   -8.5335 H         1 <0>         0.1303
     44 H16         6.0955   -2.0414  -10.6426 H         1 <0>         0.1277
     45 H17         6.8601   -3.9454  -12.0002 H         1 <0>         0.1245
     46 H18         6.4252   -6.2500  -11.2570 H         1 <0>         0.1260
     47 H19         5.2328   -6.6612   -9.1447 H         1 <0>         0.1286
@<TRIPOS>BOND
     1    1    2 1
     2    1   29 1
     3    1   30 1
     4    1   31 1
     5    2    3 1
     6    3    8 ar
     7    3    4 ar
     8    4    5 ar
     9    4   32 1
    10    5    6 ar
    11    5   33 1
    12    6    7 ar
    13    6    9 1
    14    7    8 ar
    15    7   34 1
    16    8   35 1
    17    9   10 2
    18    9   11 am
    19   11   12 1
    20   11   36 1
    21   12   16 1
    22   12   13 2
    23   13   14 1
    24   13   37 1
    25   14   15 2
    26   14   23 1
    27   15   16 1
    28   16   17 1
    29   17   22 ar
    30   17   18 ar
    31   18   19 ar
    32   18   38 1
    33   19   20 ar
    34   19   39 1
    35   20   21 ar
    36   20   40 1
    37   21   22 ar
    38   21   41 1
    39   22   42 1
    40   23   28 ar
    41   23   24 ar
    42   24   25 ar
    43   24   43 1
    44   25   26 ar
    45   25   44 1
    46   26   27 ar
    47   26   45 1
    48   27   28 ar
    49   27   46 1
    50   28   47 1
@<TRIPOS>MOLECULE
ZINC13234467
   28    29     0     0     0
SMALL
USER_CHARGES
3-iodo-N-(6-methyl-2-pyridyl)benzamide
@<TRIPOS>ATOM
      1 C1         -2.5817    4.0277    0.0664 C.3       1 <0>        -0.1054
      2 C2         -1.2375    3.3468    0.0423 C.ar      1 <0>         0.1611
      3 C3         -0.0866    4.1103    0.0317 C.ar      1 <0>        -0.2028
      4 C4          1.1485    3.4775    0.0100 C.ar      1 <0>        -0.0430
      5 C5          1.1816    2.0939    0.0052 C.ar      1 <0>        -0.2137
      6 C6         -0.0166    1.3890    0.0116 C.ar      1 <0>         0.3637
      7 N1         -1.1752    2.0293    0.0322 N.ar      1 <0>        -0.4778
      8 N2          0.0021   -0.0041    0.0020 N.am      1 <0>        -0.6590
      9 C7         -1.1504   -0.6943    0.1110 C.2       1 <0>         0.5518
     10 O1         -2.2131   -0.1044    0.1245 O.2       1 <0>        -0.4589
     11 C8         -1.1221   -2.1684    0.2142 C.ar      1 <0>        -0.1306
     12 C9         -2.3141   -2.8864    0.3273 C.ar      1 <0>        -0.0389
     13 C10        -2.2810   -4.2620    0.4233 C.ar      1 <0>        -0.1179
     14 C11        -1.0698   -4.9309    0.4072 C.ar      1 <0>        -0.0578
     15 C12         0.1157   -4.2256    0.2954 C.ar      1 <0>        -0.1097
     16 C13         0.0962   -2.8492    0.1933 C.ar      1 <0>        -0.0549
     17 I1          1.9432   -5.2497    0.2723 I         1 <0>        -0.0287
     18 H1         -2.8910    4.1847    1.0997 H         1 <0>         0.0802
     19 H2         -2.5109    4.9894   -0.4418 H         1 <0>         0.0768
     20 H3         -3.3153    3.4016   -0.4414 H         1 <0>         0.0799
     21 H4         -0.1471    5.1886    0.0397 H         1 <0>         0.1368
     22 H5          2.0632    4.0517    0.0013 H         1 <0>         0.1400
     23 H6          2.1253    1.5690   -0.0075 H         1 <0>         0.1363
     24 H7          0.8446   -0.4772   -0.0831 H         1 <0>         0.4161
     25 H8         -3.2603   -2.3658    0.3392 H         1 <0>         0.1459
     26 H9         -3.2025   -4.8183    0.5108 H         1 <0>         0.1429
     27 H10        -1.0495   -6.0081    0.4820 H         1 <0>         0.1371
     28 H11         1.0215   -2.3000    0.1012 H         1 <0>         0.1306
@<TRIPOS>BOND
     1    1    2 1
     2    1   18 1
     3    1   19 1
     4    1   20 1
     5    2    7 ar
     6    2    3 ar
     7    3    4 ar
     8    3   21 1
     9    4    5 ar
    10    4   22 1
    11    5    6 ar
    12    5   23 1
    13    6    7 ar
    14    6    8 1
    15    8    9 am
    16    8   24 1
    17    9   10 2
    18    9   11 1
    19   11   16 ar
    20   11   12 ar
    21   12   13 ar
    22   12   25 1
    23   13   14 ar
    24   13   26 1
    25   14   15 ar
    26   14   27 1
    27   15   16 ar
    28   15   17 1
    29   16   28 1
@<TRIPOS>MOLECULE
ZINC08598823
   47    50     0     0     0
SMALL
USER_CHARGES

@<TRIPOS>ATOM
      1 C1         -0.0173    1.4248    0.0099 C.3       1 <0>         0.0246
      2 O1          0.0021   -0.0041    0.0020 O.3       1 <0>        -0.3118
      3 C2          0.6058   -0.6071   -1.0558 C.ar      1 <0>         0.1255
      4 C3          1.1730    0.1628   -2.0626 C.ar      1 <0>        -0.1778
      5 C4          1.7885   -0.4451   -3.1410 C.ar      1 <0>        -0.0813
      6 C5          1.8429   -1.8215   -3.2243 C.ar      1 <0>        -0.1257
      7 C6          1.2755   -2.6038   -2.2171 C.ar      1 <0>        -0.0961
      8 C7          0.6600   -1.9888   -1.1261 C.ar      1 <0>        -0.0856
      9 C8          1.3318   -4.0784   -2.3028 C.2       1 <0>         0.5696
     10 O2          0.8370   -4.7577   -1.4243 O.2       1 <0>        -0.4916
     11 N1          1.9317   -4.6699   -3.3548 N.am      1 <0>        -0.6463
     12 C9          1.9848   -6.0601   -3.4356 C.2       1 <0>         0.3108
     13 C10         1.4704   -6.9362   -2.5328 C.2       1 <0>        -0.2516
     14 C11         1.7414   -8.2383   -2.9938 C.2       1 <0>         0.1374
     15 N2          2.3953   -8.1436   -4.1327 N.2       1 <0>        -0.2681
     16 N3          2.5564   -6.7859   -4.4365 N.pl3     1 <0>        -0.3385
     17 C12         3.1958   -6.2656   -5.5691 C.ar      1 <0>         0.1565
     18 C13         2.7330   -5.0935   -6.1525 C.ar      1 <0>        -0.1532
     19 C14         3.3656   -4.5832   -7.2692 C.ar      1 <0>        -0.0903
     20 C15         4.4586   -5.2382   -7.8063 C.ar      1 <0>        -0.1221
     21 C16         4.9215   -6.4059   -7.2280 C.ar      1 <0>        -0.0923
     22 C17         4.2971   -6.9179   -6.1075 C.ar      1 <0>        -0.1093
     23 C18         1.3571   -9.4997   -2.3134 C.ar      1 <0>        -0.0208
     24 C19         0.6586   -9.4595   -1.1084 C.ar      1 <0>        -0.0889
     25 C20         0.3037  -10.6359   -0.4798 C.ar      1 <0>        -0.1213
     26 C21         0.6406  -11.8532   -1.0437 C.ar      1 <0>        -0.1086
     27 C22         1.3344  -11.8990   -2.2395 C.ar      1 <0>        -0.1234
     28 C23         1.6885  -10.7289   -2.8800 C.ar      1 <0>        -0.0892
     29 H1          1.0053    1.8021    0.0021 H         1 <0>         0.0583
     30 H2         -0.5445    1.7859   -0.8732 H         1 <0>         0.0584
     31 H3         -0.5275    1.7763    0.9067 H         1 <0>         0.1050
     32 H4          1.1329    1.2404   -2.0032 H         1 <0>         0.1371
     33 H5          2.2278    0.1592   -3.9209 H         1 <0>         0.1367
     34 H6          2.3238   -2.2931   -4.0684 H         1 <0>         0.1250
     35 H7          0.2234   -2.5887   -0.3413 H         1 <0>         0.1495
     36 H8          2.3266   -4.1279   -4.0557 H         1 <0>         0.4132
     37 H9          0.9472   -6.6791   -1.6236 H         1 <0>         0.1830
     38 H10         1.8792   -4.5817   -5.7336 H         1 <0>         0.1250
     39 H11         3.0059   -3.6718   -7.7236 H         1 <0>         0.1360
     40 H12         4.9515   -4.8371   -8.6796 H         1 <0>         0.1325
     41 H13         5.7750   -6.9155   -7.6503 H         1 <0>         0.1355
     42 H14         4.6623   -7.8272   -5.6532 H         1 <0>         0.1366
     43 H15         0.3957   -8.5096   -0.6669 H         1 <0>         0.1305
     44 H16        -0.2377  -10.6059    0.4542 H         1 <0>         0.1279
     45 H17         0.3612  -12.7713   -0.5483 H         1 <0>         0.1246
     46 H18         1.5952  -12.8522   -2.6752 H         1 <0>         0.1261
     47 H19         2.2256  -10.7658   -3.8163 H         1 <0>         0.1286
@<TRIPOS>BOND
     1    1    2 1
     2    1   29 1
     3    1   30 1
     4    1   31 1
     5    2    3 1
     6    3    8 ar
     7    3    4 ar
     8    4    5 ar
     9    4   32 1
    10    5    6 ar
    11    5   33 1
    12    6    7 ar
    13    6   34 1
    14    7    8 ar
    15    7    9 1
    16    8   35 1
    17    9   10 2
    18    9   11 am
    19   11   12 1
    20   11   36 1
    21   12   16 1
    22   12   13 2
    23   13   14 1
    24   13   37 1
    25   14   15 2
    26   14   23 1
    27   15   16 1
    28   16   17 1
    29   17   22 ar
    30   17   18 ar
    31   18   19 ar
    32   18   38 1
    33   19   20 ar
    34   19   39 1
    35   20   21 ar
    36   20   40 1
    37   21   22 ar
    38   21   41 1
    39   22   42 1
    40   23   28 ar
    41   23   24 ar
    42   24   25 ar
    43   24   43 1
    44   25   26 ar
    45   25   44 1
    46   26   27 ar
    47   26   45 1
    48   27   28 ar
    49   27   46 1
    50   28   47 1
@<TRIPOS>MOLECULE
ZINC13704320
   46    49     0     0     0
SMALL
USER_CHARGES
N-(2,5-diphenylpyrazol-3-yl)-3-(trifluoromethyl)benzamide
@<TRIPOS>ATOM
      1 C1         -2.1446   12.9518    0.0836 C.ar      1 <0>        -0.1080
      2 C2         -0.7707   13.1120    0.0706 C.ar      1 <0>        -0.1232
      3 C3          0.0553   12.0064    0.0577 C.ar      1 <0>        -0.0889
      4 C4         -0.4971   10.7271    0.0577 C.ar      1 <0>        -0.0219
      5 C5         -1.8818   10.5717    0.0649 C.ar      1 <0>        -0.0888
      6 C6         -2.6984   11.6843    0.0836 C.ar      1 <0>        -0.1211
      7 C7          0.3860    9.5347    0.0438 C.2       1 <0>         0.1379
      8 C8         -0.0391    8.1928    0.0371 C.2       1 <0>        -0.2497
      9 C9          1.0688    7.4058    0.0284 C.2       1 <0>         0.3089
     10 N1          2.1574    8.2245    0.0214 N.pl3     1 <0>        -0.3379
     11 N2          1.7026    9.5491    0.0313 N.2       1 <0>        -0.2665
     12 C10         3.4966    7.8137    0.0073 C.ar      1 <0>         0.1554
     13 C11         3.8805    6.6690    0.6933 C.ar      1 <0>        -0.1536
     14 C12         5.2006    6.2634    0.6727 C.ar      1 <0>        -0.0908
     15 C13         6.1417    7.0023   -0.0206 C.ar      1 <0>        -0.1212
     16 C14         5.7635    8.1459   -0.7000 C.ar      1 <0>        -0.0920
     17 C15         4.4440    8.5535   -0.6880 C.ar      1 <0>        -0.1083
     18 N3          1.0877    6.0124    0.0216 N.am      1 <0>        -0.6459
     19 C16        -0.0702    5.3227    0.0299 C.2       1 <0>         0.5697
     20 O1         -1.1311    5.9161    0.0432 O.2       1 <0>        -0.4896
     21 C17        -0.0501    3.8448    0.0227 C.ar      1 <0>        -0.1355
     22 C18         1.1666    3.1601    0.0074 C.ar      1 <0>        -0.0559
     23 C19         1.1782    1.7809    0.0004 C.ar      1 <0>        -0.1205
     24 C20        -0.0126    1.0758    0.0080 C.ar      1 <0>        -0.0396
     25 C21        -1.2216    1.7480    0.0174 C.ar      1 <0>        -0.1872
     26 C22        -1.2474    3.1275    0.0308 C.ar      1 <0>        -0.0030
     27 C23        -2.5134    0.9719    0.0188 C.3       1 <0>         0.5105
     28 F1         -2.2338   -0.3989    0.0096 F         1 <0>        -0.1739
     29 F2         -3.2475    1.2904    1.1663 F         1 <0>        -0.1718
     30 F3         -3.2580    1.3036   -1.1182 F         1 <0>        -0.1718
     31 H1         -2.7873   13.8197    0.0941 H         1 <0>         0.1249
     32 H2         -0.3437   14.1039    0.0703 H         1 <0>         0.1263
     33 H3          1.1279   12.1325    0.0479 H         1 <0>         0.1286
     34 H4         -2.3152    9.5825    0.0605 H         1 <0>         0.1303
     35 H5         -3.7717   11.5650    0.0938 H         1 <0>         0.1281
     36 H6         -1.0632    7.8498    0.0407 H         1 <0>         0.1830
     37 H7          3.1468    6.0939    1.2387 H         1 <0>         0.1244
     38 H8          5.4989    5.3706    1.2021 H         1 <0>         0.1362
     39 H9          7.1741    6.6854   -0.0317 H         1 <0>         0.1330
     40 H10         6.5009    8.7210   -1.2402 H         1 <0>         0.1359
     41 H11         4.1492    9.4465   -1.2190 H         1 <0>         0.1368
     42 H12         1.9342    5.5389    0.0110 H         1 <0>         0.4125
     43 H13         2.0965    3.7092    0.0015 H         1 <0>         0.1338
     44 H14         2.1186    1.2500   -0.0115 H         1 <0>         0.1481
     45 H15         0.0021   -0.0041    0.0020 H         1 <0>         0.1492
     46 H16        -2.1919    3.6511    0.0422 H         1 <0>         0.1529
@<TRIPOS>BOND
     1    1    6 ar
     2    1    2 ar
     3    1   31 1
     4    2    3 ar
     5    2   32 1
     6    3    4 ar
     7    3   33 1
     8    4    5 ar
     9    4    7 1
    10    5    6 ar
    11    5   34 1
    12    6   35 1
    13    7   11 2
    14    7    8 1
    15    8    9 2
    16    8   36 1
    17    9   10 1
    18    9   18 1
    19   10   11 1
    20   10   12 1
    21   12   17 ar
    22   12   13 ar
    23   13   14 ar
    24   13   37 1
    25   14   15 ar
    26   14   38 1
    27   15   16 ar
    28   15   39 1
    29   16   17 ar
    30   16   40 1
    31   17   41 1
    32   18   19 am
    33   18   42 1
    34   19   20 2
    35   19   21 1
    36   21   26 ar
    37   21   22 ar
    38   22   23 ar
    39   22   43 1
    40   23   24 ar
    41   23   44 1
    42   24   25 ar
    43   24   45 1
    44   25   26 ar
    45   25   27 1
    46   26   46 1
    47   27   28 1
    48   27   29 1
    49   27   30 1
@<TRIPOS>MOLECULE
ZINC13704411
   45    48     0     0     0
SMALL
USER_CHARGES

@<TRIPOS>ATOM
      1 C1         -0.0763    1.2615    0.1746 C.ar      1 <0>        -0.1072
      2 C2          1.0925    2.0003    0.2133 C.ar      1 <0>        -0.1226
      3 C3          2.3160    1.3642    0.1567 C.ar      1 <0>        -0.0878
      4 C4          2.3725   -0.0247    0.0609 C.ar      1 <0>        -0.0229
      5 C5          1.1920   -0.7640    0.0227 C.ar      1 <0>        -0.0888
      6 C6         -0.0261   -0.1175    0.0795 C.ar      1 <0>        -0.1213
      7 C7          3.6851   -0.7141   -0.0008 C.2       1 <0>         0.1377
      8 C8          3.8834   -2.1038   -0.1040 C.2       1 <0>        -0.2440
      9 C9          5.2231   -2.3315   -0.1331 C.2       1 <0>         0.3071
     10 N1          5.8494   -1.1250   -0.0509 N.pl3     1 <0>        -0.3404
     11 N2          4.8655   -0.1311    0.0257 N.2       1 <0>        -0.2557
     12 C10         7.2351   -0.9145   -0.0481 C.ar      1 <0>         0.1100
     13 C11         8.0353   -1.5372   -0.9961 C.ar      1 <0>        -0.1136
     14 C12         9.4006   -1.3277   -0.9912 C.ar      1 <0>        -0.1070
     15 C13         9.9719   -0.4984   -0.0434 C.ar      1 <0>        -0.0829
     16 C14         9.1794    0.1242    0.9030 C.ar      1 <0>        -0.1352
     17 C15         7.8108   -0.0769    0.9009 C.ar      1 <0>         0.1187
     18 F1          7.0354    0.5354    1.8224 F         1 <0>        -0.1186
     19 N3          5.8439   -3.5755   -0.2291 N.am      1 <0>        -0.6418
     20 C16         5.1065   -4.7024   -0.1781 C.2       1 <0>         0.5660
     21 O1          3.8997   -4.6338   -0.0482 O.2       1 <0>        -0.4811
     22 C17         5.7649   -6.0218   -0.2800 C.ar      1 <0>        -0.0841
     23 C18         7.1510   -6.1043   -0.4234 C.ar      1 <0>        -0.0870
     24 C19         7.7593   -7.3389   -0.5179 C.ar      1 <0>        -0.0575
     25 C20         6.9986   -8.4937   -0.4709 C.ar      1 <0>        -0.0218
     26 C21         5.6243   -8.4190   -0.3294 C.ar      1 <0>        -0.0569
     27 C22         5.0040   -7.1910   -0.2274 C.ar      1 <0>        -0.0511
     28 N4          7.6580   -9.8150   -0.5730 N.pl3     1 <0>         0.0263
     29 O2          8.8586   -9.8834   -0.6972 O.2       1 <0>        -0.1467
     30 O3          6.9959  -10.8257   -0.5322 O.3       1 <0>        -0.1447
     31 H1         -1.0316    1.7630    0.2233 H         1 <0>         0.1253
     32 H2          1.0475    3.0768    0.2877 H         1 <0>         0.1268
     33 H3          3.2280    1.9420    0.1863 H         1 <0>         0.1287
     34 H4          1.2300   -1.8407   -0.0519 H         1 <0>         0.1299
     35 H5         -0.9418   -0.6895    0.0500 H         1 <0>         0.1283
     36 H6          3.1091   -2.8552   -0.1513 H         1 <0>         0.1829
     37 H7          7.5908   -2.1854   -1.7368 H         1 <0>         0.1366
     38 H8         10.0231   -1.8125   -1.7287 H         1 <0>         0.1447
     39 H9         11.0398   -0.3370   -0.0422 H         1 <0>         0.1450
     40 H10         9.6286    0.7709    1.6422 H         1 <0>         0.1493
     41 H11         6.8068   -3.6303   -0.3327 H         1 <0>         0.4125
     42 H12         7.7459   -5.2036   -0.4606 H         1 <0>         0.1476
     43 H13         8.8315   -7.4042   -0.6293 H         1 <0>         0.1647
     44 H14         5.0363   -9.3242   -0.2937 H         1 <0>         0.1666
     45 H15         3.9317   -7.1341   -0.1122 H         1 <0>         0.1663
@<TRIPOS>BOND
     1    1    6 ar
     2    1    2 ar
     3    1   31 1
     4    2    3 ar
     5    2   32 1
     6    3    4 ar
     7    3   33 1
     8    4    5 ar
     9    4    7 1
    10    5    6 ar
    11    5   34 1
    12    6   35 1
    13    7   11 2
    14    7    8 1
    15    8    9 2
    16    8   36 1
    17    9   10 1
    18    9   19 1
    19   10   11 1
    20   10   12 1
    21   12   17 ar
    22   12   13 ar
    23   13   14 ar
    24   13   37 1
    25   14   15 ar
    26   14   38 1
    27   15   16 ar
    28   15   39 1
    29   16   17 ar
    30   16   40 1
    31   17   18 1
    32   19   20 am
    33   19   41 1
    34   20   21 2
    35   20   22 1
    36   22   27 ar
    37   22   23 ar
    38   23   24 ar
    39   23   42 1
    40   24   25 ar
    41   24   43 1
    42   25   26 ar
    43   25   28 1
    44   26   27 ar
    45   26   44 1
    46   27   45 1
    47   28   29 2
    48   28   30 1
@<TRIPOS>MOLECULE
ZINC13704328
   47    50     0     0     0
SMALL
USER_CHARGES
N-(2,5-diphenylpyrazol-3-yl)-4-(trifluoromethoxy)benzamide
@<TRIPOS>ATOM
      1 C1          5.1748    0.6612   -0.0427 C.ar      1 <0>        -0.1084
      2 C2          4.8719    2.0109   -0.0329 C.ar      1 <0>        -0.1232
      3 C3          3.5555    2.4252   -0.0185 C.ar      1 <0>        -0.0891
      4 C4          2.5307    1.4811   -0.0137 C.ar      1 <0>        -0.0212
      5 C5          2.8416    0.1228   -0.0178 C.ar      1 <0>        -0.0889
      6 C6          4.1615   -0.2803   -0.0385 C.ar      1 <0>        -0.1213
      7 C7          1.1134    1.9205    0.0017 C.2       1 <0>         0.1372
      8 C8         -0.0126    1.0758    0.0080 C.2       1 <0>        -0.2505
      9 C9         -1.1215    1.8615    0.0168 C.2       1 <0>         0.3100
     10 N1         -0.7085    3.1594    0.0258 N.pl3     1 <0>        -0.3382
     11 N2          0.6920    3.1679    0.0125 N.2       1 <0>        -0.2674
     12 C10        -1.5387    4.2876    0.0394 C.ar      1 <0>         0.1558
     13 C11        -2.7477    4.2701   -0.6436 C.ar      1 <0>        -0.1537
     14 C12        -3.5662    5.3824   -0.6243 C.ar      1 <0>        -0.0907
     15 C13        -3.1779    6.5165    0.0651 C.ar      1 <0>        -0.1213
     16 C14        -1.9724    6.5387    0.7424 C.ar      1 <0>        -0.0921
     17 C15        -1.1519    5.4278    0.7312 C.ar      1 <0>        -0.1085
     18 N3         -2.4430    1.4189    0.0199 N.am      1 <0>        -0.6477
     19 C16        -2.7113    0.0981    0.0144 C.2       1 <0>         0.5717
     20 O1         -1.8003   -0.7074    0.0067 O.2       1 <0>        -0.4937
     21 C17        -4.1105   -0.3706    0.0177 C.ar      1 <0>        -0.1555
     22 C18        -5.1589    0.5534    0.0323 C.ar      1 <0>        -0.0426
     23 C19        -6.4632    0.1120    0.0290 C.ar      1 <0>        -0.1970
     24 C20        -6.7378   -1.2505    0.0237 C.ar      1 <0>         0.1405
     25 C21        -5.6979   -2.1729    0.0150 C.ar      1 <0>        -0.1277
     26 C22        -4.3909   -1.7396    0.0119 C.ar      1 <0>        -0.0123
     27 O2         -8.0247   -1.6816    0.0267 O.3       1 <0>        -0.3058
     28 C23        -9.0442   -0.6803    0.0358 C.3       1 <0>         0.6041
     29 F1         -8.9193    0.1227   -1.1030 F         1 <0>        -0.1621
     30 F2        -10.3011   -1.2946    0.0377 F         1 <0>        -0.1259
     31 F3         -8.9102    0.1113    1.1815 F         1 <0>        -0.1620
     32 H1          6.2063    0.3414   -0.0540 H         1 <0>         0.1247
     33 H2          5.6671    2.7417   -0.0363 H         1 <0>         0.1262
     34 H3          3.3201    3.4792   -0.0113 H         1 <0>         0.1286
     35 H4          2.0512   -0.6132   -0.0096 H         1 <0>         0.1304
     36 H5          4.4036   -1.3328   -0.0461 H         1 <0>         0.1280
     37 H6          0.0021   -0.0041    0.0020 H         1 <0>         0.1832
     38 H7         -3.0492    3.3864   -1.1863 H         1 <0>         0.1245
     39 H8         -4.5084    5.3680   -1.1520 H         1 <0>         0.1361
     40 H9         -3.8176    7.3866    0.0750 H         1 <0>         0.1328
     41 H10        -1.6721    7.4258    1.2802 H         1 <0>         0.1357
     42 H11        -0.2105    5.4458    1.2603 H         1 <0>         0.1368
     43 H12        -3.1696    2.0614    0.0261 H         1 <0>         0.4120
     44 H13        -4.9463    1.6123    0.0412 H         1 <0>         0.1340
     45 H14        -7.2740    0.8255    0.0354 H         1 <0>         0.1441
     46 H15        -5.9154   -3.2307    0.0109 H         1 <0>         0.1530
     47 H16        -3.5835   -2.4569    0.0047 H         1 <0>         0.1576
@<TRIPOS>BOND
     1    1    6 ar
     2    1    2 ar
     3    1   32 1
     4    2    3 ar
     5    2   33 1
     6    3    4 ar
     7    3   34 1
     8    4    5 ar
     9    4    7 1
    10    5    6 ar
    11    5   35 1
    12    6   36 1
    13    7   11 2
    14    7    8 1
    15    8    9 2
    16    8   37 1
    17    9   10 1
    18    9   18 1
    19   10   11 1
    20   10   12 1
    21   12   17 ar
    22   12   13 ar
    23   13   14 ar
    24   13   38 1
    25   14   15 ar
    26   14   39 1
    27   15   16 ar
    28   15   40 1
    29   16   17 ar
    30   16   41 1
    31   17   42 1
    32   18   19 am
    33   18   43 1
    34   19   20 2
    35   19   21 1
    36   21   26 ar
    37   21   22 ar
    38   22   23 ar
    39   22   44 1
    40   23   24 ar
    41   23   45 1
    42   24   25 ar
    43   24   27 1
    44   25   26 ar
    45   25   46 1
    46   26   47 1
    47   27   28 1
    48   28   29 1
    49   28   30 1
    50   28   31 1
@<TRIPOS>MOLECULE
ZINC03562014
   29    30     0     0     0
SMALL
USER_CHARGES

@<TRIPOS>ATOM
      1 C1         -0.0184    1.5028    0.0103 C.3       1 <0>        -0.0796
      2 C2          0.0021   -0.0041    0.0020 C.2       1 <0>         0.0852
      3 C3          0.0058   -0.7057   -1.1580 C.2       1 <0>        -0.2823
      4 S1          0.0316   -2.3787   -0.5349 S.3       1 <0>         0.2182
      5 C4          0.0348   -2.0150    1.1083 C.2       1 <0>         0.2460
      6 N1          0.0227   -0.6995    1.1240 N.2       1 <0>        -0.5532
      7 N2          0.0514   -2.8909    2.1861 N.am      1 <0>        -0.6072
      8 C5          0.0682   -4.2216    1.9729 C.2       1 <0>         0.5644
      9 O1          0.0687   -4.6552    0.8373 O.2       1 <0>        -0.4905
     10 C6          0.0858   -5.1537    3.1199 C.ar      1 <0>        -0.0965
     11 C7          0.0794   -4.6584    4.4254 C.ar      1 <0>        -0.1214
     12 C8          0.0960   -5.5313    5.4936 C.ar      1 <0>        -0.0821
     13 C9          0.1194   -6.8968    5.2761 C.ar      1 <0>        -0.1757
     14 C10         0.1259   -7.3986    3.9818 C.ar      1 <0>         0.1243
     15 C11         0.1032   -6.5315    2.9021 C.ar      1 <0>        -0.0844
     16 O2          0.1489   -8.7415    3.7741 O.3       1 <0>        -0.3119
     17 C12         0.1655   -9.5771    4.9332 C.3       1 <0>         0.0246
     18 H1          1.0042    1.8801    0.0026 H         1 <0>         0.0751
     19 H2         -0.5455    1.8639   -0.8728 H         1 <0>         0.0765
     20 H3         -0.5286    1.8543    0.9071 H         1 <0>         0.0736
     21 H4         -0.0044   -0.3506   -2.1779 H         1 <0>         0.1956
     22 H5          0.0510   -2.5449    3.0923 H         1 <0>         0.4243
     23 H6          0.0619   -3.5926    4.5988 H         1 <0>         0.1303
     24 H7          0.0910   -5.1470    6.5029 H         1 <0>         0.1376
     25 H8          0.1330   -7.5753    6.1162 H         1 <0>         0.1374
     26 H9          0.1036   -6.9208    1.8947 H         1 <0>         0.1496
     27 H10         1.0528   -9.3573    5.5269 H         1 <0>         0.0585
     28 H11        -0.7269   -9.3883    5.5300 H         1 <0>         0.0585
     29 H12         0.1832  -10.6230    4.6270 H         1 <0>         0.1051
@<TRIPOS>BOND
     1    1    2 1
     2    1   18 1
     3    1   19 1
     4    1   20 1
     5    2    6 1
     6    2    3 2
     7    3    4 1
     8    3   21 1
     9    4    5 1
    10    5    6 2
    11    5    7 1
    12    7    8 am
    13    7   22 1
    14    8    9 2
    15    8   10 1
    16   10   15 ar
    17   10   11 ar
    18   11   12 ar
    19   11   23 1
    20   12   13 ar
    21   12   24 1
    22   13   14 ar
    23   13   25 1
    24   14   15 ar
    25   14   16 1
    26   15   26 1
    27   16   17 1
    28   17   27 1
    29   17   28 1
    30   17   29 1
@<TRIPOS>MOLECULE
ZINC00092708
   32    33     0     0     0
SMALL
USER_CHARGES

@<TRIPOS>ATOM
      1 C1          0.0280   -2.9654   -2.3613 C.3       1 <0>        -0.1056
      2 C2          0.0229   -2.1140   -1.1179 C.ar      1 <0>         0.1614
      3 C3          0.0024   -0.7379   -1.2340 C.ar      1 <0>        -0.2041
      4 C4         -0.0027    0.0411   -0.0852 C.ar      1 <0>        -0.0434
      5 C5          0.0132   -0.5949    1.1438 C.ar      1 <0>        -0.2147
      6 C6          0.0335   -1.9843    1.1860 C.ar      1 <0>         0.3647
      7 N1          0.0326   -2.6926    0.0674 N.ar      1 <0>        -0.4781
      8 N2          0.0501   -2.6374    2.4165 N.am      1 <0>        -0.6578
      9 C7         -0.0332   -3.9816    2.4672 C.2       1 <0>         0.5507
     10 O1         -0.0293   -4.6300    1.4390 O.2       1 <0>        -0.4589
     11 C8         -0.1291   -4.6675    3.7731 C.ar      1 <0>        -0.0963
     12 C9         -0.1395   -3.9249    4.9554 C.ar      1 <0>        -0.1268
     13 C10        -0.2297   -4.5683    6.1724 C.ar      1 <0>        -0.0836
     14 C11        -0.3094   -5.9478    6.2260 C.ar      1 <0>        -0.1825
     15 C12        -0.2992   -6.6946    5.0559 C.ar      1 <0>         0.1240
     16 C13        -0.2154   -6.0588    3.8285 C.ar      1 <0>        -0.0901
     17 O2         -0.3769   -8.0503    5.1147 O.3       1 <0>        -0.3131
     18 C14        -0.4667   -8.6392    6.4135 C.3       1 <0>         0.0252
     19 H1         -0.9984   -3.1815   -2.6579 H         1 <0>         0.0801
     20 H2          0.5338   -2.4310   -3.1655 H         1 <0>         0.0766
     21 H3          0.5523   -3.8996   -2.1598 H         1 <0>         0.0800
     22 H4         -0.0093   -0.2727   -2.2087 H         1 <0>         0.1364
     23 H5         -0.0183    1.1191   -0.1490 H         1 <0>         0.1395
     24 H6          0.0101   -0.0196    2.0579 H         1 <0>         0.1360
     25 H7          0.1215   -2.1246    3.2368 H         1 <0>         0.4172
     26 H8         -0.0767   -2.8474    4.9172 H         1 <0>         0.1274
     27 H9         -0.2377   -3.9927    7.0863 H         1 <0>         0.1347
     28 H10        -0.3794   -6.4460    7.1816 H         1 <0>         0.1351
     29 H11        -0.2118   -6.6384    2.9172 H         1 <0>         0.1467
     30 H12         0.4147   -8.3709    6.9959 H         1 <0>         0.0577
     31 H13        -1.3608   -8.2725    6.9178 H         1 <0>         0.0576
     32 H14        -0.5226   -9.7236    6.3177 H         1 <0>         0.1040
@<TRIPOS>BOND
     1    1    2 1
     2    1   19 1
     3    1   20 1
     4    1   21 1
     5    2    7 ar
     6    2    3 ar
     7    3    4 ar
     8    3   22 1
     9    4    5 ar
    10    4   23 1
    11    5    6 ar
    12    5   24 1
    13    6    7 ar
    14    6    8 1
    15    8    9 am
    16    8   25 1
    17    9   10 2
    18    9   11 1
    19   11   16 ar
    20   11   12 ar
    21   12   13 ar
    22   12   26 1
    23   13   14 ar
    24   13   27 1
    25   14   15 ar
    26   14   28 1
    27   15   16 ar
    28   15   17 1
    29   16   29 1
    30   17   18 1
    31   18   30 1
    32   18   31 1
    33   18   32 1
@<TRIPOS>MOLECULE
ZINC00477397
   25    26     0     0     0
SMALL
USER_CHARGES
3-chloro-N-(4-methylthiazol-2-yl)-benzamide
@<TRIPOS>ATOM
      1 C1         -0.0127    1.0858    0.0080 C.3       1 <0>        -0.0816
      2 C2         -0.7181    1.5718    1.2479 C.2       1 <0>         0.0800
      3 C3         -2.0560    1.7898    1.2441 C.2       1 <0>        -0.2633
      4 S1         -2.3086    2.3324    2.9278 S.3       1 <0>         0.1598
      5 C4         -0.6558    2.2260    3.4499 C.2       1 <0>         0.2796
      6 N1         -0.0472    1.8001    2.3599 N.2       1 <0>        -0.5428
      7 N2         -0.1138    2.5152    4.6956 N.am      1 <0>        -0.6066
      8 C5         -0.9109    2.9437    5.6943 C.2       1 <0>         0.5657
      9 O1         -2.1043    3.0770    5.5049 O.2       1 <0>        -0.4891
     10 C6         -0.3342    3.2514    7.0199 C.ar      1 <0>        -0.1235
     11 C7         -1.1572    3.6955    8.0566 C.ar      1 <0>        -0.0464
     12 C8         -0.6132    3.9811    9.2915 C.ar      1 <0>        -0.1100
     13 C9          0.7453    3.8282    9.5049 C.ar      1 <0>        -0.0751
     14 C10         1.5677    3.3883    8.4817 C.ar      1 <0>        -0.0424
     15 C11         1.0346    3.0939    7.2422 C.ar      1 <0>        -0.0759
     16 Cl1         3.2709    3.1997    8.7593 Cl        1 <0>        -0.0534
     17 H1          0.0021   -0.0041    0.0020 H         1 <0>         0.0751
     18 H2          1.0099    1.4631    0.0003 H         1 <0>         0.0738
     19 H3         -0.5399    1.4469   -0.8751 H         1 <0>         0.0762
     20 H4         -2.7718    1.6677    0.4447 H         1 <0>         0.1972
     21 H5          0.8384    2.4088    4.8467 H         1 <0>         0.4249
     22 H6         -2.2179    3.8147    7.8920 H         1 <0>         0.1487
     23 H7         -1.2492    4.3247   10.0939 H         1 <0>         0.1468
     24 H8          1.1659    4.0526   10.4740 H         1 <0>         0.1440
     25 H9          1.6760    2.7465    6.4457 H         1 <0>         0.1384
@<TRIPOS>BOND
     1    1    2 1
     2    1   17 1
     3    1   18 1
     4    1   19 1
     5    2    6 1
     6    2    3 2
     7    3    4 1
     8    3   20 1
     9    4    5 1
    10    5    6 2
    11    5    7 1
    12    7    8 am
    13    7   21 1
    14    8    9 2
    15    8   10 1
    16   10   15 ar
    17   10   11 ar
    18   11   12 ar
    19   11   22 1
    20   12   13 ar
    21   12   23 1
    22   13   14 ar
    23   13   24 1
    24   14   15 ar
    25   14   16 1
    26   15   25 1
@<TRIPOS>MOLECULE
ZINC00579315
   31    32     0     0     0
SMALL
USER_CHARGES
3-methyl-N-(6-methyl-2-pyridyl)benzamide
@<TRIPOS>ATOM
      1 C1         -2.5133    0.9718    0.0104 C.3       1 <0>        -0.1176
      2 C2         -1.2216    1.7481    0.0098 C.ar      1 <0>        -0.0908
      3 C3         -0.0121    1.0757    0.0000 C.ar      1 <0>        -0.0928
      4 C4          1.1782    1.7807   -0.0059 C.ar      1 <0>        -0.1210
      5 C5          1.1664    3.1604    0.0032 C.ar      1 <0>        -0.0948
      6 C6         -0.0500    3.8447    0.0185 C.ar      1 <0>        -0.1324
      7 C7         -1.2475    3.1271    0.0244 C.ar      1 <0>        -0.0586
      8 C8         -0.0702    5.3226    0.0278 C.2       1 <0>         0.5500
      9 O1         -1.1310    5.9158    0.0411 O.2       1 <0>        -0.4637
     10 N1          1.0877    6.0124    0.0216 N.am      1 <0>        -0.6594
     11 C9          1.0701    7.4020   -0.0768 C.ar      1 <0>         0.3649
     12 C10         2.2677    8.0999   -0.1894 C.ar      1 <0>        -0.2152
     13 C11         2.2355    9.4793   -0.2912 C.ar      1 <0>        -0.0433
     14 C12         1.0023   10.1168   -0.2664 C.ar      1 <0>        -0.2044
     15 C13        -0.1470    9.3611   -0.1471 C.ar      1 <0>         0.1608
     16 N2         -0.0860    8.0463   -0.0569 N.ar      1 <0>        -0.4783
     17 C14        -1.4886   10.0470   -0.1190 C.3       1 <0>        -0.1054
     18 H1         -2.8202    0.7778    1.0382 H         1 <0>         0.0745
     19 H2         -3.2854    1.5508   -0.4962 H         1 <0>         0.0705
     20 H3         -2.3686    0.0252   -0.5103 H         1 <0>         0.0701
     21 H4          0.0026   -0.0041   -0.0075 H         1 <0>         0.1292
     22 H5          2.1187    1.2500   -0.0181 H         1 <0>         0.1314
     23 H6          2.0964    3.7096   -0.0018 H         1 <0>         0.1244
     24 H7         -2.1921    3.6505    0.0362 H         1 <0>         0.1375
     25 H8          1.9332    5.5414    0.0857 H         1 <0>         0.4164
     26 H9          3.2098    7.5720   -0.2013 H         1 <0>         0.1358
     27 H10         3.1492   10.0476   -0.3837 H         1 <0>         0.1395
     28 H11         0.9428   11.1926   -0.3400 H         1 <0>         0.1364
     29 H12        -1.7533   10.2853    0.9112 H         1 <0>         0.0799
     30 H13        -1.4392   10.9659   -0.7033 H         1 <0>         0.0765
     31 H14        -2.2436    9.3860   -0.5445 H         1 <0>         0.0798
@<TRIPOS>BOND
     1    1    2 1
     2    1   18 1
     3    1   19 1
     4    1   20 1
     5    2    7 ar
     6    2    3 ar
     7    3    4 ar
     8    3   21 1
     9    4    5 ar
    10    4   22 1
    11    5    6 ar
    12    5   23 1
    13    6    7 ar
    14    6    8 1
    15    7   24 1
    16    8    9 2
    17    8   10 am
    18   10   11 1
    19   10   25 1
    20   11   16 ar
    21   11   12 ar
    22   12   13 ar
    23   12   26 1
    24   13   14 ar
    25   13   27 1
    26   14   15 ar
    27   14   28 1
    28   15   16 ar
    29   15   17 1
    30   17   29 1
    31   17   30 1
    32   17   31 1
@<TRIPOS>MOLECULE
ZINC00184798
   41    44     0     0     0
SMALL
USER_CHARGES

@<TRIPOS>ATOM
      1 C1         -0.0159    1.5028    0.0085 C.3       1 <0>        -0.1261
      2 C2          0.0039   -0.0040    0.0007 C.ar      1 <0>        -0.0527
      3 C3          1.1571   -0.6807    0.3535 C.ar      1 <0>        -0.1071
      4 C4          1.1784   -2.0617    0.3473 C.ar      1 <0>        -0.0781
      5 C5          0.0401   -2.7706   -0.0132 C.ar      1 <0>         0.0687
      6 C6         -1.1165   -2.0881   -0.3665 C.ar      1 <0>        -0.0931
      7 C7         -1.1329   -0.7071   -0.3537 C.ar      1 <0>        -0.1076
      8 N1          0.0586   -4.1710   -0.0209 N.am      1 <0>        -0.4684
      9 C8         -0.0351   -4.8534   -1.1931 C.2       1 <0>         0.4158
     10 N2         -0.0231   -6.1477   -1.2580 N.2       1 <0>        -0.5033
     11 C9          0.0856   -6.9275   -0.1437 C.2       1 <0>         0.2151
     12 C10         0.1127   -8.3968   -0.0775 C.ar      1 <0>        -0.1201
     13 C11         0.0310   -9.3170   -1.1596 C.ar      1 <0>         0.3909
     14 C12         0.0752  -10.6752   -0.8855 C.ar      1 <0>        -0.1768
     15 C13         0.1965  -11.1182    0.4179 C.ar      1 <0>         0.2029
     16 N3          0.2715  -10.2557    1.4151 N.ar      1 <0>        -0.4289
     17 C14         0.2340   -8.9551    1.2069 C.ar      1 <0>         0.0641
     18 S1          0.3089   -7.5465    2.2865 S.3       1 <0>         0.3254
     19 C15         0.1836   -6.2588    1.0754 C.2       1 <0>        -0.3038
     20 C16         0.1756   -4.8607    1.1386 C.2       1 <0>         0.5722
     21 O1          0.2668   -4.2802    2.2076 O.2       1 <0>        -0.4820
     22 N4         -0.0911   -8.8633   -2.4652 N.pl3     1 <0>        -0.6861
     23 C17        -1.4193   -8.6428   -3.0429 C.3       1 <0>         0.1153
     24 C18         1.1081   -8.6048   -3.2660 C.3       1 <0>         0.1176
     25 H1         -0.3214    1.8571    0.9930 H         1 <0>         0.0811
     26 H2          0.9806    1.8805   -0.2204 H         1 <0>         0.0749
     27 H3         -0.7213    1.8608   -0.7414 H         1 <0>         0.0751
     28 H4          2.0420   -0.1288    0.6338 H         1 <0>         0.1387
     29 H5          2.0795   -2.5896    0.6222 H         1 <0>         0.1287
     30 H6         -2.0035   -2.6367   -0.6474 H         1 <0>         0.1325
     31 H7         -2.0333   -0.1758   -0.6248 H         1 <0>         0.1396
     32 H8         -0.1239   -4.2917   -2.1113 H         1 <0>         0.2218
     33 H9          0.0143  -11.3895   -1.6932 H         1 <0>         0.1932
     34 H10         0.2298  -12.1781    0.6226 H         1 <0>         0.2259
     35 H11        -1.9524   -7.8965   -2.4538 H         1 <0>         0.0510
     36 H12        -1.3152   -8.2894   -4.0687 H         1 <0>         0.0880
     37 H13        -1.9784   -9.5785   -3.0359 H         1 <0>         0.0518
     38 H14         1.3904   -9.5117   -3.8007 H         1 <0>         0.0523
     39 H15         0.9020   -7.8098   -3.9827 H         1 <0>         0.0809
     40 H16         1.9241   -8.3004   -2.6105 H         1 <0>         0.0556
     41 H17         0.3563  -10.5876    2.3226 H         1 <0>         0.4552
@<TRIPOS>BOND
     1    1    2 1
     2    1   25 1
     3    1   26 1
     4    1   27 1
     5    2    7 ar
     6    2    3 ar
     7    3    4 ar
     8    3   28 1
     9    4    5 ar
    10    4   29 1
    11    5    6 ar
    12    5    8 1
    13    6    7 ar
    14    6   30 1
    15    7   31 1
    16    8   20 am
    17    8    9 1
    18    9   10 2
    19    9   32 1
    20   10   11 1
    21   11   19 2
    22   11   12 1
    23   12   17 ar
    24   12   13 ar
    25   13   14 ar
    26   13   22 1
    27   14   15 ar
    28   14   33 1
    29   15   16 ar
    30   15   34 1
    31   16   17 ar
    32   16   41 1
    33   17   18 1
    34   18   19 1
    35   19   20 1
    36   20   21 2
    37   22   23 1
    38   22   24 1
    39   23   35 1
    40   23   36 1
    41   23   37 1
    42   24   38 1
    43   24   39 1
    44   24   40 1
@<TRIPOS>MOLECULE
ZINC00184798
   40    43     0     0     0
SMALL
USER_CHARGES

@<TRIPOS>ATOM
      1 C1         -0.0159    1.5028    0.0085 C.3       1 <0>        -0.1206
      2 C2          0.0039   -0.0040    0.0007 C.ar      1 <0>        -0.0663
      3 C3          1.1571   -0.6807    0.3535 C.ar      1 <0>        -0.1084
      4 C4          1.1784   -2.0617    0.3473 C.ar      1 <0>        -0.0825
      5 C5          0.0401   -2.7706   -0.0132 C.ar      1 <0>         0.0915
      6 C6         -1.1165   -2.0881   -0.3665 C.ar      1 <0>        -0.0984
      7 C7         -1.1329   -0.7071   -0.3537 C.ar      1 <0>        -0.1093
      8 N1          0.0586   -4.1710   -0.0209 N.am      1 <0>        -0.4819
      9 C8         -0.0351   -4.8534   -1.1931 C.2       1 <0>         0.3805
     10 N2         -0.0231   -6.1477   -1.2580 N.2       1 <0>        -0.4935
     11 C9          0.0856   -6.9275   -0.1437 C.2       1 <0>         0.2025
     12 C10         0.1127   -8.3968   -0.0775 C.ar      1 <0>        -0.1588
     13 C11         0.0310   -9.3170   -1.1596 C.ar      1 <0>         0.2951
     14 C12         0.0752  -10.6752   -0.8855 C.ar      1 <0>        -0.1973
     15 C13         0.1965  -11.1182    0.4179 C.ar      1 <0>         0.1626
     16 N3          0.2715  -10.2557    1.4151 N.ar      1 <0>        -0.4547
     17 C14         0.2340   -8.9551    1.2069 C.ar      1 <0>         0.1127
     18 S1          0.3089   -7.5465    2.2865 S.3       1 <0>         0.2030
     19 C15         0.1836   -6.2588    1.0754 C.2       1 <0>        -0.3042
     20 C16         0.1756   -4.8607    1.1386 C.2       1 <0>         0.5752
     21 O1          0.2668   -4.2802    2.2076 O.2       1 <0>        -0.5040
     22 N4         -0.0911   -8.8633   -2.4652 N.pl3     1 <0>        -0.6784
     23 C17        -1.4193   -8.6428   -3.0429 C.3       1 <0>         0.1217
     24 C18         1.1081   -8.6048   -3.2660 C.3       1 <0>         0.1271
     25 H1         -0.3214    1.8571    0.9930 H         1 <0>         0.0767
     26 H2          0.9806    1.8805   -0.2204 H         1 <0>         0.0712
     27 H3         -0.7213    1.8608   -0.7414 H         1 <0>         0.0712
     28 H4          2.0420   -0.1288    0.6338 H         1 <0>         0.1341
     29 H5          2.0795   -2.5896    0.6222 H         1 <0>         0.1278
     30 H6         -2.0035   -2.6367   -0.6474 H         1 <0>         0.1309
     31 H7         -2.0333   -0.1758   -0.6248 H         1 <0>         0.1347
     32 H8         -0.1239   -4.2917   -2.1113 H         1 <0>         0.2081
     33 H9          0.0143  -11.3895   -1.6932 H         1 <0>         0.1479
     34 H10         0.2298  -12.1781    0.6226 H         1 <0>         0.1769
     35 H11        -1.7336   -7.6171   -2.8501 H         1 <0>         0.0430
     36 H12        -1.3808   -8.8150   -4.1185 H         1 <0>         0.0625
     37 H13        -2.1316   -9.3324   -2.5898 H         1 <0>         0.0508
     38 H14         1.3904   -9.5117   -3.8007 H         1 <0>         0.0364
     39 H15         0.9020   -7.8098   -3.9827 H         1 <0>         0.0644
     40 H16         1.9241   -8.3004   -2.6105 H         1 <0>         0.0496
@<TRIPOS>BOND
     1    1    2 1
     2    1   25 1
     3    1   26 1
     4    1   27 1
     5    2    7 ar
     6    2    3 ar
     7    3    4 ar
     8    3   28 1
     9    4    5 ar
    10    4   29 1
    11    5    6 ar
    12    5    8 1
    13    6    7 ar
    14    6   30 1
    15    7   31 1
    16    8   20 am
    17    8    9 1
    18    9   10 2
    19    9   32 1
    20   10   11 1
    21   11   19 2
    22   11   12 1
    23   12   17 ar
    24   12   13 ar
    25   13   14 ar
    26   13   22 1
    27   14   15 ar
    28   14   33 1
    29   15   16 ar
    30   15   34 1
    31   16   17 ar
    32   17   18 1
    33   18   19 1
    34   19   20 1
    35   20   21 2
    36   22   23 1
    37   22   24 1
    38   23   35 1
    39   23   36 1
    40   23   37 1
    41   24   38 1
    42   24   39 1
    43   24   40 1
@<TRIPOS>MOLECULE
ZINC00756260
   38    41     0     0     0
SMALL
USER_CHARGES
(4-chlorophenyl)-dimethylamino-BLAHone
@<TRIPOS>ATOM
      1 C1          0.0368    0.9537   -0.0102 C.3       1 <0>         0.0218
      2 N1         -0.6686    1.4747    1.1683 N.pl3     1 <0>        -0.5131
      3 C2         -0.7903    2.9373    1.1052 C.3       1 <0>         0.0245
      4 C3         -0.0396    1.0781    2.3399 C.ar      1 <0>         0.3212
      5 C4          1.2783    1.4309    2.5879 C.ar      1 <0>        -0.2080
      6 C5          1.8953    1.0368    3.7595 C.ar      1 <0>         0.2178
      7 C6         -0.0088   -0.0534    4.4588 C.ar      1 <0>         0.0729
      8 C7         -0.7331    0.2974    3.3058 C.ar      1 <0>        -0.0917
      9 C8         -2.1206   -0.1872    3.2420 C.2       1 <0>         0.2262
     10 C9         -2.5565   -0.9382    4.3325 C.2       1 <0>        -0.3091
     11 S1         -1.1601   -1.0032    5.4218 S.3       1 <0>         0.3226
     12 C10        -3.8567   -1.4533    4.3858 C.2       1 <0>         0.5737
     13 O1         -4.2327   -2.1102    5.3425 O.2       1 <0>        -0.4827
     14 N2         -4.6851   -1.2017    3.3446 N.am      1 <0>        -0.4735
     15 C11        -4.2293   -0.4659    2.2962 C.2       1 <0>         0.4135
     16 N3         -3.0265    0.0139    2.2417 N.2       1 <0>        -0.4849
     17 C12        -5.9968   -1.6935    3.3479 C.ar      1 <0>         0.0839
     18 C13        -6.2275   -3.0597    3.2556 C.ar      1 <0>        -0.0709
     19 C14        -7.5214   -3.5424    3.2634 C.ar      1 <0>        -0.0953
     20 C15        -8.5879   -2.6650    3.3535 C.ar      1 <0>        -0.0132
     21 C16        -8.3608   -1.3027    3.4403 C.ar      1 <0>        -0.0959
     22 C17        -7.0686   -0.8153    3.4377 C.ar      1 <0>        -0.0854
     23 Cl1       -10.2134   -3.2745    3.3569 Cl        1 <0>        -0.0423
     24 H1          0.0514   -0.1355    0.0272 H         1 <0>         0.0796
     25 H2          1.0594    1.3308   -0.0177 H         1 <0>         0.0460
     26 H3         -0.4772    1.2793   -0.9146 H         1 <0>         0.1008
     27 H4         -1.2867    3.2208    0.1771 H         1 <0>         0.1008
     28 H5         -1.3768    3.2900    1.9535 H         1 <0>         0.0794
     29 H6          0.2025    3.3862    1.1381 H         1 <0>         0.0459
     30 H7          1.8232    2.0193    1.8645 H         1 <0>         0.1925
     31 H8          2.9206    1.3197    3.9467 H         1 <0>         0.2146
     32 H9         -4.8996   -0.2722    1.4719 H         1 <0>         0.2237
     33 H10        -5.3957   -3.7445    3.1814 H         1 <0>         0.1392
     34 H11        -7.7013   -4.6051    3.1953 H         1 <0>         0.1501
     35 H12        -9.1948   -0.6200    3.5098 H         1 <0>         0.1511
     36 H13        -6.8919    0.2480    3.5052 H         1 <0>         0.1433
     37 N4          1.2791    0.2900    4.7161 N.ar      1 <0>        -0.4619
     38 H14         1.7583    0.0044    5.5781 H         1 <0>         0.4831
@<TRIPOS>BOND
     1    1    2 1
     2    1   24 1
     3    1   25 1
     4    1   26 1
     5    2    3 1
     6    2    4 1
     7    3   27 1
     8    3   28 1
     9    3   29 1
    10    4    8 ar
    11    4    5 ar
    12    5    6 ar
    13    5   30 1
    14    6   31 1
    15    6   37 ar
    16    7   11 1
    17    7    8 ar
    18    7   37 ar
    19    8    9 1
    20    9   16 1
    21    9   10 2
    22   10   11 1
    23   10   12 1
    24   12   13 2
    25   12   14 am
    26   14   15 1
    27   14   17 1
    28   15   16 2
    29   15   32 1
    30   17   22 ar
    31   17   18 ar
    32   18   19 ar
    33   18   33 1
    34   19   20 ar
    35   19   34 1
    36   20   21 ar
    37   20   23 1
    38   21   22 ar
    39   21   35 1
    40   22   36 1
    41   37   38 1
@<TRIPOS>MOLECULE
ZINC00001436
   28    29     0     0     0
SMALL
USER_CHARGES

@<TRIPOS>ATOM
      1 C1         -0.0177    1.4614   -0.0125 C.3       1 <0>         0.1258
      2 N1          0.0021   -0.0035   -0.0093 N.pl3     1 <0>        -0.6333
      3 C2         -1.1598   -0.9112   -0.0033 C.3       1 <0>         0.0415
      4 C3         -0.5311   -2.2896   -0.0023 C.2       1 <0>         0.4455
      5 O1         -1.1777   -3.4665    0.0021 O.3       1 <0>        -0.6320
      6 N2          0.7614   -2.1100   -0.0071 N.2       1 <0>        -0.6243
      7 C4          1.1035   -0.8171   -0.0171 C.2       1 <0>         0.6510
      8 N3          2.3550   -0.3773   -0.0293 N.2       1 <0>        -0.7061
      9 C5          3.3715   -1.2497   -0.0363 C.2       1 <0>         0.6664
     10 O2          3.1467   -2.4469   -0.0315 O.2       1 <0>        -0.5646
     11 N4          4.6430   -0.8028   -0.0486 N.am      1 <0>        -0.6746
     12 C6          5.7040   -1.7098    0.0415 C.ar      1 <0>         0.1991
     13 C7          6.8580   -1.3643    0.7332 C.ar      1 <0>        -0.1587
     14 C8          7.9041   -2.2616    0.8208 C.ar      1 <0>        -0.0911
     15 C9          7.8043   -3.5034    0.2207 C.ar      1 <0>        -0.1468
     16 C10         6.6563   -3.8512   -0.4693 C.ar      1 <0>        -0.0134
     17 C11         5.6035   -2.9593   -0.5554 C.ar      1 <0>        -0.1169
     18 Cl1         6.5352   -5.4113   -1.2211 Cl        1 <0>        -0.0772
     19 H1          1.0049    1.8386   -0.0219 H         1 <0>         0.0871
     20 H2         -0.5439    1.8157   -0.8988 H         1 <0>         0.0475
     21 H3         -0.5289    1.8198    0.8811 H         1 <0>         0.0475
     22 H4         -1.7590   -0.7620    0.8949 H         1 <0>         0.0926
     23 H5         -1.7650   -0.7660   -0.8982 H         1 <0>         0.0925
     24 H6          4.8223    0.1478   -0.1200 H         1 <0>         0.4053
     25 H7          6.9372   -0.3946    1.2020 H         1 <0>         0.1269
     26 H8          8.8015   -1.9929    1.3582 H         1 <0>         0.1289
     27 H9          8.6240   -4.2031    0.2903 H         1 <0>         0.1265
     28 H10         4.7056   -3.2327   -1.0898 H         1 <0>         0.1548
@<TRIPOS>BOND
     1    1    2 1
     2    1   19 1
     3    1   20 1
     4    1   21 1
     5    2    7 1
     6    2    3 1
     7    3    4 1
     8    3   22 1
     9    3   23 1
    10    4    5 1
    11    4    6 2
    12    6    7 1
    13    7    8 2
    14    8    9 1
    15    9   10 2
    16    9   11 am
    17   11   12 1
    18   11   24 1
    19   12   17 ar
    20   12   13 ar
    21   13   14 ar
    22   13   25 1
    23   14   15 ar
    24   14   26 1
    25   15   16 ar
    26   15   27 1
    27   16   17 ar
    28   16   18 1
    29   17   28 1
@<TRIPOS>MOLECULE
ZINC28967975
   32    34     0     0     0
SMALL
USER_CHARGES
2-(2-phenylethynyl)-7,8-dihydro-6H-quinolin-5-one
@<TRIPOS>ATOM
      1 C1          3.0587    2.3534   -9.2032 C.ar      1 <0>        -0.1036
      2 C2          3.6443    1.9167   -8.0277 C.ar      1 <0>        -0.1198
      3 C3          2.9045    1.8569   -6.8655 C.ar      1 <0>        -0.0894
      4 C4          1.5598    2.2388   -6.8767 C.ar      1 <0>         0.0004
      5 C5          0.9739    2.6738   -8.0691 C.ar      1 <0>        -0.0877
      6 C6          1.7282    2.7335   -9.2221 C.ar      1 <0>        -0.1194
      7 C7          0.7847    2.1791   -5.6741 C.1       1 <0>        -0.0607
      8 C8          0.1493    2.1302   -4.6881 C.1       1 <0>        -0.1269
      9 C9         -0.6258    2.0705   -3.4855 C.ar      1 <0>         0.2731
     10 C10        -1.9714    2.4565   -3.5135 C.ar      1 <0>        -0.1615
     11 C11        -2.7033    2.3983   -2.3586 C.ar      1 <0>        -0.0135
     12 C12        -2.0701    1.9512   -1.1878 C.ar      1 <0>        -0.2203
     13 C13        -0.7240    1.5762   -1.2247 C.ar      1 <0>         0.1926
     14 N1         -0.0558    1.6496   -2.3601 N.ar      1 <0>        -0.4795
     15 C14        -0.0127    1.0858    0.0080 C.3       1 <0>        -0.0802
     16 C15        -0.7098    1.5694    1.2765 C.3       1 <0>        -0.1172
     17 C16        -2.1857    1.1558    1.2379 C.3       1 <0>        -0.1677
     18 C17        -2.8267    1.8813    0.0727 C.2       1 <0>         0.4054
     19 O1         -3.9245    2.3871    0.1750 O.2       1 <0>        -0.4466
     20 H1          3.6432    2.3980  -10.1103 H         1 <0>         0.1283
     21 H2          4.6834    1.6224   -8.0205 H         1 <0>         0.1307
     22 H3          3.3627    1.5156   -5.9490 H         1 <0>         0.1288
     23 H4         -0.0656    2.9661   -8.0864 H         1 <0>         0.1293
     24 H5          1.2781    3.0732  -10.1432 H         1 <0>         0.1309
     25 H6         -2.4253    2.7949   -4.4332 H         1 <0>         0.1484
     26 H7         -3.7432    2.6898   -2.3478 H         1 <0>         0.1525
     27 H8         -0.0012   -0.0141    0.0115 H         1 <0>         0.0994
     28 H9          1.0205    1.4633    0.0098 H         1 <0>         0.0993
     29 H10        -0.2256    1.1189    2.1555 H         1 <0>         0.0923
     30 H11        -0.6376    2.6652    1.3396 H         1 <0>         0.0733
     31 H12        -2.2578    0.0667    1.1013 H         1 <0>         0.1078
     32 H13        -2.6709    1.4397    2.1834 H         1 <0>         0.1014
@<TRIPOS>BOND
     1    1    6 ar
     2    1    2 ar
     3    1   20 1
     4    2    3 ar
     5    2   21 1
     6    3    4 ar
     7    3   22 1
     8    4    5 ar
     9    4    7 1
    10    5    6 ar
    11    5   23 1
    12    6   24 1
    13    7    8 3
    14    8    9 1
    15    9   14 ar
    16    9   10 ar
    17   10   11 ar
    18   10   25 1
    19   11   12 ar
    20   11   26 1
    21   12   18 1
    22   12   13 ar
    23   13   14 ar
    24   13   15 1
    25   15   16 1
    26   15   27 1
    27   15   28 1
    28   16   17 1
    29   16   29 1
    30   16   30 1
    31   17   18 1
    32   17   31 1
    33   17   32 1
    34   18   19 2
@<TRIPOS>MOLECULE
ZINC13779018
   19    19     0     0     0
SMALL
USER_CHARGES

@<TRIPOS>ATOM
      1 C1         -0.0187    1.5258    0.0104 C.3       1 <0>         0.1559
      2 C2          0.0021   -0.0041    0.0020 C.3       1 <0>        -0.0639
      3 H1          0.4501   -0.3665    0.9272 H         1 <0>         0.1320
      4 C3         -1.4075   -0.5249   -0.1112 C.2       1 <0>         0.4991
      5 O1         -1.7761   -1.0680   -1.1386 O.co2     1 <0>        -0.6678
      6 O2         -2.1794   -0.4033    0.8248 O.co2     1 <0>        -0.6405
      7 N1          0.7922   -0.4768   -1.1426 N.4       1 <0>        -0.6027
      8 N2          1.3557    2.0329    0.0000 N.pl3     1 <0>        -0.5059
      9 C4          2.1974    2.0610   -1.0502 C.2       1 <0>         0.5942
     10 O3          1.9169    1.6204   -2.2941 O.3       1 <0>        -0.6607
     11 N3          3.3403    2.5907   -0.6628 N.2       1 <0>        -0.6559
     12 C5          3.2823    2.9189    0.6279 C.2       1 <0>         0.5845
     13 O4          4.1815    3.4284    1.2748 O.2       1 <0>        -0.5268
     14 O5          2.0627    2.5981    1.0944 O.3       1 <0>        -0.1559
     15 H2         -0.5459    1.8868   -0.8726 H         1 <0>         0.1126
     16 H3         -0.5289    1.8773    0.9072 H         1 <0>         0.1283
     17 H4          0.3774   -0.1413   -1.9991 H         1 <0>         0.4369
     18 H5          1.7359   -0.1280   -1.0669 H         1 <0>         0.4173
     19 H6          0.8059   -1.4857   -1.1482 H         1 <0>         0.4191
@<TRIPOS>BOND
     1    1    2 1
     2    1    8 1
     3    1   15 1
     4    1   16 1
     5    2    3 1
     6    2    4 1
     7    2    7 1
     8    4    5 2
     9    4    6 1
    10    7   17 1
    11    7   18 1
    12    7   19 1
    13    8   14 1
    14    8    9 1
    15    9   10 1
    16    9   11 2
    17   11   12 1
    18   12   13 2
    19   12   14 1
@<TRIPOS>MOLECULE
ZINC13779018
   20    20     0     0     0
SMALL
USER_CHARGES

@<TRIPOS>ATOM
      1 C1         -0.0187    1.5258    0.0104 C.3       1 <0>         0.1622
      2 C2          0.0021   -0.0041    0.0020 C.3       1 <0>         0.0738
      3 H1          0.4501   -0.3665    0.9272 H         1 <0>         0.1320
      4 C3         -1.4075   -0.5249   -0.1112 C.2       1 <0>         0.4457
      5 O1         -1.8299   -0.8975   -1.1801 O.2       1 <0>        -0.5041
      6 O2         -2.1938   -0.5750    0.9756 O.3       1 <0>        -0.5011
      7 N1          0.7922   -0.4768   -1.1426 N.3       1 <0>        -0.8119
      8 N2          1.3557    2.0329    0.0000 N.pl3     1 <0>        -0.4321
      9 C4          2.1974    2.0610   -1.0502 C.2       1 <0>         0.6249
     10 N3          3.3406    2.5899   -0.6626 N.2       1 <0>        -0.6311
     11 C5          3.2828    2.9177    0.6282 C.2       1 <0>         0.5998
     12 O3          4.1822    3.4265    1.2753 O.2       1 <0>        -0.4634
     13 O4          2.0627    2.5981    1.0944 O.3       1 <0>        -0.1103
     14 O5          1.9169    1.6204   -2.2941 O.3       1 <0>        -0.4110
     15 H2         -0.5459    1.8868   -0.8726 H         1 <0>         0.1177
     16 H3         -0.5289    1.8773    0.9072 H         1 <0>         0.1297
     17 H4         -3.0795   -0.9232    0.8045 H         1 <0>         0.4131
     18 H5          0.8750   -1.4823   -1.1342 H         1 <0>         0.3592
     19 H6          0.3968   -0.1538   -2.0130 H         1 <0>         0.3617
     20 H7          2.6463    1.7214   -2.9209 H         1 <0>         0.4452
@<TRIPOS>BOND
     1    1    2 1
     2    1    8 1
     3    1   15 1
     4    1   16 1
     5    2    3 1
     6    2    4 1
     7    2    7 1
     8    4    5 2
     9    4    6 1
    10    6   17 1
    11    7   18 1
    12    7   19 1
    13    8   13 1
    14    8    9 1
    15    9   10 2
    16    9   14 1
    17   10   11 1
    18   11   12 2
    19   11   13 1
    20   14   20 1
@<TRIPOS>MOLECULE
ZINC01489321
   22    23     0     0     0
SMALL
USER_CHARGES

@<TRIPOS>ATOM
      1 C1          8.4297    0.6198   -0.0714 C.3       1 <0>        -0.0679
      2 C2          7.0514    0.0104   -0.0617 C.2       1 <0>         0.1038
      3 N1          5.8891    0.6137   -0.0482 N.2       1 <0>        -0.5013
      4 C3          4.7531   -0.0708   -0.0410 C.2       1 <0>         0.1611
      5 C4          4.8338   -1.4424   -0.0425 C.2       1 <0>        -0.1874
      6 S1          6.6061   -1.6675   -0.0655 S.3       1 <0>         0.0676
      7 C5          3.4862    0.5966   -0.0263 C.1       1 <0>        -0.0788
      8 C6          2.4476    1.1438   -0.0142 C.1       1 <0>        -0.0931
      9 C7          1.1808    1.8112    0.0005 C.ar      1 <0>        -0.0380
     10 C8         -0.0126    1.0758    0.0080 C.ar      1 <0>        -0.0510
     11 C9         -1.2093    1.7691    0.0173 C.ar      1 <0>        -0.1700
     12 C10        -1.1910    3.1527    0.0294 C.ar      1 <0>         0.1087
     13 N2         -0.0528    3.8196    0.0221 N.ar      1 <0>        -0.4809
     14 C11         1.1126    3.2067    0.0082 C.ar      1 <0>         0.1307
     15 H1          8.7714    0.7619    0.9539 H         1 <0>         0.0955
     16 H2          9.1171   -0.0448   -0.5947 H         1 <0>         0.0914
     17 H3          8.3974    1.5831   -0.5804 H         1 <0>         0.0973
     18 H4          4.0448   -2.1798   -0.0338 H         1 <0>         0.2036
     19 H5          0.0021   -0.0041    0.0020 H         1 <0>         0.1403
     20 H6         -2.1486    1.2360    0.0191 H         1 <0>         0.1436
     21 H7         -2.1244    3.6959    0.0409 H         1 <0>         0.1621
     22 H8          2.0232    3.7875    0.0029 H         1 <0>         0.1627
@<TRIPOS>BOND
     1    1    2 1
     2    1   15 1
     3    1   16 1
     4    1   17 1
     5    2    6 1
     6    2    3 2
     7    3    4 1
     8    4    5 2
     9    4    7 1
    10    5    6 1
    11    5   18 1
    12    7    8 3
    13    8    9 1
    14    9   14 ar
    15    9   10 ar
    16   10   11 ar
    17   10   19 1
    18   11   12 ar
    19   11   20 1
    20   12   13 ar
    21   12   21 1
    22   13   14 ar
    23   14   22 1
@<TRIPOS>MOLECULE
ZINC25720507
   16    16     0     0     0
SMALL
USER_CHARGES

@<TRIPOS>ATOM
      1 C1         -0.0171    1.4063    0.0098 C.2       1 <0>        -0.3479
      2 C2         -1.3010    1.8118    0.0183 C.2       1 <0>         0.1234
      3 O1         -2.0979    0.7371    0.0165 O.3       1 <0>        -0.0447
      4 N1         -1.2818   -0.4209    0.0061 N.am      1 <0>        -0.5850
      5 C3          0.0021   -0.0041    0.0020 C.2       1 <0>         0.5367
      6 O2          0.9941   -0.7148   -0.0119 O.2       1 <0>        -0.5394
      7 C4         -1.7655    3.2454    0.0289 C.3       1 <0>         0.0826
      8 H1         -0.9032    3.9061    0.1181 H         1 <0>         0.1200
      9 C5         -2.4978    3.5456   -1.2536 C.2       1 <0>         0.5051
     10 O3         -3.7035    3.7263   -1.2391 O.co2     1 <0>        -0.6618
     11 O4         -1.8846    3.6077   -2.3055 O.co2     1 <0>        -0.6809
     12 N2         -2.6667    3.4597    1.1690 N.3       1 <0>        -0.8080
     13 H2          0.8497    2.0506    0.0050 H         1 <0>         0.1700
     14 H3         -3.4746    2.8582    1.1094 H         1 <0>         0.3518
     15 H4         -2.1811    3.3274    2.0436 H         1 <0>         0.3283
     16 H5         -1.5883   -1.3412    0.0026 H         1 <0>         0.4499
@<TRIPOS>BOND
     1    1    5 1
     2    1   13 1
     3    1    2 2
     4    2    3 1
     5    2    7 1
     6    3    4 1
     7    4    5 am
     8    4   16 1
     9    5    6 2
    10    7    8 1
    11    7    9 1
    12    7   12 1
    13    9   10 2
    14    9   11 1
    15   12   14 1
    16   12   15 1
@<TRIPOS>MOLECULE
ZINC13487233
   30    31     0     0     0
SMALL
USER_CHARGES
2-[2-(3-methoxyphenyl)ethynyl]-6-methyl-pyridine
@<TRIPOS>ATOM
      1 C1         -4.6295    6.8908    0.0611 C.3       1 <0>        -0.1065
      2 C2         -4.6725    5.3844    0.0531 C.ar      1 <0>         0.1350
      3 C3         -5.8950    4.7371    0.0544 C.ar      1 <0>        -0.1650
      4 C4         -5.9323    3.3495    0.0471 C.ar      1 <0>        -0.0686
      5 C5         -4.7353    2.6562    0.0332 C.ar      1 <0>        -0.1507
      6 C6         -3.5363    3.3731    0.0372 C.ar      1 <0>         0.2335
      7 N1         -3.5457    4.7029    0.0445 N.ar      1 <0>        -0.4698
      8 C7         -2.2882    2.6711    0.0274 C.1       1 <0>        -0.1052
      9 C8         -1.2650    2.0956    0.0194 C.1       1 <0>        -0.0817
     10 C9         -0.0169    1.3936    0.0097 C.ar      1 <0>         0.0482
     11 C10         0.0021   -0.0041    0.0020 C.ar      1 <0>        -0.1285
     12 C11         1.2063   -0.6762   -0.0131 C.ar      1 <0>        -0.0786
     13 C12         2.3967    0.0280   -0.0207 C.ar      1 <0>        -0.1956
     14 C13         2.3886    1.4164   -0.0136 C.ar      1 <0>         0.1288
     15 C14         1.1862    2.1026    0.0020 C.ar      1 <0>        -0.1231
     16 O1          3.5618    2.1024   -0.0220 O.3       1 <0>        -0.3152
     17 C15         4.7644    1.3307   -0.0381 C.3       1 <0>         0.0259
     18 H1         -4.6236    7.2596   -0.9646 H         1 <0>         0.0815
     19 H2         -5.5065    7.2765    0.5808 H         1 <0>         0.0787
     20 H3         -3.7273    7.2258    0.5728 H         1 <0>         0.0795
     21 H4         -6.8127    5.3065    0.0615 H         1 <0>         0.1407
     22 H5         -6.8751    2.8227    0.0476 H         1 <0>         0.1430
     23 H6         -4.7278    1.5763    0.0231 H         1 <0>         0.1406
     24 H7         -0.9255   -0.5572    0.0075 H         1 <0>         0.1309
     25 H8          1.2199   -1.7561   -0.0194 H         1 <0>         0.1335
     26 H9          3.3364   -0.5042   -0.0325 H         1 <0>         0.1332
     27 H10         1.1787    3.1825    0.0079 H         1 <0>         0.1379
     28 H11         4.8017    0.6975    0.8484 H         1 <0>         0.0574
     29 H12         4.7837    0.7065   -0.9315 H         1 <0>         0.0574
     30 H13         5.6252    1.9994   -0.0434 H         1 <0>         0.1028
@<TRIPOS>BOND
     1    1    2 1
     2    1   18 1
     3    1   19 1
     4    1   20 1
     5    2    7 ar
     6    2    3 ar
     7    3    4 ar
     8    3   21 1
     9    4    5 ar
    10    4   22 1
    11    5    6 ar
    12    5   23 1
    13    6    7 ar
    14    6    8 1
    15    8    9 3
    16    9   10 1
    17   10   15 ar
    18   10   11 ar
    19   11   12 ar
    20   11   24 1
    21   12   13 ar
    22   12   25 1
    23   13   14 ar
    24   13   26 1
    25   14   15 ar
    26   14   16 1
    27   15   27 1
    28   16   17 1
    29   17   28 1
    30   17   29 1
    31   17   30 1
@<TRIPOS>MOLECULE
ZINC13584912
   46    49     0     0     0
SMALL
USER_CHARGES
N-(2,5-diphenylpyrazol-3-yl)-3-methyl-benzamide
@<TRIPOS>ATOM
      1 C1         -2.5138    0.9721    0.0188 C.3       1 <0>        -0.1184
      2 C2         -1.2220    1.7483    0.0174 C.ar      1 <0>        -0.0894
      3 C3         -0.0126    1.0758    0.0080 C.ar      1 <0>        -0.0878
      4 C4          1.1778    1.7807    0.0004 C.ar      1 <0>        -0.1189
      5 C5          1.1662    3.1603    0.0079 C.ar      1 <0>        -0.0935
      6 C6         -0.0501    3.8448    0.0232 C.ar      1 <0>        -0.1325
      7 C7         -1.2478    3.1273    0.0308 C.ar      1 <0>        -0.0537
      8 C8         -0.0702    5.3227    0.0308 C.2       1 <0>         0.5687
      9 O1         -1.1311    5.9161    0.0441 O.2       1 <0>        -0.4962
     10 N1          1.0877    6.0124    0.0230 N.am      1 <0>        -0.6478
     11 C9          1.0688    7.4058    0.0302 C.2       1 <0>         0.3111
     12 C10        -0.0392    8.1928    0.0390 C.2       1 <0>        -0.2524
     13 C11         0.3859    9.5347    0.0463 C.2       1 <0>         0.1371
     14 N2          1.7025    9.5491    0.0340 N.2       1 <0>        -0.2685
     15 N3          2.1573    8.2245    0.0238 N.pl3     1 <0>        -0.3387
     16 C12         3.4965    7.8137    0.0098 C.ar      1 <0>         0.1560
     17 C13         3.8803    6.6688    0.6955 C.ar      1 <0>        -0.1527
     18 C14         5.2004    6.2633    0.6750 C.ar      1 <0>        -0.0907
     19 C15         6.1416    7.0024   -0.0179 C.ar      1 <0>        -0.1217
     20 C16         5.7636    8.1462   -0.6970 C.ar      1 <0>        -0.0926
     21 C17         4.4441    8.5538   -0.6851 C.ar      1 <0>        -0.1089
     22 C18        -0.4972   10.7271    0.0603 C.ar      1 <0>        -0.0206
     23 C19        -1.8819   10.5717    0.0673 C.ar      1 <0>        -0.0891
     24 C20        -2.6984   11.6842    0.0862 C.ar      1 <0>        -0.1213
     25 C21        -2.1447   12.9518    0.0867 C.ar      1 <0>        -0.1087
     26 C22        -0.7708   13.1119    0.0740 C.ar      1 <0>        -0.1233
     27 C23         0.0552   12.0064    0.0609 C.ar      1 <0>        -0.0892
     28 H1         -2.8205    0.7790    1.0468 H         1 <0>         0.0757
     29 H2         -3.2859    1.5508   -0.4882 H         1 <0>         0.0716
     30 H3         -2.3692    0.0251   -0.5012 H         1 <0>         0.0711
     31 H4          0.0021   -0.0041    0.0020 H         1 <0>         0.1314
     32 H5          2.1182    1.2498   -0.0118 H         1 <0>         0.1334
     33 H6          2.0961    3.7094    0.0023 H         1 <0>         0.1220
     34 H7         -2.1923    3.6508    0.0426 H         1 <0>         0.1404
     35 H8          1.9342    5.5389    0.0124 H         1 <0>         0.4125
     36 H9         -1.0633    7.8498    0.0422 H         1 <0>         0.1826
     37 H10         3.1465    6.0936    1.2405 H         1 <0>         0.1247
     38 H11         5.4987    5.3702    1.2041 H         1 <0>         0.1360
     39 H12         7.1740    6.6855   -0.0290 H         1 <0>         0.1327
     40 H13         6.5011    8.7215   -1.2369 H         1 <0>         0.1356
     41 H14         4.1494    9.4470   -1.2159 H         1 <0>         0.1366
     42 H15        -2.3153    9.5825    0.0624 H         1 <0>         0.1303
     43 H16        -3.7718   11.5649    0.0961 H         1 <0>         0.1278
     44 H17        -2.7874   13.8197    0.0973 H         1 <0>         0.1247
     45 H18        -0.3438   14.1039    0.0741 H         1 <0>         0.1261
     46 H19         1.1278   12.1325    0.0514 H         1 <0>         0.1286
@<TRIPOS>BOND
     1    1    2 1
     2    1   28 1
     3    1   29 1
     4    1   30 1
     5    2    7 ar
     6    2    3 ar
     7    3    4 ar
     8    3   31 1
     9    4    5 ar
    10    4   32 1
    11    5    6 ar
    12    5   33 1
    13    6    7 ar
    14    6    8 1
    15    7   34 1
    16    8    9 2
    17    8   10 am
    18   10   11 1
    19   10   35 1
    20   11   15 1
    21   11   12 2
    22   12   13 1
    23   12   36 1
    24   13   14 2
    25   13   22 1
    26   14   15 1
    27   15   16 1
    28   16   21 ar
    29   16   17 ar
    30   17   18 ar
    31   17   37 1
    32   18   19 ar
    33   18   38 1
    34   19   20 ar
    35   19   39 1
    36   20   21 ar
    37   20   40 1
    38   21   41 1
    39   22   27 ar
    40   22   23 ar
    41   23   24 ar
    42   23   42 1
    43   24   25 ar
    44   24   43 1
    45   25   26 ar
    46   25   44 1
    47   26   27 ar
    48   26   45 1
    49   27   46 1
@<TRIPOS>MOLECULE
ZINC01037297
   43    46     0     0     0
SMALL
USER_CHARGES

@<TRIPOS>ATOM
      1 C1         -0.0167    1.3790    0.0096 C.ar      1 <0>        -0.1084
      2 C2          1.1687    2.0919    0.0021 C.ar      1 <0>        -0.1235
      3 C3          2.3774    1.4259   -0.0134 C.ar      1 <0>        -0.0890
      4 C4          2.4022    0.0327   -0.0211 C.ar      1 <0>        -0.0213
      5 C5          1.2051   -0.6804   -0.0130 C.ar      1 <0>        -0.0888
      6 C6          0.0021   -0.0041    0.0020 C.ar      1 <0>        -0.1212
      7 C7          3.6987   -0.6889   -0.0383 C.2       1 <0>         0.1381
      8 C8          3.8652   -2.0866   -0.0530 C.2       1 <0>        -0.2511
      9 C9          5.1992   -2.3461   -0.0661 C.2       1 <0>         0.3108
     10 N1          5.8530   -1.1512   -0.0597 N.pl3     1 <0>        -0.3386
     11 N2          4.8919   -0.1323   -0.0480 N.2       1 <0>        -0.2678
     12 C10         7.2423   -0.9726   -0.0689 C.ar      1 <0>         0.1567
     13 C11         8.0637   -1.8702    0.6005 C.ar      1 <0>        -0.1540
     14 C12         9.4331   -1.6916    0.5891 C.ar      1 <0>        -0.0903
     15 C13         9.9866   -0.6202   -0.0876 C.ar      1 <0>        -0.1221
     16 C14         9.1714    0.2756   -0.7548 C.ar      1 <0>        -0.0919
     17 C15         7.8016    0.0991   -0.7524 C.ar      1 <0>        -0.1093
     18 N3          5.7915   -3.6075   -0.0825 N.am      1 <0>        -0.6465
     19 C16         5.0214   -4.7135   -0.0871 C.2       1 <0>         0.5670
     20 O1          3.8099   -4.6109   -0.0770 O.2       1 <0>        -0.4835
     21 C17         5.6489   -6.0500   -0.1045 C.ar      1 <0>        -0.1769
     22 C18         7.0403   -6.1721   -0.1104 C.ar      1 <0>        -0.0589
     23 C19         7.6199   -7.4227   -0.1267 C.ar      1 <0>        -0.1351
     24 C20         6.8272   -8.5580   -0.1373 C.ar      1 <0>        -0.0550
     25 C21         5.4496   -8.4478   -0.1320 C.ar      1 <0>        -0.1613
     26 C22         4.8533   -7.1999   -0.1094 C.ar      1 <0>         0.1688
     27 F1          3.5066   -7.0924   -0.0977 F         1 <0>        -0.1105
     28 H1         -0.9603    1.9042    0.0260 H         1 <0>         0.1248
     29 H2          1.1483    3.1717    0.0081 H         1 <0>         0.1262
     30 H3          3.3023    1.9835   -0.0199 H         1 <0>         0.1286
     31 H4          1.2186   -1.7603   -0.0192 H         1 <0>         0.1305
     32 H5         -0.9264   -0.5558    0.0082 H         1 <0>         0.1280
     33 H6          3.0740   -2.8216   -0.0536 H         1 <0>         0.1828
     34 H7          7.6320   -2.7067    1.1298 H         1 <0>         0.1245
     35 H8         10.0724   -2.3893    1.1096 H         1 <0>         0.1361
     36 H9         11.0577   -0.4825   -0.0947 H         1 <0>         0.1328
     37 H10         9.6065    1.1118   -1.2819 H         1 <0>         0.1356
     38 H11         7.1657    0.7963   -1.2777 H         1 <0>         0.1367
     39 H12         6.7580   -3.6894   -0.0906 H         1 <0>         0.4119
     40 H13         7.6610   -5.2883   -0.1026 H         1 <0>         0.1323
     41 H14         8.6957   -7.5174   -0.1316 H         1 <0>         0.1411
     42 H15         7.2879   -9.5347   -0.1500 H         1 <0>         0.1432
     43 H16         4.8376   -9.3376   -0.1410 H         1 <0>         0.1483
@<TRIPOS>BOND
     1    1    6 ar
     2    1    2 ar
     3    1   28 1
     4    2    3 ar
     5    2   29 1
     6    3    4 ar
     7    3   30 1
     8    4    5 ar
     9    4    7 1
    10    5    6 ar
    11    5   31 1
    12    6   32 1
    13    7   11 2
    14    7    8 1
    15    8    9 2
    16    8   33 1
    17    9   10 1
    18    9   18 1
    19   10   11 1
    20   10   12 1
    21   12   17 ar
    22   12   13 ar
    23   13   14 ar
    24   13   34 1
    25   14   15 ar
    26   14   35 1
    27   15   16 ar
    28   15   36 1
    29   16   17 ar
    30   16   37 1
    31   17   38 1
    32   18   19 am
    33   18   39 1
    34   19   20 2
    35   19   21 1
    36   21   26 ar
    37   21   22 ar
    38   22   23 ar
    39   22   40 1
    40   23   24 ar
    41   23   41 1
    42   24   25 ar
    43   24   42 1
    44   25   26 ar
    45   25   43 1
    46   26   27 1
@<TRIPOS>MOLECULE
ZINC01037297
   48    51     0     0     0
SMALL
USER_CHARGES

@<TRIPOS>ATOM
      1 C1         -2.1415    0.1757    0.7878 C.3       1 <0>        -0.1414
      2 C2         -1.1626   -0.8915    0.3708 C.ar      1 <0>         0.0303
      3 C3         -1.2817   -1.5084   -0.8526 C.ar      1 <0>        -0.1911
      4 C4         -0.3796   -2.4900   -1.2341 C.ar      1 <0>         0.1915
      5 N1          0.6033   -2.8436   -0.4290 N.ar      1 <0>        -0.4597
      6 C5          0.7596   -2.2829    0.7507 C.ar      1 <0>         0.1442
      7 C6         -0.1021   -1.2702    1.2306 C.ar      1 <0>        -0.1971
      8 C7          0.2218   -0.7589    2.5535 C.2       1 <0>         0.3131
      9 C8          1.3131   -1.2852    3.2085 C.2       1 <0>        -0.3383
     10 S1          1.9350   -2.5010    2.0637 S.3       1 <0>         0.1120
     11 C9          1.8158   -0.9471    4.4900 C.2       1 <0>         0.6328
     12 O1          1.2623   -0.0896    5.1543 O.2       1 <0>        -0.5307
     13 N2          2.9063   -1.5746    4.9732 N.am      1 <0>        -0.5196
     14 N3          3.4031   -1.2403    6.2398 N.am      1 <0>        -0.4012
     15 C10         4.6110   -0.4305    6.3229 C.3       1 <0>         0.1050
     16 C11         5.2584   -0.5550    7.6692 C.2       1 <0>         0.5215
     17 O2          6.4268   -0.2501    7.7829 O.2       1 <0>        -0.5051
     18 N4          4.6011   -0.9879    8.7495 N.am      1 <0>        -0.5650
     19 C12         3.1977   -1.3768    8.7173 C.3       1 <0>         0.1131
     20 C13         2.7452   -1.6739    7.3194 C.2       1 <0>         0.5205
     21 O3          1.7432   -2.3388    7.1616 O.2       1 <0>        -0.5030
     22 C14         5.2911   -1.0715    9.9639 C.ar      1 <0>         0.1233
     23 C15         5.4241    0.0532   10.7675 C.ar      1 <0>        -0.1011
     24 C16         6.1058   -0.0326   11.9656 C.ar      1 <0>        -0.1105
     25 C17         6.6556   -1.2368   12.3653 C.ar      1 <0>        -0.1086
     26 C18         6.5253   -2.3585   11.5672 C.ar      1 <0>        -0.1104
     27 C19         5.8395   -2.2807   10.3709 C.ar      1 <0>        -0.1066
     28 N5         -0.5492    0.2347    3.1406 N.pl3     1 <0>        -0.8334
     29 C20        -0.5238   -3.1577   -2.5774 C.3       1 <0>        -0.1095
     30 H1         -1.7168    1.1584    0.5829 H         1 <0>         0.0887
     31 H2         -3.0690    0.0568    0.2278 H         1 <0>         0.0866
     32 H3         -2.3467    0.0837    1.8544 H         1 <0>         0.0840
     33 H4         -2.0828   -1.2268   -1.5200 H         1 <0>         0.1473
     34 H5          3.3471   -2.2576    4.4440 H         1 <0>         0.4184
     35 H6          5.3139   -0.7584    5.5571 H         1 <0>         0.1264
     36 H7          4.3534    0.6137    6.1459 H         1 <0>         0.1132
     37 H8          3.0587   -2.2633    9.3361 H         1 <0>         0.1272
     38 H9          2.5928   -0.5640    9.1192 H         1 <0>         0.1143
     39 H10         4.9952    0.9941   10.4558 H         1 <0>         0.1253
     40 H11         6.2099    0.8419   12.5909 H         1 <0>         0.1298
     41 H12         7.1882   -1.3013   13.3026 H         1 <0>         0.1281
     42 H13         6.9561   -3.2975   11.8819 H         1 <0>         0.1299
     43 H14         5.7336   -3.1584    9.7504 H         1 <0>         0.1256
     44 H15        -1.0760    0.8311    2.5859 H         1 <0>         0.4024
     45 H16        -0.5612    0.3326    4.1055 H         1 <0>         0.4194
     46 H17         0.0443   -2.6010   -3.3226 H         1 <0>         0.0889
     47 H18        -0.1442   -4.1778   -2.5187 H         1 <0>         0.0853
     48 H19        -1.5757   -3.1772   -2.8624 H         1 <0>         0.0841
@<TRIPOS>BOND
     1    1    2 1
     2    1   30 1
     3    1   31 1
     4    1   32 1
     5    2    7 ar
     6    2    3 ar
     7    3    4 ar
     8    3   33 1
     9    4    5 ar
    10    4   29 1
    11    5    6 ar
    12    6   10 1
    13    6    7 ar
    14    7    8 1
    15    8    9 2
    16    8   28 1
    17    9   10 1
    18    9   11 1
    19   11   12 2
    20   11   13 am
    21   13   14 1
    22   13   34 1
    23   14   20 am
    24   14   15 1
    25   15   16 1
    26   15   35 1
    27   15   36 1
    28   16   17 2
    29   16   18 am
    30   18   19 1
    31   18   22 1
    32   19   20 1
    33   19   37 1
    34   19   38 1
    35   20   21 2
    36   22   27 ar
    37   22   23 ar
    38   23   24 ar
    39   23   39 1
    40   24   25 ar
    41   24   40 1
    42   25   26 ar
    43   25   41 1
    44   26   27 ar
    45   26   42 1
    46   27   43 1
    47   28   44 1
    48   28   45 1
    49   29   46 1
    50   29   47 1
    51   29   48 1
@<TRIPOS>MOLECULE
ZINC01037297
   49    52     0     0     0
SMALL
USER_CHARGES

@<TRIPOS>ATOM
      1 C1         -2.1415    0.1757    0.7878 C.3       1 <0>        -0.1663
      2 C2         -1.1626   -0.8915    0.3708 C.ar      1 <0>         0.1146
      3 C3         -1.2817   -1.5084   -0.8526 C.ar      1 <0>        -0.1683
      4 C4         -0.3796   -2.4900   -1.2341 C.ar      1 <0>         0.2345
      5 N1          0.6033   -2.8436   -0.4290 N.ar      1 <0>        -0.4322
      6 C5          0.7593   -2.2832    0.7509 C.ar      1 <0>         0.0824
      7 C6         -0.1021   -1.2702    1.2306 C.ar      1 <0>        -0.1492
      8 C7          0.2218   -0.7589    2.5535 C.2       1 <0>         0.3072
      9 C8          1.3131   -1.2852    3.2085 C.2       1 <0>        -0.3145
     10 S1          1.9344   -2.5017    2.0641 S.3       1 <0>         0.2513
     11 C9          1.8158   -0.9471    4.4900 C.2       1 <0>         0.6245
     12 O1          1.2623   -0.0896    5.1543 O.2       1 <0>        -0.5065
     13 N2          2.9063   -1.5746    4.9732 N.am      1 <0>        -0.5152
     14 N3          3.4031   -1.2403    6.2398 N.am      1 <0>        -0.4022
     15 C10         4.6110   -0.4305    6.3229 C.3       1 <0>         0.1052
     16 C11         5.2584   -0.5550    7.6692 C.2       1 <0>         0.5189
     17 O2          6.4268   -0.2501    7.7829 O.2       1 <0>        -0.4989
     18 N4          4.6011   -0.9879    8.7495 N.am      1 <0>        -0.5631
     19 C12         3.1977   -1.3768    8.7173 C.3       1 <0>         0.1125
     20 C13         2.7452   -1.6739    7.3194 C.2       1 <0>         0.5246
     21 O3          1.7432   -2.3388    7.1616 O.2       1 <0>        -0.5041
     22 C14         5.2911   -1.0715    9.9639 C.ar      1 <0>         0.1173
     23 C15         5.4241    0.0532   10.7675 C.ar      1 <0>        -0.1003
     24 C16         6.1058   -0.0326   11.9656 C.ar      1 <0>        -0.1090
     25 C17         6.6556   -1.2368   12.3653 C.ar      1 <0>        -0.1048
     26 C18         6.5253   -2.3585   11.5672 C.ar      1 <0>        -0.1095
     27 C19         5.8395   -2.2807   10.3709 C.ar      1 <0>        -0.1064
     28 N5         -0.5492    0.2347    3.1406 N.pl3     1 <0>        -0.8153
     29 C20        -0.5238   -3.1577   -2.5774 C.3       1 <0>        -0.1481
     30 H1         -1.7168    1.1584    0.5829 H         1 <0>         0.1178
     31 H2         -3.0690    0.0568    0.2278 H         1 <0>         0.1108
     32 H3         -2.3467    0.0837    1.8544 H         1 <0>         0.1031
     33 H4         -2.0828   -1.2268   -1.5200 H         1 <0>         0.1924
     34 H5          3.3471   -2.2576    4.4440 H         1 <0>         0.4155
     35 H6          5.3139   -0.7584    5.5571 H         1 <0>         0.1264
     36 H7          4.3534    0.6137    6.1459 H         1 <0>         0.1149
     37 H8          3.0587   -2.2633    9.3361 H         1 <0>         0.1308
     38 H9          2.5928   -0.5640    9.1192 H         1 <0>         0.1177
     39 H10         4.9952    0.9941   10.4558 H         1 <0>         0.1254
     40 H11         6.2099    0.8419   12.5909 H         1 <0>         0.1316
     41 H12         7.1882   -1.3013   13.3026 H         1 <0>         0.1303
     42 H13         6.9561   -3.2975   11.8819 H         1 <0>         0.1313
     43 H14         5.7336   -3.1584    9.7504 H         1 <0>         0.1246
     44 H15        -1.0760    0.8311    2.5859 H         1 <0>         0.4102
     45 H16        -0.5612    0.3326    4.1055 H         1 <0>         0.4317
     46 H17         0.0443   -2.6010   -3.3226 H         1 <0>         0.1256
     47 H18        -0.1442   -4.1778   -2.5187 H         1 <0>         0.1048
     48 H19        -1.5757   -3.1772   -2.8624 H         1 <0>         0.1255
     49 H20         1.2247   -3.5322   -0.7130 H         1 <0>         0.4510
@<TRIPOS>BOND
     1    1    2 1
     2    1   30 1
     3    1   31 1
     4    1   32 1
     5    2    7 ar
     6    2    3 ar
     7    3    4 ar
     8    3   33 1
     9    4    5 ar
    10    4   29 1
    11    5    6 ar
    12    5   49 1
    13    6   10 1
    14    6    7 ar
    15    7    8 1
    16    8    9 2
    17    8   28 1
    18    9   10 1
    19    9   11 1
    20   11   12 2
    21   11   13 am
    22   13   14 1
    23   13   34 1
    24   14   20 am
    25   14   15 1
    26   15   16 1
    27   15   35 1
    28   15   36 1
    29   16   17 2
    30   16   18 am
    31   18   19 1
    32   18   22 1
    33   19   20 1
    34   19   37 1
    35   19   38 1
    36   20   21 2
    37   22   27 ar
    38   22   23 ar
    39   23   24 ar
    40   23   39 1
    41   24   25 ar
    42   24   40 1
    43   25   26 ar
    44   25   41 1
    45   26   27 ar
    46   26   42 1
    47   27   43 1
    48   28   44 1
    49   28   45 1
    50   29   46 1
    51   29   47 1
    52   29   48 1
@<TRIPOS>MOLECULE
ZINC00008977
   27    29     0     0     0
SMALL
USER_CHARGES
3-[3-(2-pyridyl)-1,2,4-oxadiazol-5-yl]benzonitrile
@<TRIPOS>ATOM
      1 C1         -1.6969   10.9863    0.0739 C.ar      1 <0>        -0.0732
      2 C2         -3.0765   10.8407    0.0871 C.ar      1 <0>        -0.1536
      3 C3         -3.6242    9.5706    0.0865 C.ar      1 <0>         0.1058
      4 N1         -2.8541    8.5022    0.0681 N.ar      1 <0>        -0.4468
      5 C4         -1.5316    8.5983    0.0606 C.ar      1 <0>         0.1905
      6 C5         -0.9123    9.8454    0.0604 C.ar      1 <0>        -0.1325
      7 C6         -0.7040    7.3653    0.0463 C.2       1 <0>         0.2244
      8 N2         -1.1614    6.0959    0.0400 N.2       1 <0>        -0.4364
      9 C7         -0.0848    5.3330    0.0310 C.2       1 <0>         0.2242
     10 O1          0.9754    6.1556    0.0244 O.3       1 <0>         0.0966
     11 N3          0.6028    7.3097    0.0332 N.2       1 <0>        -0.3617
     12 C8         -0.0528    3.8547    0.0233 C.ar      1 <0>        -0.0304
     13 C9         -1.2462    3.1287    0.0308 C.ar      1 <0>        -0.0322
     14 C10        -1.2185    1.7485    0.0173 C.ar      1 <0>        -0.1181
     15 C11        -0.0126    1.0758    0.0080 C.ar      1 <0>        -0.0407
     16 C12         1.1885    1.7893    0.0003 C.ar      1 <0>        -0.0249
     17 C13         1.1674    3.1832    0.0080 C.ar      1 <0>        -0.0315
     18 C14         2.4384    1.0905   -0.0158 C.1       1 <0>         0.2485
     19 N4          3.4299    0.5362   -0.0287 N.1       1 <0>        -0.4001
     20 H1         -1.2451   11.9672    0.0745 H         1 <0>         0.1457
     21 H2         -3.7165   11.7106    0.0982 H         1 <0>         0.1447
     22 H3         -4.6978    9.4534    0.0964 H         1 <0>         0.1675
     23 H4          0.1649    9.9218    0.0503 H         1 <0>         0.1442
     24 H5         -2.1928    3.6485    0.0422 H         1 <0>         0.1501
     25 H6         -2.1442    1.1922    0.0187 H         1 <0>         0.1488
     26 H7          0.0021   -0.0041    0.0020 H         1 <0>         0.1436
     27 H8          2.0929    3.7398    0.0025 H         1 <0>         0.1476
@<TRIPOS>BOND
     1    1    6 ar
     2    1    2 ar
     3    1   20 1
     4    2    3 ar
     5    2   21 1
     6    3    4 ar
     7    3   22 1
     8    4    5 ar
     9    5    6 ar
    10    5    7 1
    11    6   23 1
    12    7   11 2
    13    7    8 1
    14    8    9 2
    15    9   10 1
    16    9   12 1
    17   10   11 1
    18   12   17 ar
    19   12   13 ar
    20   13   14 ar
    21   13   24 1
    22   14   15 ar
    23   14   25 1
    24   15   16 ar
    25   15   26 1
    26   16   17 ar
    27   16   18 1
    28   17   27 1
    29   18   19 3
@<TRIPOS>MOLECULE
ZINC01590899
   43    46     0     0     0
SMALL
USER_CHARGES
4-chloro-N-(2,5-diphenylpyrazol-3-yl)-benzamide
@<TRIPOS>ATOM
      1 C1          5.1748    0.6612   -0.0404 C.ar      1 <0>        -0.1083
      2 C2          4.8719    2.0108   -0.0315 C.ar      1 <0>        -0.1232
      3 C3          3.5555    2.4252   -0.0178 C.ar      1 <0>        -0.0890
      4 C4          2.5307    1.4811   -0.0129 C.ar      1 <0>        -0.0213
      5 C5          2.8416    0.1228   -0.0162 C.ar      1 <0>        -0.0890
      6 C6          4.1615   -0.2803   -0.0357 C.ar      1 <0>        -0.1213
      7 C7          1.1134    1.9205    0.0017 C.2       1 <0>         0.1374
      8 C8         -0.0126    1.0758    0.0080 C.2       1 <0>        -0.2509
      9 C9         -1.1215    1.8615    0.0168 C.2       1 <0>         0.3098
     10 N1         -0.7085    3.1594    0.0250 N.pl3     1 <0>        -0.3382
     11 N2          0.6920    3.1679    0.0120 N.2       1 <0>        -0.2673
     12 C10        -1.5387    4.2876    0.0384 C.ar      1 <0>         0.1555
     13 C11        -2.7475    4.2702   -0.6449 C.ar      1 <0>        -0.1534
     14 C12        -3.5665    5.3821   -0.6249 C.ar      1 <0>        -0.0906
     15 C13        -3.1786    6.5160    0.0650 C.ar      1 <0>        -0.1213
     16 C14        -1.9728    6.5386    0.7417 C.ar      1 <0>        -0.0921
     17 C15        -1.1520    5.4279    0.7303 C.ar      1 <0>        -0.1086
     18 N3         -2.4429    1.4189    0.0196 N.am      1 <0>        -0.6470
     19 C16        -2.7113    0.0981    0.0136 C.2       1 <0>         0.5691
     20 O1         -1.8005   -0.7072    0.0059 O.2       1 <0>        -0.4926
     21 C17        -4.1122   -0.3711    0.0166 C.ar      1 <0>        -0.1332
     22 C18        -5.1604    0.5513    0.0313 C.ar      1 <0>        -0.0739
     23 C19        -6.4658    0.1073    0.0281 C.ar      1 <0>        -0.1146
     24 C20        -6.7384   -1.2507    0.0225 C.ar      1 <0>        -0.0058
     25 C21        -5.7029   -2.1706    0.0137 C.ar      1 <0>        -0.1148
     26 C22        -4.3934   -1.7388    0.0104 C.ar      1 <0>        -0.0381
     27 Cl1        -8.3845   -1.8020    0.0260 Cl        1 <0>        -0.0529
     28 H1          6.2063    0.3413   -0.0515 H         1 <0>         0.1248
     29 H2          5.6671    2.7417   -0.0349 H         1 <0>         0.1262
     30 H3          3.3201    3.4792   -0.0112 H         1 <0>         0.1286
     31 H4          2.0512   -0.6132   -0.0079 H         1 <0>         0.1303
     32 H5          4.4036   -1.3328   -0.0427 H         1 <0>         0.1280
     33 H6          0.0021   -0.0041    0.0020 H         1 <0>         0.1829
     34 H7         -3.0490    3.3864   -1.1876 H         1 <0>         0.1245
     35 H8         -4.5089    5.3675   -1.1522 H         1 <0>         0.1362
     36 H9         -3.8188    7.3857    0.0757 H         1 <0>         0.1329
     37 H10        -1.6725    7.4258    1.2793 H         1 <0>         0.1358
     38 H11        -0.2106    5.4459    1.2593 H         1 <0>         0.1367
     39 H12        -3.1696    2.0614    0.0257 H         1 <0>         0.4125
     40 H13        -4.9490    1.6104    0.0402 H         1 <0>         0.1327
     41 H14        -7.2774    0.8199    0.0347 H         1 <0>         0.1449
     42 H15        -5.9216   -3.2282    0.0090 H         1 <0>         0.1468
     43 H16        -3.5868   -2.4570    0.0028 H         1 <0>         0.1516
@<TRIPOS>BOND
     1    1    6 ar
     2    1    2 ar
     3    1   28 1
     4    2    3 ar
     5    2   29 1
     6    3    4 ar
     7    3   30 1
     8    4    5 ar
     9    4    7 1
    10    5    6 ar
    11    5   31 1
    12    6   32 1
    13    7   11 2
    14    7    8 1
    15    8    9 2
    16    8   33 1
    17    9   10 1
    18    9   18 1
    19   10   11 1
    20   10   12 1
    21   12   17 ar
    22   12   13 ar
    23   13   14 ar
    24   13   34 1
    25   14   15 ar
    26   14   35 1
    27   15   16 ar
    28   15   36 1
    29   16   17 ar
    30   16   37 1
    31   17   38 1
    32   18   19 am
    33   18   39 1
    34   19   20 2
    35   19   21 1
    36   21   26 ar
    37   21   22 ar
    38   22   23 ar
    39   22   40 1
    40   23   24 ar
    41   23   41 1
    42   24   25 ar
    43   24   27 1
    44   25   26 ar
    45   25   42 1
    46   26   43 1
@<TRIPOS>MOLECULE
ZINC13584914
   46    49     0     0     0
SMALL
USER_CHARGES
N-(2,5-diphenylpyrazol-3-yl)-4-methyl-benzamide
@<TRIPOS>ATOM
      1 C1         -8.1676   -1.7294    0.0308 C.3       1 <0>        -0.1236
      2 C2         -6.7386   -1.2508    0.0273 C.ar      1 <0>        -0.0506
      3 C3         -5.7045   -2.1700    0.0187 C.ar      1 <0>        -0.1269
      4 C4         -4.3941   -1.7386    0.0149 C.ar      1 <0>        -0.0465
      5 C5         -4.1128   -0.3713    0.0198 C.ar      1 <0>        -0.1445
      6 C6         -5.1608    0.5507    0.0343 C.ar      1 <0>        -0.0816
      7 C7         -6.4667    0.1058    0.0322 C.ar      1 <0>        -0.1263
      8 C8         -2.7112    0.0981    0.0158 C.2       1 <0>         0.5691
      9 O1         -1.8005   -0.7071    0.0082 O.2       1 <0>        -0.4972
     10 N1         -2.4429    1.4189    0.0206 N.am      1 <0>        -0.6484
     11 C9         -1.1215    1.8615    0.0168 C.2       1 <0>         0.3113
     12 C10        -0.0126    1.0758    0.0080 C.2       1 <0>        -0.2524
     13 C11         1.1134    1.9205    0.0017 C.2       1 <0>         0.1370
     14 N2          0.6920    3.1679    0.0117 N.2       1 <0>        -0.2687
     15 N3         -0.7085    3.1594    0.0245 N.pl3     1 <0>        -0.3390
     16 C12        -1.5387    4.2877    0.0371 C.ar      1 <0>         0.1564
     17 C13        -2.7474    4.2698   -0.6463 C.ar      1 <0>        -0.1530
     18 C14        -3.5664    5.3818   -0.6271 C.ar      1 <0>        -0.0907
     19 C15        -3.1786    6.5161    0.0623 C.ar      1 <0>        -0.1219
     20 C16        -1.9729    6.5390    0.7391 C.ar      1 <0>        -0.0925
     21 C17        -1.1522    5.4282    0.7285 C.ar      1 <0>        -0.1090
     22 C18         2.5307    1.4811   -0.0129 C.ar      1 <0>        -0.0206
     23 C19         2.8416    0.1228   -0.0162 C.ar      1 <0>        -0.0891
     24 C20         4.1615   -0.2803   -0.0361 C.ar      1 <0>        -0.1213
     25 C21         5.1748    0.6612   -0.0404 C.ar      1 <0>        -0.1087
     26 C22         4.8719    2.0108   -0.0315 C.ar      1 <0>        -0.1233
     27 C23         3.5555    2.4252   -0.0178 C.ar      1 <0>        -0.0892
     28 H1         -8.5079   -1.8497    1.0593 H         1 <0>         0.0782
     29 H2         -8.7969   -0.9985   -0.4770 H         1 <0>         0.0718
     30 H3         -8.2316   -2.6862   -0.4873 H         1 <0>         0.0725
     31 H4         -5.9236   -3.2275    0.0152 H         1 <0>         0.1345
     32 H5         -3.5878   -2.4571    0.0079 H         1 <0>         0.1410
     33 H6         -4.9499    1.6098    0.0427 H         1 <0>         0.1224
     34 H7         -7.2785    0.8181    0.0386 H         1 <0>         0.1327
     35 H8         -3.1696    2.0614    0.0267 H         1 <0>         0.4122
     36 H9          0.0021   -0.0041    0.0020 H         1 <0>         0.1826
     37 H10        -3.0488    3.3858   -1.1886 H         1 <0>         0.1247
     38 H11        -4.5088    5.3668   -1.1545 H         1 <0>         0.1359
     39 H12        -3.8188    7.3858    0.0724 H         1 <0>         0.1326
     40 H13        -1.6727    7.4265    1.2763 H         1 <0>         0.1356
     41 H14        -0.2108    5.4466    1.2576 H         1 <0>         0.1366
     42 H15         2.0512   -0.6132   -0.0079 H         1 <0>         0.1303
     43 H16         4.4036   -1.3328   -0.0431 H         1 <0>         0.1278
     44 H17         6.2063    0.3413   -0.0512 H         1 <0>         0.1246
     45 H18         5.6671    2.7417   -0.0349 H         1 <0>         0.1261
     46 H19         3.3201    3.4792   -0.0112 H         1 <0>         0.1286
@<TRIPOS>BOND
     1    1    2 1
     2    1   28 1
     3    1   29 1
     4    1   30 1
     5    2    7 ar
     6    2    3 ar
     7    3    4 ar
     8    3   31 1
     9    4    5 ar
    10    4   32 1
    11    5    6 ar
    12    5    8 1
    13    6    7 ar
    14    6   33 1
    15    7   34 1
    16    8    9 2
    17    8   10 am
    18   10   11 1
    19   10   35 1
    20   11   15 1
    21   11   12 2
    22   12   13 1
    23   12   36 1
    24   13   14 2
    25   13   22 1
    26   14   15 1
    27   15   16 1
    28   16   21 ar
    29   16   17 ar
    30   17   18 ar
    31   17   37 1
    32   18   19 ar
    33   18   38 1
    34   19   20 ar
    35   19   39 1
    36   20   21 ar
    37   20   40 1
    38   21   41 1
    39   22   27 ar
    40   22   23 ar
    41   23   24 ar
    42   23   42 1
    43   24   25 ar
    44   24   43 1
    45   25   26 ar
    46   25   44 1
    47   26   27 ar
    48   26   45 1
    49   27   46 1
@<TRIPOS>MOLECULE
ZINC03962980
   27    29     0     0     0
SMALL
USER_CHARGES
3-[5-(2-pyridyl)tetrazol-2-yl]benzonitrile
@<TRIPOS>ATOM
      1 C1         -1.9700   10.8023    0.0843 C.ar      1 <0>        -0.0735
      2 C2         -3.3399   10.5810    0.0956 C.ar      1 <0>        -0.1537
      3 C3         -3.8170    9.2834    0.0919 C.ar      1 <0>         0.1050
      4 N1         -2.9893    8.2584    0.0727 N.ar      1 <0>        -0.4543
      5 C4         -1.6737    8.4271    0.0667 C.ar      1 <0>         0.1975
      6 C5         -1.1239    9.7070    0.0696 C.ar      1 <0>        -0.1248
      7 C6         -0.7800    7.2424    0.0504 C.2       1 <0>         0.2209
      8 N2          0.5608    7.2505    0.0384 N.2       1 <0>        -0.2537
      9 N3          0.9511    6.0212    0.0320 N.2       1 <0>        -0.0511
     10 N4         -0.0828    5.2542    0.0317 N.pl3     1 <0>        -0.0884
     11 N5         -1.1499    5.9765    0.0458 N.2       1 <0>        -0.2640
     12 C7         -0.0525    3.8523    0.0233 C.ar      1 <0>         0.1188
     13 C8         -1.2408    3.1317    0.0308 C.ar      1 <0>        -0.0587
     14 C9         -1.2169    1.7498    0.0173 C.ar      1 <0>        -0.0996
     15 C10        -0.0126    1.0758    0.0080 C.ar      1 <0>        -0.0486
     16 C11         1.1870    1.7906    0.0003 C.ar      1 <0>        -0.0052
     17 C12         1.1621    3.1859    0.0081 C.ar      1 <0>        -0.0461
     18 C13         2.4382    1.0943   -0.0159 C.1       1 <0>         0.2475
     19 N6          3.4308    0.5420   -0.0287 N.1       1 <0>        -0.3912
     20 H1         -1.5729   11.8067    0.0873 H         1 <0>         0.1461
     21 H2         -4.0268   11.4143    0.1076 H         1 <0>         0.1439
     22 H3         -4.8825    9.1075    0.1007 H         1 <0>         0.1664
     23 H4         -0.0525    9.8428    0.0609 H         1 <0>         0.1494
     24 H5         -2.1863    3.6534    0.0423 H         1 <0>         0.1562
     25 H6         -2.1438    1.1954    0.0183 H         1 <0>         0.1554
     26 H7          0.0021   -0.0041    0.0020 H         1 <0>         0.1492
     27 H8          2.0865    3.7443    0.0019 H         1 <0>         0.1566
@<TRIPOS>BOND
     1    1    6 ar
     2    1    2 ar
     3    1   20 1
     4    2    3 ar
     5    2   21 1
     6    3    4 ar
     7    3   22 1
     8    4    5 ar
     9    5    6 ar
    10    5    7 1
    11    6   23 1
    12    7   11 2
    13    7    8 1
    14    8    9 2
    15    9   10 1
    16   10   11 1
    17   10   12 1
    18   12   17 ar
    19   12   13 ar
    20   13   14 ar
    21   13   24 1
    22   14   15 ar
    23   14   25 1
    24   15   16 ar
    25   15   26 1
    26   16   17 ar
    27   16   18 1
    28   17   27 1
    29   18   19 3
@<TRIPOS>MOLECULE
ZINC03947792
   44    47     0     0     0
SMALL
USER_CHARGES
N-[4-chloro-2-[(1,3-dioxoisoindolin-2-yl)methyl]phenyl]-2-hydroxy-benzamide
@<TRIPOS>ATOM
      1 C1          4.1135    4.9676   -6.0326 C.ar      1 <0>        -0.0931
      2 C2          4.7523    3.7510   -5.8823 C.ar      1 <0>        -0.0949
      3 C3          4.6785    3.0622   -4.6817 C.ar      1 <0>        -0.0429
      4 C4          3.9581    3.5973   -3.6259 C.ar      1 <0>        -0.1418
      5 C5          3.3067    4.8378   -3.7792 C.ar      1 <0>        -0.1409
      6 C6          3.3897    5.5153   -4.9851 C.ar      1 <0>        -0.0435
      7 C7          2.6450    5.1097   -2.4857 C.2       1 <0>         0.5752
      8 O1          1.9790    6.0906   -2.2225 O.2       1 <0>        -0.4528
      9 N1          2.9034    4.0885   -1.6490 N.am      1 <0>        -0.5729
     10 C8          3.6744    3.1597   -2.2428 C.2       1 <0>         0.5783
     11 O2          4.0691    2.1323   -1.7293 O.2       1 <0>        -0.4618
     12 C9          2.4148    4.0022   -0.2706 C.3       1 <0>         0.1592
     13 C10         1.0145    3.4454   -0.2679 C.ar      1 <0>        -0.1456
     14 C11        -0.0694    4.3006   -0.2273 C.ar      1 <0>        -0.0621
     15 C12        -1.3554    3.7900   -0.2248 C.ar      1 <0>        -0.0553
     16 C13        -1.5595    2.4217   -0.2674 C.ar      1 <0>        -0.0758
     17 C14        -0.4794    1.5621   -0.3028 C.ar      1 <0>        -0.1170
     18 C15         0.8126    2.0721   -0.3058 C.ar      1 <0>         0.1779
     19 N2          1.9087    1.2035   -0.3466 N.am      1 <0>        -0.6661
     20 C16         1.8112    0.0254   -0.9937 C.2       1 <0>         0.5673
     21 O3          0.7502   -0.3147   -1.4810 O.2       1 <0>        -0.5025
     22 C17         2.9914   -0.8516   -1.1109 C.ar      1 <0>        -0.1696
     23 C18         4.2139   -0.4623   -0.5575 C.ar      1 <0>        -0.0449
     24 C19         5.3114   -1.2882   -0.6663 C.ar      1 <0>        -0.1401
     25 C20         5.2114   -2.4997   -1.3311 C.ar      1 <0>        -0.0704
     26 C21         4.0109   -2.8943   -1.8871 C.ar      1 <0>        -0.1607
     27 C22         2.8946   -2.0776   -1.7830 C.ar      1 <0>         0.1718
     28 O4          1.7146   -2.4637   -2.3296 O.3       1 <0>        -0.4789
     29 Cl1        -2.7154    4.8677   -0.1743 Cl        1 <0>        -0.0639
     30 H1          4.1790    5.4951   -6.9727 H         1 <0>         0.1443
     31 H2          5.3133    3.3345   -6.7059 H         1 <0>         0.1438
     32 H3          5.1797    2.1121   -4.5699 H         1 <0>         0.1419
     33 H4          2.8928    6.4663   -5.1081 H         1 <0>         0.1436
     34 H5          2.4114    4.9963    0.1766 H         1 <0>         0.1125
     35 H6          3.0676    3.3467    0.3059 H         1 <0>         0.1026
     36 H7          0.0870    5.3688   -0.1978 H         1 <0>         0.1431
     37 H8         -2.5643    2.0259   -0.2695 H         1 <0>         0.1403
     38 H9         -0.6391    0.4944   -0.3326 H         1 <0>         0.1573
     39 H10         2.7388    1.4493    0.0910 H         1 <0>         0.4123
     40 H11         4.2976    0.4832   -0.0423 H         1 <0>         0.1299
     41 H12         6.2549   -0.9880   -0.2349 H         1 <0>         0.1316
     42 H13         6.0778   -3.1390   -1.4151 H         1 <0>         0.1325
     43 H14         3.9410   -3.8399   -2.4041 H         1 <0>         0.1365
     44 H15         1.5932   -2.1779   -3.2454 H         1 <0>         0.3959
@<TRIPOS>BOND
     1    1    6 ar
     2    1    2 ar
     3    1   30 1
     4    2    3 ar
     5    2   31 1
     6    3    4 ar
     7    3   32 1
     8    4   10 1
     9    4    5 ar
    10    5    6 ar
    11    5    7 1
    12    6   33 1
    13    7    8 2
    14    7    9 am
    15    9   10 am
    16    9   12 1
    17   10   11 2
    18   12   13 1
    19   12   34 1
    20   12   35 1
    21   13   18 ar
    22   13   14 ar
    23   14   15 ar
    24   14   36 1
    25   15   16 ar
    26   15   29 1
    27   16   17 ar
    28   16   37 1
    29   17   18 ar
    30   17   38 1
    31   18   19 1
    32   19   20 am
    33   19   39 1
    34   20   21 2
    35   20   22 1
    36   22   27 ar
    37   22   23 ar
    38   23   24 ar
    39   23   40 1
    40   24   25 ar
    41   24   41 1
    42   25   26 ar
    43   25   42 1
    44   26   27 ar
    45   26   43 1
    46   27   28 1
    47   28   44 1
@<TRIPOS>MOLECULE
ZINC08449891
   55    59     0     0     0
SMALL
USER_CHARGES

@<TRIPOS>ATOM
      1 C1          0.6714    1.5027   -0.0676 C.3       1 <0>        -0.1250
      2 C2          0.6498   -0.0041   -0.0712 C.ar      1 <0>        -0.0493
      3 C3          0.3805   -0.6860   -1.2453 C.ar      1 <0>        -0.1277
      4 C4          0.3589   -2.0644   -1.2568 C.ar      1 <0>        -0.0761
      5 C5          0.6100   -2.7739   -0.0778 C.ar      1 <0>        -0.1707
      6 C6          0.8813   -2.0777    1.1042 C.ar      1 <0>        -0.0521
      7 C7          0.9048   -0.6989    1.0981 C.ar      1 <0>        -0.0982
      8 C8          1.2029    0.0534    2.3695 C.3       1 <0>        -0.1188
      9 C9          0.5884   -4.2454   -0.0812 C.2       1 <0>         0.4000
     10 O1          0.8066   -4.8573    0.9427 O.2       1 <0>        -0.4265
     11 C10         0.2952   -4.9917   -1.3571 C.3       1 <0>         0.0210
     12 O2          0.3310   -6.3979   -1.1054 O.3       1 <0>        -0.3291
     13 C11         0.0880   -7.2129   -2.1506 C.2       1 <0>         0.5130
     14 O3         -0.1480   -6.7424   -3.2457 O.2       1 <0>        -0.4972
     15 C12         0.1083   -8.6761   -1.9653 C.ar      1 <0>        -0.1183
     16 C13         0.3739   -9.2191   -0.7049 C.ar      1 <0>        -0.0457
     17 C14         0.3920  -10.5855   -0.5359 C.ar      1 <0>        -0.1125
     18 C15         0.1465  -11.4250   -1.6171 C.ar      1 <0>         0.1499
     19 C16        -0.1181  -10.8885   -2.8726 C.ar      1 <0>        -0.1129
     20 C17        -0.1436   -9.5231   -3.0483 C.ar      1 <0>        -0.0387
     21 N1          0.1663  -12.8116   -1.4416 N.am      1 <0>        -0.5321
     22 C18         1.1024  -13.5964   -1.9868 C.2       1 <0>         0.5366
     23 O4          2.0205  -13.2131   -2.6795 O.2       1 <0>        -0.4630
     24 C19         0.8388  -15.0350   -1.6049 C.3       1 <0>        -0.1233
     25 H1          0.7295  -15.6964   -2.4643 H         1 <0>         0.1429
     26 C20         1.9547  -15.4906   -0.6129 C.3       1 <0>        -0.0575
     27 H2          2.8622  -15.8950   -1.0612 H         1 <0>         0.1208
     28 C21         1.1350  -16.4608    0.3138 C.3       1 <0>        -0.1131
     29 C22         0.0914  -15.3522    0.7060 C.3       1 <0>        -0.0543
     30 H3         -0.6588  -15.6285    1.4469 H         1 <0>         0.1219
     31 C23        -0.4430  -14.9421   -0.7250 C.3       1 <0>        -0.1221
     32 H4         -1.2642  -15.5614   -1.0858 H         1 <0>         0.1458
     33 C24        -0.7462  -13.4612   -0.7100 C.2       1 <0>         0.5373
     34 O5         -1.6738  -12.9426   -0.1269 O.2       1 <0>        -0.4622
     35 C25         1.0475  -14.2190    1.0978 C.2       1 <0>        -0.1749
     36 C26         2.1368  -14.2902    0.3238 C.2       1 <0>        -0.1724
     37 H5          1.6789    1.8522   -0.2936 H         1 <0>         0.0778
     38 H6         -0.0209    1.8778   -0.8214 H         1 <0>         0.0718
     39 H7          0.3719    1.8681    0.9147 H         1 <0>         0.0739
     40 H8          0.1864   -0.1368   -2.1548 H         1 <0>         0.1323
     41 H9          0.1483   -2.5951   -2.1735 H         1 <0>         0.1326
     42 H10         1.0758   -2.6185    2.0186 H         1 <0>         0.1361
     43 H11         0.2726    0.2486    2.9028 H         1 <0>         0.0742
     44 H12         1.8638   -0.5433    2.9982 H         1 <0>         0.0700
     45 H13         1.6880    0.9989    2.1270 H         1 <0>         0.0724
     46 H14        -0.6933   -4.7130   -1.7221 H         1 <0>         0.1076
     47 H15         1.0443   -4.7377   -2.1070 H         1 <0>         0.1075
     48 H16         0.5649   -8.5678    0.1351 H         1 <0>         0.1512
     49 H17         0.5975  -11.0058    0.4375 H         1 <0>         0.1362
     50 H18        -0.3082  -11.5437   -3.7099 H         1 <0>         0.1386
     51 H19        -0.3540   -9.1071   -4.0225 H         1 <0>         0.1495
     52 H20         0.6821  -17.2834   -0.2397 H         1 <0>         0.0891
     53 H21         1.7140  -16.8102    1.1686 H         1 <0>         0.0907
     54 H22         0.8709  -13.4807    1.8660 H         1 <0>         0.1346
     55 H23         2.9958  -13.6363    0.3526 H         1 <0>         0.1387
@<TRIPOS>BOND
     1    1    2 1
     2    1   37 1
     3    1   38 1
     4    1   39 1
     5    2    7 ar
     6    2    3 ar
     7    3    4 ar
     8    3   40 1
     9    4    5 ar
    10    4   41 1
    11    5    6 ar
    12    5    9 1
    13    6    7 ar
    14    6   42 1
    15    7    8 1
    16    8   43 1
    17    8   44 1
    18    8   45 1
    19    9   10 2
    20    9   11 1
    21   11   12 1
    22   11   46 1
    23   11   47 1
    24   12   13 1
    25   13   14 2
    26   13   15 1
    27   15   20 ar
    28   15   16 ar
    29   16   17 ar
    30   16   48 1
    31   17   18 ar
    32   17   49 1
    33   18   19 ar
    34   18   21 1
    35   19   20 ar
    36   19   50 1
    37   20   51 1
    38   21   33 am
    39   21   22 am
    40   22   23 2
    41   22   24 1
    42   24   25 1
    43   24   31 1
    44   24   26 1
    45   26   27 1
    46   26   36 1
    47   26   28 1
    48   28   29 1
    49   28   52 1
    50   28   53 1
    51   29   30 1
    52   29   31 1
    53   29   35 1
    54   31   32 1
    55   31   33 1
    56   33   34 2
    57   35   36 2
    58   35   54 1
    59   36   55 1
@<TRIPOS>MOLECULE
ZINC17857596
   55    59     0     0     0
SMALL
USER_CHARGES
[2-(3,4-dimethylphenyl)-2-oxo-ethyl] 4-(dioxoBLAHyl)benzoate
@<TRIPOS>ATOM
      1 C1          2.4895    1.0408   -0.0161 C.3       1 <0>        -0.1264
      2 C2          1.1778    1.7824    0.0004 C.ar      1 <0>        -0.0497
      3 C3         -0.0126    1.0758    0.0080 C.ar      1 <0>        -0.1273
      4 C4         -1.2168    1.7470    0.0173 C.ar      1 <0>        -0.0766
      5 C5         -1.2335    3.1456    0.0307 C.ar      1 <0>        -0.1708
      6 C6         -0.0268    3.8521    0.0225 C.ar      1 <0>        -0.0515
      7 C7          1.1695    3.1662    0.0074 C.ar      1 <0>        -0.0982
      8 C8          2.4712    3.9255   -0.0009 C.3       1 <0>        -0.1202
      9 C9         -2.5145    3.8698    0.0464 C.2       1 <0>         0.3977
     10 O1         -2.5255    5.0823    0.0522 O.2       1 <0>        -0.4248
     11 C10        -3.8127    3.1045    0.0552 C.3       1 <0>         0.0364
     12 O2         -4.9248    4.0380    0.0702 O.3       1 <0>        -0.3351
     13 C11        -6.1651    3.5118    0.0795 C.2       1 <0>         0.5141
     14 O3         -6.3135    2.3059    0.0753 O.2       1 <0>        -0.5027
     15 C12        -7.3430    4.3997    0.0950 C.ar      1 <0>        -0.1436
     16 C13        -7.1743    5.7872    0.1057 C.ar      1 <0>        -0.0302
     17 C14        -8.2762    6.6128    0.1153 C.ar      1 <0>        -0.1595
     18 C15        -9.5557    6.0677    0.1249 C.ar      1 <0>         0.1708
     19 C16        -9.7275    4.6877    0.1196 C.ar      1 <0>        -0.1588
     20 C17        -8.6305    3.8556    0.1047 C.ar      1 <0>        -0.0238
     21 N1        -10.6718    6.9091    0.1405 N.am      1 <0>        -0.5586
     22 C18       -11.9703    6.4571    0.1453 C.2       1 <0>         0.5479
     23 O4        -12.3658    5.3412    0.4057 O.2       1 <0>        -0.4398
     24 C19       -12.7871    7.6477   -0.2401 C.3       1 <0>        -0.1304
     25 H1        -12.7657    7.8319   -1.3142 H         1 <0>         0.1384
     26 C20       -14.1725    7.9541    0.3331 C.3       1 <0>        -0.0549
     27 H2        -14.8635    7.1168    0.4298 H         1 <0>         0.1260
     28 C21       -13.8945    8.8558    1.6254 C.3       1 <0>        -0.1241
     29 C22       -12.8500    9.7842    0.8438 C.3       1 <0>        -0.0265
     30 H3        -12.4379   10.6395    1.3794 H         1 <0>         0.1214
     31 C23       -11.9101    8.6774    0.5812 C.3       1 <0>        -0.1655
     32 H4        -11.9347    8.1804    1.5510 H         1 <0>         0.1027
     33 C24       -10.5941    8.2916    0.1468 C.2       1 <0>         0.5791
     34 O5         -9.6531    8.9993   -0.1415 O.2       1 <0>        -0.4355
     35 C25       -13.7387   10.1180   -0.3520 C.2       1 <0>        -0.1569
     36 C26       -14.5516    9.1144   -0.6324 C.2       1 <0>        -0.1598
     37 H5          2.7960    0.8675   -1.0477 H         1 <0>         0.0780
     38 H6          3.2487    1.6339    0.4937 H         1 <0>         0.0757
     39 H7          2.3727    0.0845    0.4937 H         1 <0>         0.0711
     40 H8          0.0021   -0.0041    0.0020 H         1 <0>         0.1323
     41 H9         -2.1447    1.1944    0.0188 H         1 <0>         0.1323
     42 H10        -0.0317    4.9321    0.0277 H         1 <0>         0.1364
     43 H11         2.7754    4.1138   -1.0305 H         1 <0>         0.0745
     44 H12         2.3414    4.8748    0.5189 H         1 <0>         0.0695
     45 H13         3.2382    3.3373    0.5028 H         1 <0>         0.0741
     46 H14        -3.8683    2.5330   -0.7635 H         1 <0>         0.0955
     47 H15        -3.8563    2.4732    0.9426 H         1 <0>         0.1087
     48 H16        -6.1810    6.2112    0.1028 H         1 <0>         0.1501
     49 H17        -8.1467    7.6850    0.1198 H         1 <0>         0.1557
     50 H18       -10.7226    4.2680    0.1274 H         1 <0>         0.1581
     51 H19        -8.7647    2.7840    0.1002 H         1 <0>         0.1477
     52 H20       -13.4315    8.3056    2.4446 H         1 <0>         0.0808
     53 H21       -14.7798    9.4039    1.9476 H         1 <0>         0.0969
     54 H22       -13.7070   11.0501   -0.8966 H         1 <0>         0.1339
     55 H23       -15.3265    9.1016   -1.3846 H         1 <0>         0.1452
@<TRIPOS>BOND
     1    1    2 1
     2    1   37 1
     3    1   38 1
     4    1   39 1
     5    2    7 ar
     6    2    3 ar
     7    3    4 ar
     8    3   40 1
     9    4    5 ar
    10    4   41 1
    11    5    6 ar
    12    5    9 1
    13    6    7 ar
    14    6   42 1
    15    7    8 1
    16    8   43 1
    17    8   44 1
    18    8   45 1
    19    9   10 2
    20    9   11 1
    21   11   12 1
    22   11   46 1
    23   11   47 1
    24   12   13 1
    25   13   14 2
    26   13   15 1
    27   15   20 ar
    28   15   16 ar
    29   16   17 ar
    30   16   48 1
    31   17   18 ar
    32   17   49 1
    33   18   19 ar
    34   18   21 1
    35   19   20 ar
    36   19   50 1
    37   20   51 1
    38   21   33 am
    39   21   22 am
    40   22   23 2
    41   22   24 1
    42   24   25 1
    43   24   31 1
    44   24   26 1
    45   26   27 1
    46   26   36 1
    47   26   28 1
    48   28   29 1
    49   28   52 1
    50   28   53 1
    51   29   30 1
    52   29   31 1
    53   29   35 1
    54   31   32 1
    55   31   33 1
    56   33   34 2
    57   35   36 2
    58   35   54 1
    59   36   55 1
@<TRIPOS>MOLECULE
ZINC13896758
   54    57     0     0     0
SMALL
USER_CHARGES

@<TRIPOS>ATOM
      1 C1         -0.0184    1.5028    0.0103 C.3       1 <0>        -0.1249
      2 C2          0.0021   -0.0041    0.0020 C.ar      1 <0>        -0.0497
      3 C3          0.0056   -0.6859   -1.2026 C.ar      1 <0>        -0.1278
      4 C4          0.0243   -2.0644   -1.2186 C.ar      1 <0>        -0.0761
      5 C5          0.0396   -2.7739   -0.0133 C.ar      1 <0>        -0.1705
      6 C6          0.0359   -2.0777    1.1995 C.ar      1 <0>        -0.0523
      7 C7          0.0229   -0.6987    1.1987 C.ar      1 <0>        -0.0982
      8 C8          0.0250    0.0537    2.5044 C.3       1 <0>        -0.1187
      9 C9          0.0591   -4.2454   -0.0214 C.2       1 <0>         0.3996
     10 O1          0.0724   -4.8573    1.0254 O.2       1 <0>        -0.4262
     11 C10         0.0626   -4.9917   -1.3306 C.3       1 <0>         0.0213
     12 O2          0.0825   -6.3979   -1.0772 O.3       1 <0>        -0.3300
     13 C11         0.0880   -7.2128   -2.1503 C.2       1 <0>         0.5135
     14 O3          0.0762   -6.7424   -3.2704 O.2       1 <0>        -0.5009
     15 C12         0.1083   -8.6761   -1.9651 C.ar      1 <0>        -0.1403
     16 C13         0.1161   -9.2193   -0.6772 C.ar      1 <0>        -0.0341
     17 C14         0.1351  -10.5857   -0.5083 C.ar      1 <0>        -0.1575
     18 C15         0.1465  -11.4250   -1.6171 C.ar      1 <0>         0.1598
     19 C16         0.1389  -10.8883   -2.9001 C.ar      1 <0>        -0.1566
     20 C17         0.1141   -9.5231   -3.0770 C.ar      1 <0>        -0.0275
     21 N1          0.1663  -12.8116   -1.4416 N.am      1 <0>        -0.5369
     22 C18         0.1694  -13.4079   -0.2210 C.2       1 <0>         0.5423
     23 O4          0.3653  -12.8736    0.8493 O.2       1 <0>        -0.4445
     24 C19        -0.1187  -14.8586   -0.4628 C.3       1 <0>        -0.1289
     25 H1         -1.1944  -15.0306   -0.4988 H         1 <0>         0.1327
     26 C20         0.5476  -15.8812    0.4333 C.3       1 <0>        -0.0690
     27 C21         0.3751  -17.2297   -0.2338 C.2       1 <0>        -0.1539
     28 C22         0.0774  -17.3947   -1.4871 C.2       1 <0>        -0.1532
     29 C23        -0.1165  -16.2640   -2.4757 C.3       1 <0>        -0.0701
     30 C24         0.5092  -15.0296   -1.8805 C.3       1 <0>        -0.1293
     31 H2          1.5875  -15.1710   -1.8058 H         1 <0>         0.1331
     32 C25         0.1784  -13.6931   -2.4751 C.2       1 <0>         0.5441
     33 O5         -0.0334  -13.4477   -3.6431 O.2       1 <0>        -0.4450
     34 H3          1.0042    1.8801    0.0026 H         1 <0>         0.0776
     35 H4         -0.5455    1.8639   -0.8728 H         1 <0>         0.0717
     36 H5         -0.5286    1.8543    0.9071 H         1 <0>         0.0738
     37 H6         -0.0066   -0.1367   -2.1325 H         1 <0>         0.1322
     38 H7          0.0267   -2.5950   -2.1593 H         1 <0>         0.1326
     39 H8          0.0474   -2.6186    2.1342 H         1 <0>         0.1361
     40 H9         -1.0020    0.2211    2.8290 H         1 <0>         0.0741
     41 H10         0.5540   -0.5290    3.2586 H         1 <0>         0.0700
     42 H11         0.5246    1.0131    2.3701 H         1 <0>         0.0723
     43 H12        -0.8337   -4.7371   -1.8963 H         1 <0>         0.1068
     44 H13         0.9461   -4.7135   -1.9051 H         1 <0>         0.1068
     45 H14         0.1075   -8.5681    0.1844 H         1 <0>         0.1498
     46 H15         0.1414  -11.0061    0.4865 H         1 <0>         0.1625
     47 H16         0.1478  -11.5433   -3.7587 H         1 <0>         0.1632
     48 H17         0.1032   -9.1071   -4.0736 H         1 <0>         0.1476
     49 H18         1.6078  -15.6504    0.5375 H         1 <0>         0.0887
     50 H19         0.0688  -15.8864    1.4125 H         1 <0>         0.0945
     51 H20         0.5089  -18.1131    0.3730 H         1 <0>         0.1168
     52 H21        -0.0393  -18.4057   -1.8486 H         1 <0>         0.1171
     53 H22         0.3655  -16.5102   -3.4219 H         1 <0>         0.0945
     54 H23        -1.1802  -16.0862   -2.6338 H         1 <0>         0.0870
@<TRIPOS>BOND
     1    1    2 1
     2    1   34 1
     3    1   35 1
     4    1   36 1
     5    2    7 ar
     6    2    3 ar
     7    3    4 ar
     8    3   37 1
     9    4    5 ar
    10    4   38 1
    11    5    6 ar
    12    5    9 1
    13    6    7 ar
    14    6   39 1
    15    7    8 1
    16    8   40 1
    17    8   41 1
    18    8   42 1
    19    9   10 2
    20    9   11 1
    21   11   12 1
    22   11   43 1
    23   11   44 1
    24   12   13 1
    25   13   14 2
    26   13   15 1
    27   15   20 ar
    28   15   16 ar
    29   16   17 ar
    30   16   45 1
    31   17   18 ar
    32   17   46 1
    33   18   19 ar
    34   18   21 1
    35   19   20 ar
    36   19   47 1
    37   20   48 1
    38   21   32 am
    39   21   22 am
    40   22   23 2
    41   22   24 1
    42   24   25 1
    43   24   30 1
    44   24   26 1
    45   26   27 1
    46   26   49 1
    47   26   50 1
    48   27   28 2
    49   27   51 1
    50   28   29 1
    51   28   52 1
    52   29   30 1
    53   29   53 1
    54   29   54 1
    55   30   31 1
    56   30   32 1
    57   32   33 2
@<TRIPOS>MOLECULE
ZINC00138486
   28    29     0     0     0
SMALL
USER_CHARGES
3-bromo-N-(6-methyl-2-pyridyl)-benzamide
@<TRIPOS>ATOM
      1 C1         -2.5817    4.0278    0.0654 C.3       1 <0>        -0.1054
      2 C2         -1.2375    3.3468    0.0419 C.ar      1 <0>         0.1611
      3 C3         -0.0866    4.1103    0.0312 C.ar      1 <0>        -0.2028
      4 C4          1.1485    3.4775    0.0095 C.ar      1 <0>        -0.0431
      5 C5          1.1816    2.0939    0.0052 C.ar      1 <0>        -0.2136
      6 C6         -0.0166    1.3890    0.0116 C.ar      1 <0>         0.3636
      7 N1         -1.1752    2.0293    0.0322 N.ar      1 <0>        -0.4780
      8 N2          0.0021   -0.0041    0.0020 N.am      1 <0>        -0.6588
      9 C7         -1.1504   -0.6943    0.1110 C.2       1 <0>         0.5520
     10 O1         -2.2131   -0.1044    0.1245 O.2       1 <0>        -0.4588
     11 C8         -1.1221   -2.1684    0.2142 C.ar      1 <0>        -0.1292
     12 C9         -2.3142   -2.8864    0.3273 C.ar      1 <0>        -0.0421
     13 C10        -2.2812   -4.2620    0.4227 C.ar      1 <0>        -0.1165
     14 C11        -1.0703   -4.9312    0.4062 C.ar      1 <0>        -0.0631
     15 C12         0.1156   -4.2260    0.2939 C.ar      1 <0>        -0.0992
     16 C13         0.0961   -2.8491    0.1932 C.ar      1 <0>        -0.0607
     17 Br1         1.7649   -5.1507    0.2711 Br        1 <0>        -0.0377
     18 H1         -2.8913    4.1851    1.0986 H         1 <0>         0.0802
     19 H2         -2.5108    4.9893   -0.4431 H         1 <0>         0.0768
     20 H3         -3.3152    3.4014   -0.4423 H         1 <0>         0.0799
     21 H4         -0.1471    5.1886    0.0393 H         1 <0>         0.1369
     22 H5          2.0632    4.0517    0.0008 H         1 <0>         0.1401
     23 H6          2.1253    1.5690   -0.0068 H         1 <0>         0.1364
     24 H7          0.8446   -0.4772   -0.0831 H         1 <0>         0.4165
     25 H8         -3.2603   -2.3656    0.3396 H         1 <0>         0.1462
     26 H9         -3.2029   -4.8182    0.5102 H         1 <0>         0.1438
     27 H10        -1.0502   -6.0084    0.4809 H         1 <0>         0.1409
     28 H11         1.0216   -2.2999    0.1019 H         1 <0>         0.1347
@<TRIPOS>BOND
     1    1    2 1
     2    1   18 1
     3    1   19 1
     4    1   20 1
     5    2    7 ar
     6    2    3 ar
     7    3    4 ar
     8    3   21 1
     9    4    5 ar
    10    4   22 1
    11    5    6 ar
    12    5   23 1
    13    6    7 ar
    14    6    8 1
    15    8    9 am
    16    8   24 1
    17    9   10 2
    18    9   11 1
    19   11   16 ar
    20   11   12 ar
    21   12   13 ar
    22   12   25 1
    23   13   14 ar
    24   13   26 1
    25   14   15 ar
    26   14   27 1
    27   15   16 ar
    28   15   17 1
    29   16   28 1
@<TRIPOS>MOLECULE
ZINC13704383
   43    46     0     0     0
SMALL
USER_CHARGES
N-[2-(2-chlorophenyl)-5-phenyl-pyrazol-3-yl]benzamide
@<TRIPOS>ATOM
      1 C1          9.3657   -6.1341   -0.8628 C.ar      1 <0>        -0.1092
      2 C2         10.1670   -5.0077   -0.8127 C.ar      1 <0>        -0.1234
      3 C3          9.5969   -3.7571   -0.6865 C.ar      1 <0>        -0.0888
      4 C4          8.2114   -3.6305   -0.6096 C.ar      1 <0>        -0.0192
      5 C5          7.4092   -4.7690   -0.6549 C.ar      1 <0>        -0.0896
      6 C6          7.9897   -6.0141   -0.7874 C.ar      1 <0>        -0.1215
      7 C7          7.5927   -2.2886   -0.4740 C.2       1 <0>         0.1346
      8 C8          6.2136   -2.0206   -0.3863 C.2       1 <0>        -0.2485
      9 C9          6.0580   -0.6752   -0.2722 C.2       1 <0>         0.3129
     10 N1          7.2981   -0.1124   -0.2926 N.pl3     1 <0>        -0.3434
     11 N2          8.2389   -1.1429   -0.4144 N.2       1 <0>        -0.2520
     12 C10         7.5828    1.2567   -0.2045 C.ar      1 <0>         0.1556
     13 C11         6.9174    2.1598   -1.0228 C.ar      1 <0>        -0.1269
     14 C12         7.2002    3.5087   -0.9337 C.ar      1 <0>        -0.0934
     15 C13         8.1450    3.9610   -0.0307 C.ar      1 <0>        -0.1018
     16 C14         8.8099    3.0651    0.7859 C.ar      1 <0>        -0.0933
     17 C15         8.5275    1.7142    0.7059 C.ar      1 <0>        -0.0280
     18 Cl1         9.3569    0.5903    1.7368 Cl        1 <0>        -0.0352
     19 N3          4.8474    0.0061   -0.1606 N.am      1 <0>        -0.6474
     20 C16         3.6945   -0.6826   -0.0471 C.2       1 <0>         0.5694
     21 O1          3.7177   -1.8936    0.0580 O.2       1 <0>        -0.4955
     22 C17         2.4020    0.0343   -0.0503 C.ar      1 <0>        -0.1370
     23 C18         1.2034   -0.6812   -0.0393 C.ar      1 <0>        -0.0523
     24 C19         0.0005   -0.0058   -0.0419 C.ar      1 <0>        -0.1244
     25 C20        -0.0197    1.3776   -0.0554 C.ar      1 <0>        -0.0863
     26 C21         1.1647    2.0929   -0.0663 C.ar      1 <0>        -0.1243
     27 C22         2.3745    1.4299   -0.0639 C.ar      1 <0>        -0.0868
     28 H1          9.8160   -7.1107   -0.9616 H         1 <0>         0.1242
     29 H2         11.2408   -5.1071   -0.8720 H         1 <0>         0.1256
     30 H3         10.2235   -2.8783   -0.6478 H         1 <0>         0.1285
     31 H4          6.3351   -4.6768   -0.5912 H         1 <0>         0.1298
     32 H5          7.3687   -6.8968   -0.8274 H         1 <0>         0.1274
     33 H6          5.4205   -2.7534   -0.4064 H         1 <0>         0.1798
     34 H7          6.1796    1.8077   -1.7285 H         1 <0>         0.1362
     35 H8          6.6824    4.2113   -1.5698 H         1 <0>         0.1427
     36 H9          8.3643    5.0164    0.0364 H         1 <0>         0.1426
     37 H10         9.5472    3.4214    1.4900 H         1 <0>         0.1453
     38 H11         4.8346    0.9760   -0.1647 H         1 <0>         0.4111
     39 H12         1.2178   -1.7610   -0.0291 H         1 <0>         0.1405
     40 H13        -0.9275   -0.5581   -0.0337 H         1 <0>         0.1349
     41 H14        -0.9641    1.9014   -0.0619 H         1 <0>         0.1316
     42 H15         1.1420    3.1726   -0.0771 H         1 <0>         0.1328
     43 H16         3.2982    1.9894   -0.0728 H         1 <0>         0.1225
@<TRIPOS>BOND
     1    1    6 ar
     2    1    2 ar
     3    1   28 1
     4    2    3 ar
     5    2   29 1
     6    3    4 ar
     7    3   30 1
     8    4    5 ar
     9    4    7 1
    10    5    6 ar
    11    5   31 1
    12    6   32 1
    13    7   11 2
    14    7    8 1
    15    8    9 2
    16    8   33 1
    17    9   10 1
    18    9   19 1
    19   10   11 1
    20   10   12 1
    21   12   17 ar
    22   12   13 ar
    23   13   14 ar
    24   13   34 1
    25   14   15 ar
    26   14   35 1
    27   15   16 ar
    28   15   36 1
    29   16   17 ar
    30   16   37 1
    31   17   18 1
    32   19   20 am
    33   19   38 1
    34   20   21 2
    35   20   22 1
    36   22   27 ar
    37   22   23 ar
    38   23   24 ar
    39   23   39 1
    40   24   25 ar
    41   24   40 1
    42   25   26 ar
    43   25   41 1
    44   26   27 ar
    45   26   42 1
    46   27   43 1
@<TRIPOS>MOLECULE
ZINC00361715
   28    29     0     0     0
SMALL
USER_CHARGES
3-chloro-N-(6-methyl-2-pyridyl)benzamide
@<TRIPOS>ATOM
      1 C1         -2.5817    4.0278    0.0659 C.3       1 <0>        -0.1054
      2 C2         -1.2375    3.3468    0.0419 C.ar      1 <0>         0.1611
      3 C3         -0.0866    4.1103    0.0308 C.ar      1 <0>        -0.2029
      4 C4          1.1485    3.4775    0.0091 C.ar      1 <0>        -0.0431
      5 C5          1.1816    2.0939    0.0052 C.ar      1 <0>        -0.2137
      6 C6         -0.0166    1.3890    0.0116 C.ar      1 <0>         0.3637
      7 N1         -1.1752    2.0293    0.0322 N.ar      1 <0>        -0.4781
      8 N2          0.0021   -0.0041    0.0020 N.am      1 <0>        -0.6588
      9 C7         -1.1504   -0.6943    0.1110 C.2       1 <0>         0.5520
     10 O1         -2.2131   -0.1044    0.1245 O.2       1 <0>        -0.4585
     11 C8         -1.1221   -2.1685    0.2142 C.ar      1 <0>        -0.1230
     12 C9         -2.3142   -2.8863    0.3273 C.ar      1 <0>        -0.0527
     13 C10        -2.2814   -4.2620    0.4233 C.ar      1 <0>        -0.1102
     14 C11        -1.0706   -4.9313    0.4073 C.ar      1 <0>        -0.0824
     15 C12         0.1156   -4.2261    0.2954 C.ar      1 <0>        -0.0423
     16 C13         0.0961   -2.8491    0.1933 C.ar      1 <0>        -0.0808
     17 Cl1         1.6297   -5.0751    0.2757 Cl        1 <0>        -0.0585
     18 H1         -2.8909    4.1851    1.0992 H         1 <0>         0.0802
     19 H2         -2.5110    4.9893   -0.4426 H         1 <0>         0.0768
     20 H3         -3.3154    3.4014   -0.4415 H         1 <0>         0.0799
     21 H4         -0.1472    5.1886    0.0385 H         1 <0>         0.1369
     22 H5          2.0631    4.0517    0.0000 H         1 <0>         0.1400
     23 H6          2.1253    1.5690   -0.0072 H         1 <0>         0.1364
     24 H7          0.8446   -0.4772   -0.0831 H         1 <0>         0.4167
     25 H8         -3.2602   -2.3656    0.3392 H         1 <0>         0.1458
     26 H9         -3.2032   -4.8179    0.5108 H         1 <0>         0.1440
     27 H10        -1.0507   -6.0086    0.4820 H         1 <0>         0.1415
     28 H11         1.0215   -2.2999    0.1012 H         1 <0>         0.1355
@<TRIPOS>BOND
     1    1    2 1
     2    1   18 1
     3    1   19 1
     4    1   20 1
     5    2    7 ar
     6    2    3 ar
     7    3    4 ar
     8    3   21 1
     9    4    5 ar
    10    4   22 1
    11    5    6 ar
    12    5   23 1
    13    6    7 ar
    14    6    8 1
    15    8    9 am
    16    8   24 1
    17    9   10 2
    18    9   11 1
    19   11   16 ar
    20   11   12 ar
    21   12   13 ar
    22   12   25 1
    23   13   14 ar
    24   13   26 1
    25   14   15 ar
    26   14   27 1
    27   15   16 ar
    28   15   17 1
    29   16   28 1
