@<TRIPOS>MOLECULE
ZINC00885936
   44    46     0     0     0
SMALL
USER_CHARGES
N-[3-(3-chlorobenzoyl)aminophenyl]-2-methoxy-benzamide
@<TRIPOS>ATOM
      1 C1         -1.5210    8.3104    5.2782 C.3       1 <0>         0.0199
      2 O1         -1.8925    6.9435    5.0894 O.3       1 <0>        -0.2818
      3 C2         -1.8576    6.4654    3.8204 C.ar      1 <0>         0.1896
      4 C3         -1.4741    7.2921    2.7748 C.ar      1 <0>        -0.2199
      5 C4         -1.4391    6.8041    1.4838 C.ar      1 <0>        -0.0467
      6 C5         -1.7857    5.4884    1.2221 C.ar      1 <0>        -0.1659
      7 C6         -2.1687    4.6530    2.2487 C.ar      1 <0>        -0.0466
      8 C7         -2.2034    5.1322    3.5607 C.ar      1 <0>        -0.1788
      9 C8         -2.6066    4.2417    4.6653 C.2       1 <0>         0.5627
     10 O2         -2.6396    4.6636    5.8052 O.2       1 <0>        -0.4984
     11 N1         -2.9384    2.9604    4.4111 N.am      1 <0>        -0.6729
     12 C9         -3.2267    2.0900    5.4671 C.ar      1 <0>         0.1660
     13 C10        -2.8594    0.7522    5.3859 C.ar      1 <0>        -0.1568
     14 C11        -3.1388   -0.1068    6.4310 C.ar      1 <0>        -0.0803
     15 C12        -3.7941    0.3581    7.5552 C.ar      1 <0>        -0.1333
     16 C13        -4.1690    1.6931    7.6402 C.ar      1 <0>         0.1627
     17 C14        -3.8848    2.5600    6.5944 C.ar      1 <0>        -0.1441
     18 N2         -4.8318    2.1629    8.7785 N.am      1 <0>        -0.6667
     19 C15        -5.6808    1.3559    9.4452 C.2       1 <0>         0.5630
     20 O3         -5.9418    0.2527    9.0062 O.2       1 <0>        -0.5091
     21 C16        -6.2946    1.8122   10.7101 C.ar      1 <0>        -0.1247
     22 C17        -7.1744    0.9787   11.4030 C.ar      1 <0>        -0.0520
     23 C18        -7.7441    1.4100   12.5829 C.ar      1 <0>        -0.1117
     24 C19        -7.4457    2.6660   13.0806 C.ar      1 <0>        -0.0812
     25 C20        -6.5741    3.4981   12.3988 C.ar      1 <0>        -0.0427
     26 C21        -5.9926    3.0759   11.2195 C.ar      1 <0>        -0.0780
     27 Cl1        -6.2059    5.0723   13.0314 Cl        1 <0>        -0.0579
     28 H1         -1.5923    8.5635    6.3360 H         1 <0>         0.1047
     29 H2         -2.1910    8.9514    4.7052 H         1 <0>         0.0578
     30 H3         -0.4964    8.4588    4.9373 H         1 <0>         0.0579
     31 H4         -1.2021    8.3187    2.9708 H         1 <0>         0.1373
     32 H5         -1.1394    7.4517    0.6731 H         1 <0>         0.1326
     33 H6         -1.7552    5.1159    0.2088 H         1 <0>         0.1333
     34 H7         -2.4373    3.6280    2.0401 H         1 <0>         0.1326
     35 H8         -2.9771    2.6419    3.4957 H         1 <0>         0.4100
     36 H9         -2.3511    0.3848    4.5068 H         1 <0>         0.1279
     37 H10        -2.8483   -1.1451    6.3674 H         1 <0>         0.1322
     38 H11        -4.0146   -0.3170    8.3688 H         1 <0>         0.1359
     39 H12        -4.1749    3.5984    6.6582 H         1 <0>         0.1432
     40 H13        -4.6805    3.0696    9.0882 H         1 <0>         0.4122
     41 H14        -7.4082   -0.0022   11.0162 H         1 <0>         0.1458
     42 H15        -8.4246    0.7656   13.1197 H         1 <0>         0.1438
     43 H16        -7.8943    2.9986   14.0050 H         1 <0>         0.1415
     44 H17        -5.3093    3.7237   10.6906 H         1 <0>         0.1372
@<TRIPOS>BOND
     1    1    2 1
     2    1   28 1
     3    1   29 1
     4    1   30 1
     5    2    3 1
     6    3    8 ar
     7    3    4 ar
     8    4    5 ar
     9    4   31 1
    10    5    6 ar
    11    5   32 1
    12    6    7 ar
    13    6   33 1
    14    7    8 ar
    15    7   34 1
    16    8    9 1
    17    9   10 2
    18    9   11 am
    19   11   12 1
    20   11   35 1
    21   12   17 ar
    22   12   13 ar
    23   13   14 ar
    24   13   36 1
    25   14   15 ar
    26   14   37 1
    27   15   16 ar
    28   15   38 1
    29   16   17 ar
    30   16   18 1
    31   17   39 1
    32   18   19 am
    33   18   40 1
    34   19   20 2
    35   19   21 1
    36   21   26 ar
    37   21   22 ar
    38   22   23 ar
    39   22   41 1
    40   23   24 ar
    41   23   42 1
    42   24   25 ar
    43   24   43 1
    44   25   26 ar
    45   25   27 1
    46   26   44 1
@<TRIPOS>MOLECULE
ZINC64559527
   45    47     0     0     0
SMALL
USER_CHARGES

@<TRIPOS>ATOM
      1 C1         -0.0052    1.3900   -0.0066 C.ar      1 <0>        -0.1113
      2 C2          1.1799    2.1016    0.0022 C.ar      1 <0>        -0.1234
      3 C3          2.3887    1.4312   -0.0128 C.ar      1 <0>        -0.0965
      4 C4          2.4124    0.0492   -0.0363 C.ar      1 <0>        -0.0945
      5 C5          1.2273   -0.6623   -0.0443 C.ar      1 <0>        -0.0965
      6 C6          0.0185    0.0081   -0.0306 C.ar      1 <0>        -0.1233
      7 C7          3.7302   -0.6816   -0.0537 C.3       1 <0>         0.1026
      8 O1          4.1519   -0.9354    1.2878 O.3       1 <0>        -0.3561
      9 C8          5.3981   -1.6281    1.3842 C.3       1 <0>         0.0444
     10 C9          5.7435   -1.8412    2.8355 C.2       1 <0>         0.5175
     11 O2          4.9961   -1.4394    3.7020 O.2       1 <0>        -0.5107
     12 N1          6.8829   -2.4782    3.1705 N.am      1 <0>        -0.6139
     13 C10         7.8010   -2.9651    2.1313 C.3       1 <0>         0.0893
     14 C11         9.1927   -2.3754    2.3914 C.3       1 <0>         0.1044
     15 N2          9.5396   -2.5952    3.8025 N.pl3     1 <0>        -0.6271
     16 C12         8.6215   -2.1083    4.8417 C.3       1 <0>         0.1065
     17 C13         7.2326   -2.6931    4.5817 C.3       1 <0>         0.0978
     18 C14        10.7210   -3.2557    4.1499 C.ar      1 <0>         0.2239
     19 C15        11.5232   -3.8125    3.1621 C.ar      1 <0>        -0.1888
     20 C16        12.6905   -4.4643    3.5082 C.ar      1 <0>        -0.0587
     21 C17        13.0611   -4.5634    4.8378 C.ar      1 <0>        -0.0925
     22 C18        12.2638   -4.0096    5.8240 C.ar      1 <0>        -0.0582
     23 C19        11.0983   -3.3517    5.4832 C.ar      1 <0>        -0.1874
     24 Cl1        14.5285   -5.3845    5.2694 Cl        1 <0>        -0.0779
     25 H1         -0.9497    1.9137    0.0097 H         1 <0>         0.1240
     26 H2          1.1613    3.1813    0.0206 H         1 <0>         0.1248
     27 H3          3.3146    1.9871   -0.0066 H         1 <0>         0.1228
     28 H4          1.2458   -1.7420   -0.0630 H         1 <0>         0.1229
     29 H5         -0.9074   -0.5479   -0.0372 H         1 <0>         0.1248
     30 H6          3.6143   -1.6272   -0.5832 H         1 <0>         0.0618
     31 H7          4.4777   -0.0709   -0.5602 H         1 <0>         0.0617
     32 H8          5.3167   -2.5934    0.8845 H         1 <0>         0.0816
     33 H9          6.1801   -1.0370    0.9076 H         1 <0>         0.0812
     34 H10         7.8519   -4.0533    2.1688 H         1 <0>         0.0802
     35 H11         7.4460   -2.6466    1.1512 H         1 <0>         0.0949
     36 H12         9.9248   -2.8703    1.7533 H         1 <0>         0.0994
     37 H13         9.1824   -1.3062    2.1795 H         1 <0>         0.0714
     38 H14         8.9765   -2.4269    5.8219 H         1 <0>         0.0987
     39 H15         8.5706   -1.0202    4.8043 H         1 <0>         0.0706
     40 H16         6.5023   -2.1950    5.2195 H         1 <0>         0.1059
     41 H17         7.2421   -3.7615    4.7977 H         1 <0>         0.0749
     42 H18        11.2341   -3.7361    2.1243 H         1 <0>         0.1317
     43 H19        13.3146   -4.8975    2.7405 H         1 <0>         0.1325
     44 H20        12.5554   -4.0884    6.8609 H         1 <0>         0.1327
     45 H21        10.4788   -2.9158    6.2530 H         1 <0>         0.1321
@<TRIPOS>BOND
     1    1    6 ar
     2    1    2 ar
     3    1   25 1
     4    2    3 ar
     5    2   26 1
     6    3    4 ar
     7    3   27 1
     8    4    5 ar
     9    4    7 1
    10    5    6 ar
    11    5   28 1
    12    6   29 1
    13    7    8 1
    14    7   30 1
    15    7   31 1
    16    8    9 1
    17    9   10 1
    18    9   32 1
    19    9   33 1
    20   10   11 2
    21   10   12 am
    22   12   17 1
    23   12   13 1
    24   13   14 1
    25   13   34 1
    26   13   35 1
    27   14   15 1
    28   14   36 1
    29   14   37 1
    30   15   16 1
    31   15   18 1
    32   16   17 1
    33   16   38 1
    34   16   39 1
    35   17   40 1
    36   17   41 1
    37   18   23 ar
    38   18   19 ar
    39   19   20 ar
    40   19   42 1
    41   20   21 ar
    42   20   43 1
    43   21   22 ar
    44   21   24 1
    45   22   23 ar
    46   22   44 1
    47   23   45 1
@<TRIPOS>MOLECULE
ZINC13487233
   30    31     0     0     0
SMALL
USER_CHARGES
2-[2-(3-methoxyphenyl)ethynyl]-6-methyl-pyridine
@<TRIPOS>ATOM
      1 C1         -4.6295    6.8908    0.0611 C.3       1 <0>        -0.1065
      2 C2         -4.6725    5.3844    0.0531 C.ar      1 <0>         0.1350
      3 C3         -5.8950    4.7371    0.0544 C.ar      1 <0>        -0.1650
      4 C4         -5.9323    3.3495    0.0471 C.ar      1 <0>        -0.0686
      5 C5         -4.7353    2.6562    0.0332 C.ar      1 <0>        -0.1507
      6 C6         -3.5363    3.3731    0.0372 C.ar      1 <0>         0.2335
      7 N1         -3.5457    4.7029    0.0445 N.ar      1 <0>        -0.4698
      8 C7         -2.2882    2.6711    0.0274 C.1       1 <0>        -0.1052
      9 C8         -1.2650    2.0956    0.0194 C.1       1 <0>        -0.0817
     10 C9         -0.0169    1.3936    0.0097 C.ar      1 <0>         0.0482
     11 C10         0.0021   -0.0041    0.0020 C.ar      1 <0>        -0.1285
     12 C11         1.2063   -0.6762   -0.0131 C.ar      1 <0>        -0.0786
     13 C12         2.3967    0.0280   -0.0207 C.ar      1 <0>        -0.1956
     14 C13         2.3886    1.4164   -0.0136 C.ar      1 <0>         0.1288
     15 C14         1.1862    2.1026    0.0020 C.ar      1 <0>        -0.1231
     16 O1          3.5618    2.1024   -0.0220 O.3       1 <0>        -0.3152
     17 C15         4.7644    1.3307   -0.0381 C.3       1 <0>         0.0259
     18 H1         -4.6236    7.2596   -0.9646 H         1 <0>         0.0815
     19 H2         -5.5065    7.2765    0.5808 H         1 <0>         0.0787
     20 H3         -3.7273    7.2258    0.5728 H         1 <0>         0.0795
     21 H4         -6.8127    5.3065    0.0615 H         1 <0>         0.1407
     22 H5         -6.8751    2.8227    0.0476 H         1 <0>         0.1430
     23 H6         -4.7278    1.5763    0.0231 H         1 <0>         0.1406
     24 H7         -0.9255   -0.5572    0.0075 H         1 <0>         0.1309
     25 H8          1.2199   -1.7561   -0.0194 H         1 <0>         0.1335
     26 H9          3.3364   -0.5042   -0.0325 H         1 <0>         0.1332
     27 H10         1.1787    3.1825    0.0079 H         1 <0>         0.1379
     28 H11         4.8017    0.6975    0.8484 H         1 <0>         0.0574
     29 H12         4.7837    0.7065   -0.9315 H         1 <0>         0.0574
     30 H13         5.6252    1.9994   -0.0434 H         1 <0>         0.1028
@<TRIPOS>BOND
     1    1    2 1
     2    1   18 1
     3    1   19 1
     4    1   20 1
     5    2    7 ar
     6    2    3 ar
     7    3    4 ar
     8    3   21 1
     9    4    5 ar
    10    4   22 1
    11    5    6 ar
    12    5   23 1
    13    6    7 ar
    14    6    8 1
    15    8    9 3
    16    9   10 1
    17   10   15 ar
    18   10   11 ar
    19   11   12 ar
    20   11   24 1
    21   12   13 ar
    22   12   25 1
    23   13   14 ar
    24   13   26 1
    25   14   15 ar
    26   14   16 1
    27   15   27 1
    28   16   17 1
    29   17   28 1
    30   17   29 1
    31   17   30 1
@<TRIPOS>MOLECULE
ZINC04656472
   33    35     0     0     0
SMALL
USER_CHARGES

@<TRIPOS>ATOM
      1 C1         -0.0167    1.3781    0.0096 C.ar      1 <0>        -0.1069
      2 C2          1.1709    2.0855    0.0021 C.ar      1 <0>        -0.1229
      3 C3          2.3773    1.4107   -0.0130 C.ar      1 <0>        -0.0940
      4 C4          2.3960    0.0285   -0.0201 C.ar      1 <0>        -0.1017
      5 C5          1.2084   -0.6789   -0.0117 C.ar      1 <0>        -0.0940
      6 C6          0.0021   -0.0041    0.0020 C.ar      1 <0>        -0.1229
      7 C7          3.7112   -0.7071   -0.0376 C.3       1 <0>         0.0999
      8 O1          4.1410   -0.9464    1.3041 O.3       1 <0>        -0.2995
      9 C8          5.3166   -1.6038    1.4663 C.ar      1 <0>         0.2020
     10 C9          6.0433   -2.0047    0.3478 C.ar      1 <0>        -0.2526
     11 C10         7.2268   -2.6699    0.4980 C.ar      1 <0>         0.0169
     12 C11         7.7095   -2.9475    1.7802 C.ar      1 <0>        -0.2918
     13 C12         6.9848   -2.5416    2.9148 C.ar      1 <0>         0.2203
     14 C13         5.7872   -1.8659    2.7446 C.ar      1 <0>        -0.2003
     15 O2          7.4494   -2.7927    4.1608 O.3       1 <0>        -0.3057
     16 C14         8.3849   -3.8554    4.3427 C.3       1 <0>         0.0699
     17 C15         9.5577   -3.6730    3.3681 C.3       1 <0>        -0.2053
     18 C16         8.9783   -3.6681    1.9648 C.2       1 <0>         0.4032
     19 O3          9.5329   -4.2300    1.0434 O.2       1 <0>        -0.4495
     20 H1         -0.9591    1.9053    0.0259 H         1 <0>         0.1256
     21 H2          1.1563    3.1654    0.0076 H         1 <0>         0.1267
     22 H3          3.3051    1.9634   -0.0196 H         1 <0>         0.1250
     23 H4          1.2231   -1.7588   -0.0176 H         1 <0>         0.1250
     24 H5         -0.9258   -0.5567    0.0082 H         1 <0>         0.1266
     25 H6          3.5884   -1.6586   -0.5549 H         1 <0>         0.0773
     26 H7          4.4573   -0.1052   -0.5563 H         1 <0>         0.0774
     27 H8          5.6694   -1.7891   -0.6422 H         1 <0>         0.1379
     28 H9          7.7876   -2.9806   -0.3711 H         1 <0>         0.1398
     29 H10         5.2188   -1.5474    3.6060 H         1 <0>         0.1477
     30 H11         8.7575   -3.8407    5.3669 H         1 <0>         0.1252
     31 H12         7.8946   -4.8091    4.1473 H         1 <0>         0.0735
     32 H13        10.0606   -2.7263    3.5655 H         1 <0>         0.1147
     33 H14        10.2618   -4.4980    3.4762 H         1 <0>         0.1127
@<TRIPOS>BOND
     1    1    6 ar
     2    1    2 ar
     3    1   20 1
     4    2    3 ar
     5    2   21 1
     6    3    4 ar
     7    3   22 1
     8    4    5 ar
     9    4    7 1
    10    5    6 ar
    11    5   23 1
    12    6   24 1
    13    7    8 1
    14    7   25 1
    15    7   26 1
    16    8    9 1
    17    9   14 ar
    18    9   10 ar
    19   10   11 ar
    20   10   27 1
    21   11   12 ar
    22   11   28 1
    23   12   18 1
    24   12   13 ar
    25   13   14 ar
    26   13   15 1
    27   14   29 1
    28   15   16 1
    29   16   17 1
    30   16   30 1
    31   16   31 1
    32   17   18 1
    33   17   32 1
    34   17   33 1
    35   18   19 2
@<TRIPOS>MOLECULE
ZINC03901503
   42    44     0     0     0
SMALL
USER_CHARGES
(4-hydroxy-1-piperidyl)-[4-(2-phenylethynyl)phenyl]-methanone
@<TRIPOS>ATOM
      1 C1          0.0427    1.4790    0.1765 C.ar      1 <0>        -0.1068
      2 C2          1.2184    2.1352    0.4959 C.ar      1 <0>        -0.1192
      3 C3          2.4203    1.4597    0.4623 C.ar      1 <0>        -0.0927
      4 C4          2.4490    0.1091    0.1039 C.ar      1 <0>         0.0060
      5 C5          1.2574   -0.5470   -0.2174 C.ar      1 <0>        -0.0925
      6 C6          0.0631    0.1416   -0.1789 C.ar      1 <0>        -0.1189
      7 C7          3.6930   -0.5992    0.0666 C.1       1 <0>        -0.0990
      8 C8          4.7128   -1.1799    0.0361 C.1       1 <0>        -0.1260
      9 C9          5.9568   -1.8882   -0.0012 C.ar      1 <0>         0.0385
     10 C10         5.9812   -3.2420   -0.3545 C.ar      1 <0>        -0.0950
     11 C11         7.1686   -3.9155   -0.3950 C.ar      1 <0>        -0.0662
     12 C12         8.3583   -3.2556   -0.0729 C.ar      1 <0>        -0.1183
     13 C13         8.3341   -1.9044    0.2853 C.ar      1 <0>        -0.0902
     14 C14         7.1480   -1.2283    0.3211 C.ar      1 <0>        -0.0975
     15 C15         9.6408   -3.9858   -0.1114 C.2       1 <0>         0.5627
     16 O1          9.7526   -5.0490    0.4678 O.2       1 <0>        -0.5268
     17 N1         10.6876   -3.4739   -0.7885 N.am      1 <0>        -0.6080
     18 C16        10.5922   -2.1550   -1.4289 C.3       1 <0>         0.0978
     19 C17        10.9813   -2.2870   -2.9002 C.3       1 <0>        -0.1694
     20 C18        12.3624   -2.9380   -3.0039 C.3       1 <0>         0.1047
     21 C19        12.3160   -4.3379   -2.3873 C.3       1 <0>        -0.1292
     22 C20        11.9439   -4.2268   -0.9054 C.3       1 <0>         0.1140
     23 O2         12.7408   -3.0355   -4.3785 O.3       1 <0>        -0.5656
     24 H1         -0.8950    2.0143    0.2003 H         1 <0>         0.1276
     25 H2          1.1948    3.1790    0.7723 H         1 <0>         0.1298
     26 H3          3.3370    1.9731    0.7122 H         1 <0>         0.1276
     27 H4          1.2719   -1.5904   -0.4956 H         1 <0>         0.1279
     28 H5         -0.8584   -0.3639   -0.4269 H         1 <0>         0.1299
     29 H6          5.0617   -3.7530   -0.5990 H         1 <0>         0.1362
     30 H7          7.1881   -4.9592   -0.6719 H         1 <0>         0.1371
     31 H8          9.2535   -1.3953    0.5340 H         1 <0>         0.1360
     32 H9          7.1294   -0.1845    0.5978 H         1 <0>         0.1356
     33 H10         9.5693   -1.7858   -1.3545 H         1 <0>         0.0998
     34 H11        11.2708   -1.4592   -0.9353 H         1 <0>         0.0755
     35 H12        11.0092   -1.2993   -3.3604 H         1 <0>         0.0813
     36 H13        10.2471   -2.9076   -3.4138 H         1 <0>         0.0774
     37 H14        13.0916   -2.3296   -2.4689 H         1 <0>         0.0586
     38 H15        13.2938   -4.8100   -2.4825 H         1 <0>         0.0863
     39 H16        11.5692   -4.9392   -2.9058 H         1 <0>         0.0755
     40 H17        12.7349   -3.7034   -0.3684 H         1 <0>         0.0740
     41 H18        11.8126   -5.2242   -0.4858 H         1 <0>         0.1019
     42 H19        12.7907   -2.1840   -4.8340 H         1 <0>         0.3799
@<TRIPOS>BOND
     1    1    6 ar
     2    1    2 ar
     3    1   24 1
     4    2    3 ar
     5    2   25 1
     6    3    4 ar
     7    3   26 1
     8    4    5 ar
     9    4    7 1
    10    5    6 ar
    11    5   27 1
    12    6   28 1
    13    7    8 3
    14    8    9 1
    15    9   14 ar
    16    9   10 ar
    17   10   11 ar
    18   10   29 1
    19   11   12 ar
    20   11   30 1
    21   12   13 ar
    22   12   15 1
    23   13   14 ar
    24   13   31 1
    25   14   32 1
    26   15   16 2
    27   15   17 am
    28   17   22 1
    29   17   18 1
    30   18   19 1
    31   18   33 1
    32   18   34 1
    33   19   20 1
    34   19   35 1
    35   19   36 1
    36   20   21 1
    37   20   23 1
    38   20   37 1
    39   21   22 1
    40   21   38 1
    41   21   39 1
    42   22   40 1
    43   22   41 1
    44   23   42 1
@<TRIPOS>MOLECULE
ZINC66138253
   37    39     0     0     0
SMALL
USER_CHARGES

@<TRIPOS>ATOM
      1 C1         -0.0167    1.3791    0.0096 C.ar      1 <0>        -0.0889
      2 C2          1.1660    2.0889    0.0021 C.ar      1 <0>        -0.0997
      3 C3          2.3866    1.4083   -0.0132 C.ar      1 <0>         0.0345
      4 C4          2.4000    0.0107   -0.0208 C.ar      1 <0>        -0.1246
      5 C5          1.2082   -0.6873   -0.0132 C.ar      1 <0>         0.1018
      6 C6          0.0021   -0.0041    0.0020 C.ar      1 <0>        -0.1381
      7 F1          1.2179   -2.0383   -0.0206 F         1 <0>        -0.1337
      8 C7          3.6178    2.1395   -0.0215 C.1       1 <0>        -0.0696
      9 C8          4.6272    2.7389   -0.0283 C.1       1 <0>        -0.1095
     10 C9          5.8585    3.4701   -0.0366 C.ar      1 <0>         0.2565
     11 C10         5.8317    4.8691   -0.0235 C.ar      1 <0>        -0.1477
     12 C11         7.0122    5.5622   -0.0310 C.ar      1 <0>        -0.0111
     13 C12         8.2140    4.8387   -0.0518 C.ar      1 <0>        -0.1843
     14 C13         8.1678    3.4423   -0.0641 C.ar      1 <0>         0.1433
     15 N1          7.0148    2.8106   -0.0512 N.ar      1 <0>        -0.4690
     16 C14         9.5108    5.5437   -0.0612 C.2       1 <0>         0.5653
     17 O1          9.5420    6.7591   -0.0508 O.2       1 <0>        -0.5291
     18 N2         10.6602    4.8402   -0.0812 N.am      1 <0>        -0.7148
     19 C15        11.9472    5.5400   -0.0904 C.3       1 <0>         0.1203
     20 C16        12.6746    5.4738   -1.4437 C.3       1 <0>        -0.1538
     21 C17        13.9754    5.2824   -0.6461 C.3       1 <0>        -0.1398
     22 C18        13.1054    4.7071    0.4838 C.3       1 <0>        -0.1476
     23 H1         -0.9600    1.9047    0.0260 H         1 <0>         0.1425
     24 H2          1.1488    3.1688    0.0078 H         1 <0>         0.1375
     25 H3          3.3395   -0.5218   -0.0330 H         1 <0>         0.1433
     26 H4         -0.9273   -0.5542    0.0083 H         1 <0>         0.1419
     27 H5          4.8894    5.3966   -0.0078 H         1 <0>         0.1505
     28 H6          7.0182    6.6421   -0.0215 H         1 <0>         0.1563
     29 H7          9.0877    2.8766   -0.0805 H         1 <0>         0.1652
     30 H8         10.6352    3.8706   -0.0895 H         1 <0>         0.4008
     31 H9         11.8851    6.5459    0.3247 H         1 <0>         0.1183
     32 H10        12.3998    4.6074   -2.0453 H         1 <0>         0.0850
     33 H11        12.6397    6.4079   -2.0043 H         1 <0>         0.0737
     34 H12        14.6553    4.5538   -1.0879 H         1 <0>         0.0756
     35 H13        14.4687    6.2184   -0.3840 H         1 <0>         0.0857
     36 H14        13.4181    5.0222    1.4793 H         1 <0>         0.0767
     37 H15        12.9483    3.6311    0.4093 H         1 <0>         0.0867
@<TRIPOS>BOND
     1    1    6 ar
     2    1    2 ar
     3    1   23 1
     4    2    3 ar
     5    2   24 1
     6    3    4 ar
     7    3    8 1
     8    4    5 ar
     9    4   25 1
    10    5    6 ar
    11    5    7 1
    12    6   26 1
    13    8    9 3
    14    9   10 1
    15   10   15 ar
    16   10   11 ar
    17   11   12 ar
    18   11   27 1
    19   12   13 ar
    20   12   28 1
    21   13   14 ar
    22   13   16 1
    23   14   15 ar
    24   14   29 1
    25   16   17 2
    26   16   18 am
    27   18   19 1
    28   18   30 1
    29   19   22 1
    30   19   20 1
    31   19   31 1
    32   20   21 1
    33   20   32 1
    34   20   33 1
    35   21   22 1
    36   21   34 1
    37   21   35 1
    38   22   36 1
    39   22   37 1
@<TRIPOS>MOLECULE
ZINC35318976
   41    44     0     0     0
SMALL
USER_CHARGES

@<TRIPOS>ATOM
      1 C1         -0.0167    1.3786    0.0096 C.ar      1 <0>        -0.1089
      2 C2          1.1677    2.0878    0.0021 C.ar      1 <0>        -0.0727
      3 C3          2.3839    1.4085   -0.0131 C.ar      1 <0>        -0.0250
      4 C4          2.3982    0.0154   -0.0207 C.ar      1 <0>        -0.0567
      5 C5          1.2077   -0.6848   -0.0131 C.ar      1 <0>        -0.0417
      6 C6          0.0021   -0.0041    0.0020 C.ar      1 <0>        -0.0832
      7 Cl1         1.2229   -2.4207   -0.0230 Cl        1 <0>        -0.0556
      8 C7          3.6600    2.1665   -0.0217 C.2       1 <0>         0.2990
      9 N1          4.8923    1.6278   -0.0418 N.2       1 <0>        -0.5244
     10 C8          5.7912    2.5704   -0.0445 C.2       1 <0>         0.2946
     11 O1          5.1651    3.7541   -0.0262 O.3       1 <0>        -0.0939
     12 N2          3.7737    3.4716   -0.0167 N.2       1 <0>        -0.3312
     13 C9          7.2838    2.3639   -0.0644 C.3       1 <0>         0.2198
     14 H1          7.5115    1.3314   -0.3293 H         1 <0>         0.1285
     15 C10         7.8778    2.6934    1.3213 C.3       1 <0>        -0.1250
     16 C11         9.2150    3.3965    0.9679 C.3       1 <0>        -0.1299
     17 C12         8.8279    4.1745   -0.3145 C.3       1 <0>         0.0968
     18 N3          7.9021    3.2774   -1.0364 N.am      1 <0>        -0.6173
     19 C13         7.6630    3.2923   -2.3627 C.2       1 <0>         0.5400
     20 O2          6.8782    2.5041   -2.8462 O.2       1 <0>        -0.5226
     21 C14         8.3707    4.2883   -3.2448 C.3       1 <0>        -0.1328
     22 C15         7.7089    5.6763   -3.2611 C.3       1 <0>        -0.1221
     23 C16         8.0049    5.7129   -4.7697 C.3       1 <0>        -0.1413
     24 C17         7.9894    4.1757   -4.7303 C.3       1 <0>        -0.1188
     25 H2         -0.9597    1.9046    0.0260 H         1 <0>         0.1444
     26 H3          1.1514    3.1676    0.0077 H         1 <0>         0.1390
     27 H4          3.3384   -0.5160   -0.0328 H         1 <0>         0.1500
     28 H5         -0.9269   -0.5549    0.0079 H         1 <0>         0.1425
     29 H6          7.2214    3.3673    1.8719 H         1 <0>         0.0864
     30 H7          8.0601    1.7813    1.8895 H         1 <0>         0.1029
     31 H8          9.5194    4.0786    1.7618 H         1 <0>         0.0971
     32 H9          9.9974    2.6665    0.7608 H         1 <0>         0.0870
     33 H10         8.3286    5.1082   -0.0556 H         1 <0>         0.0788
     34 H11         9.7124    4.3716   -0.9202 H         1 <0>         0.0888
     35 H12         9.4464    4.3180   -3.0712 H         1 <0>         0.1166
     36 H13         6.6449    5.6554   -3.0253 H         1 <0>         0.0840
     37 H14         8.2553    6.4273   -2.6906 H         1 <0>         0.0777
     38 H15         7.1976    6.1427   -5.3628 H         1 <0>         0.0743
     39 H16         8.9805    6.1336   -5.0131 H         1 <0>         0.0859
     40 H17         8.7622    3.7153   -5.3458 H         1 <0>         0.0749
     41 H18         7.0021    3.7446   -4.8961 H         1 <0>         0.0939
@<TRIPOS>BOND
     1    1    6 ar
     2    1    2 ar
     3    1   25 1
     4    2    3 ar
     5    2   26 1
     6    3    4 ar
     7    3    8 1
     8    4    5 ar
     9    4   27 1
    10    5    6 ar
    11    5    7 1
    12    6   28 1
    13    8   12 2
    14    8    9 1
    15    9   10 2
    16   10   11 1
    17   10   13 1
    18   11   12 1
    19   13   14 1
    20   13   18 1
    21   13   15 1
    22   15   16 1
    23   15   29 1
    24   15   30 1
    25   16   17 1
    26   16   31 1
    27   16   32 1
    28   17   18 1
    29   17   33 1
    30   17   34 1
    31   18   19 am
    32   19   20 2
    33   19   21 1
    34   21   24 1
    35   21   22 1
    36   21   35 1
    37   22   23 1
    38   22   36 1
    39   22   37 1
    40   23   24 1
    41   23   38 1
    42   23   39 1
    43   24   40 1
    44   24   41 1
@<TRIPOS>MOLECULE
ZINC35318977
   41    44     0     0     0
SMALL
USER_CHARGES

@<TRIPOS>ATOM
      1 C1         -0.0167    1.3786    0.0096 C.ar      1 <0>        -0.1089
      2 C2          1.1677    2.0878    0.0021 C.ar      1 <0>        -0.0728
      3 C3          2.3839    1.4085   -0.0131 C.ar      1 <0>        -0.0246
      4 C4          2.3982    0.0154   -0.0207 C.ar      1 <0>        -0.0568
      5 C5          1.2077   -0.6848   -0.0131 C.ar      1 <0>        -0.0417
      6 C6          0.0021   -0.0041    0.0020 C.ar      1 <0>        -0.0834
      7 Cl1         1.2229   -2.4207   -0.0230 Cl        1 <0>        -0.0558
      8 C7          3.6600    2.1665   -0.0217 C.2       1 <0>         0.2988
      9 N1          4.8923    1.6278   -0.0418 N.2       1 <0>        -0.5252
     10 C8          5.7912    2.5704   -0.0445 C.2       1 <0>         0.2958
     11 O1          5.1651    3.7541   -0.0262 O.3       1 <0>        -0.0927
     12 N2          3.7737    3.4716   -0.0167 N.2       1 <0>        -0.3316
     13 C9          7.2838    2.3639   -0.0644 C.3       1 <0>         0.2195
     14 H1          7.5177    1.3270    0.1770 H         1 <0>         0.1281
     15 C10         7.8440    2.7175   -1.4582 C.3       1 <0>        -0.1233
     16 C11         8.3478    4.1730   -1.2712 C.3       1 <0>        -0.1372
     17 C12         8.8719    4.1360    0.1860 C.3       1 <0>         0.0994
     18 N3          7.9257    3.2606    0.9079 N.am      1 <0>        -0.6176
     19 C13         7.6878    3.2804    2.2344 C.2       1 <0>         0.5402
     20 O2          6.8836    2.5120    2.7178 O.2       1 <0>        -0.5227
     21 C14         8.4212    4.2573    3.1169 C.3       1 <0>        -0.1334
     22 C15         9.8254    3.7831    3.5269 C.3       1 <0>        -0.1209
     23 C16         9.5281    4.3614    4.9205 C.3       1 <0>        -0.1412
     24 C17         8.0380    4.1532    4.6025 C.3       1 <0>        -0.1197
     25 H2         -0.9597    1.9046    0.0260 H         1 <0>         0.1444
     26 H3          1.1514    3.1676    0.0077 H         1 <0>         0.1390
     27 H4          3.3384   -0.5160   -0.0328 H         1 <0>         0.1499
     28 H5         -0.9269   -0.5549    0.0079 H         1 <0>         0.1425
     29 H6          8.6684    2.0549   -1.7219 H         1 <0>         0.1041
     30 H7          7.0578    2.6753   -2.2119 H         1 <0>         0.0908
     31 H8          9.1526    4.4007   -1.9702 H         1 <0>         0.0985
     32 H9          7.5297    4.8859   -1.3742 H         1 <0>         0.0830
     33 H10         9.8763    3.7138    0.2173 H         1 <0>         0.0825
     34 H11         8.8667    5.1373    0.6166 H         1 <0>         0.0858
     35 H12         8.3985    5.2763    2.7305 H         1 <0>         0.1154
     36 H13         9.9397    2.6991    3.5194 H         1 <0>         0.0857
     37 H14        10.6305    4.2982    3.0031 H         1 <0>         0.0776
     38 H15         9.8912    3.7389    5.7382 H         1 <0>         0.0750
     39 H16         9.8094    5.4090    5.0275 H         1 <0>         0.0853
     40 H17         7.4001    4.9672    4.9470 H         1 <0>         0.0734
     41 H18         7.6636    3.1704    4.8890 H         1 <0>         0.0951
@<TRIPOS>BOND
     1    1    6 ar
     2    1    2 ar
     3    1   25 1
     4    2    3 ar
     5    2   26 1
     6    3    4 ar
     7    3    8 1
     8    4    5 ar
     9    4   27 1
    10    5    6 ar
    11    5    7 1
    12    6   28 1
    13    8   12 2
    14    8    9 1
    15    9   10 2
    16   10   11 1
    17   10   13 1
    18   11   12 1
    19   13   14 1
    20   13   18 1
    21   13   15 1
    22   15   16 1
    23   15   29 1
    24   15   30 1
    25   16   17 1
    26   16   31 1
    27   16   32 1
    28   17   18 1
    29   17   33 1
    30   17   34 1
    31   18   19 am
    32   19   20 2
    33   19   21 1
    34   21   24 1
    35   21   22 1
    36   21   35 1
    37   22   23 1
    38   22   36 1
    39   22   37 1
    40   23   24 1
    41   23   38 1
    42   23   39 1
    43   24   40 1
    44   24   41 1
@<TRIPOS>MOLECULE
ZINC28123047
   33    34     0     0     0
SMALL
USER_CHARGES
3-amino-6-chloro-5-dimethylamino-N-(2-pyridyl)pyrazine-2-carboxamide
@<TRIPOS>ATOM
      1 C1         -7.5537    8.3020    1.8494 C.3       1 <0>         0.0256
      2 N1         -7.4519    7.5382    0.5987 N.pl3     1 <0>        -0.4878
      3 C2         -7.6996    8.3991   -0.5655 C.3       1 <0>         0.0250
      4 C3         -6.2221    6.9111    0.4991 C.ar      1 <0>         0.3667
      5 C4         -6.1486    5.5121    0.5015 C.ar      1 <0>         0.0733
      6 N2         -4.9832    4.9109    0.4068 N.ar      1 <0>        -0.3615
      7 C5         -3.8656    5.6318    0.3079 C.ar      1 <0>        -0.0622
      8 C6         -3.9355    7.0341    0.3106 C.ar      1 <0>         0.4412
      9 N3         -5.1156    7.6358    0.4012 N.ar      1 <0>        -0.5314
     10 N4         -2.7790    7.7863    0.2141 N.pl3     1 <0>        -0.8292
     11 C7         -2.5598    4.9581    0.2023 C.2       1 <0>         0.5968
     12 O1         -1.5345    5.6119    0.2259 O.2       1 <0>        -0.4806
     13 N5         -2.5012    3.6172    0.0795 N.am      1 <0>        -0.6529
     14 C8         -1.2675    2.9703    0.0866 C.ar      1 <0>         0.3597
     15 C9         -1.2181    1.5806    0.0665 C.ar      1 <0>        -0.2025
     16 C10         0.0138    0.9510    0.0734 C.ar      1 <0>        -0.0471
     17 C11         1.1588    1.7360    0.1004 C.ar      1 <0>        -0.2033
     18 C12         1.0355    3.1110    0.1194 C.ar      1 <0>         0.1311
     19 N6         -0.1531    3.6838    0.1172 N.ar      1 <0>        -0.4813
     20 Cl1        -7.6007    4.5694    0.6294 Cl        1 <0>         0.0018
     21 H1         -7.3642    7.6346    2.7030 H         1 <0>         0.0724
     22 H2         -8.5630    8.7307    1.9361 H         1 <0>         0.0875
     23 H3         -6.8101    9.1126    1.8455 H         1 <0>         0.0461
     24 H4         -7.6173    7.8031   -1.4864 H         1 <0>         0.0715
     25 H5         -6.9570    9.2104   -0.5862 H         1 <0>         0.0474
     26 H6         -8.7099    8.8285   -0.4957 H         1 <0>         0.0863
     27 H7         -2.8356    8.8848    0.2164 H         1 <0>         0.4231
     28 H8         -1.8025    7.2861    0.1351 H         1 <0>         0.4525
     29 H9         -3.4276    3.0336   -0.0263 H         1 <0>         0.4578
     30 H10        -2.1290    1.0008    0.0460 H         1 <0>         0.1383
     31 H11         0.0832   -0.1266    0.0586 H         1 <0>         0.1393
     32 H12         2.1357    1.2757    0.1068 H         1 <0>         0.1367
     33 H13         1.9233    3.7255    0.1407 H         1 <0>         0.1597
@<TRIPOS>BOND
     1    1    2 1
     2    1   21 1
     3    1   22 1
     4    1   23 1
     5    2    3 1
     6    2    4 1
     7    3   24 1
     8    3   25 1
     9    3   26 1
    10    4    9 ar
    11    4    5 ar
    12    5    6 ar
    13    5   20 1
    14    6    7 ar
    15    7    8 ar
    16    7   11 1
    17    8    9 ar
    18    8   10 1
    19   10   27 1
    20   10   28 1
    21   11   12 2
    22   11   13 am
    23   13   14 1
    24   13   29 1
    25   14   19 ar
    26   14   15 ar
    27   15   16 ar
    28   15   30 1
    29   16   17 ar
    30   16   31 1
    31   17   18 ar
    32   17   32 1
    33   18   19 ar
    34   18   33 1
@<TRIPOS>MOLECULE
ZINC71295455
   42    44     0     0     0
SMALL
USER_CHARGES

@<TRIPOS>ATOM
      1 C1         -0.0187    1.5257    0.0104 C.3       1 <0>        -0.1183
      2 C2          1.4164    2.0561   -0.0004 C.3       1 <0>        -0.1236
      3 C3          2.1330    1.5626   -1.2591 C.3       1 <0>        -0.1062
      4 C4          2.1534    0.0332   -1.2671 C.3       1 <0>        -0.0693
      5 C5          0.7186   -0.4973   -1.2568 C.3       1 <0>        -0.1035
      6 C6          0.0021   -0.0041    0.0020 C.3       1 <0>        -0.1269
      7 C7          2.8729   -0.4631   -2.5228 C.3       1 <0>        -0.1104
      8 C8          2.8641   -1.9934   -2.5462 C.3       1 <0>        -0.1379
      9 C9          3.6112   -2.5232   -1.3182 C.3       1 <0>         0.1060
     10 N1          3.0152   -1.9348   -0.1111 N.am      1 <0>        -0.6085
     11 C10         2.8923   -0.4732   -0.0247 C.3       1 <0>         0.1155
     12 C11         2.5890   -2.7208    0.8975 C.2       1 <0>         0.5251
     13 O1          2.0988   -2.2228    1.8887 O.2       1 <0>        -0.5381
     14 C12         2.7216   -4.2183    0.7934 C.3       1 <0>        -0.1398
     15 C13         1.5878   -4.8831   -0.0049 C.3       1 <0>        -0.1219
     16 C14         1.6137   -6.0067    1.0448 C.3       1 <0>        -0.1423
     17 C15         2.1897   -4.9708    2.0246 C.3       1 <0>        -0.1183
     18 H1         -0.5290    1.8771    0.9072 H         1 <0>         0.0603
     19 H2         -0.5460    1.8867   -0.8726 H         1 <0>         0.0597
     20 H3          1.4009    3.1460    0.0052 H         1 <0>         0.0627
     21 H4          1.9436    1.6956    0.8828 H         1 <0>         0.0637
     22 H5          1.6062    1.9237   -2.1424 H         1 <0>         0.0664
     23 H6          3.1557    1.9397   -1.2664 H         1 <0>         0.0633
     24 H7          0.1914   -0.1365   -2.1400 H         1 <0>         0.0603
     25 H8          0.7340   -1.5872   -1.2627 H         1 <0>         0.0623
     26 H9          0.5291   -0.3652    0.8852 H         1 <0>         0.0721
     27 H10        -1.0205   -0.3814    0.0095 H         1 <0>         0.0580
     28 H11         2.3624   -0.0834   -3.4079 H         1 <0>         0.0670
     29 H12         3.9026   -0.1059   -2.5165 H         1 <0>         0.0648
     30 H13         1.8348   -2.3517   -2.5285 H         1 <0>         0.0717
     31 H14         3.3570   -2.3462   -3.4522 H         1 <0>         0.0757
     32 H15         3.5230   -3.6089   -1.2773 H         1 <0>         0.0861
     33 H16         4.6625   -2.2422   -1.3808 H         1 <0>         0.0686
     34 H17         3.8849   -0.0249    0.0183 H         1 <0>         0.0632
     35 H18         2.3293   -0.2060    0.8696 H         1 <0>         0.1001
     36 H19         3.7181   -4.5346    0.4852 H         1 <0>         0.1112
     37 H20         0.6610   -4.3094   -0.0076 H         1 <0>         0.0841
     38 H21         1.8879   -5.2090   -1.0008 H         1 <0>         0.0743
     39 H22         0.6234   -6.3673    1.3229 H         1 <0>         0.0730
     40 H23         2.3067   -6.8129    0.8044 H         1 <0>         0.0837
     41 H24         2.9758   -5.3675    2.6671 H         1 <0>         0.0716
     42 H25         1.4275   -4.4210    2.5767 H         1 <0>         0.0946
@<TRIPOS>BOND
     1    1    6 1
     2    1    2 1
     3    1   18 1
     4    1   19 1
     5    2    3 1
     6    2   20 1
     7    2   21 1
     8    3    4 1
     9    3   22 1
    10    3   23 1
    11    4   11 1
    12    4    5 1
    13    4    7 1
    14    5    6 1
    15    5   24 1
    16    5   25 1
    17    6   26 1
    18    6   27 1
    19    7    8 1
    20    7   28 1
    21    7   29 1
    22    8    9 1
    23    8   30 1
    24    8   31 1
    25    9   10 1
    26    9   32 1
    27    9   33 1
    28   10   11 1
    29   10   12 am
    30   11   34 1
    31   11   35 1
    32   12   13 2
    33   12   14 1
    34   14   17 1
    35   14   15 1
    36   14   36 1
    37   15   16 1
    38   15   37 1
    39   15   38 1
    40   16   17 1
    41   16   39 1
    42   16   40 1
    43   17   41 1
    44   17   42 1
@<TRIPOS>MOLECULE
ZINC00269575
   34    36     0     0     0
SMALL
USER_CHARGES
(7-amino-3,5-dimethyl-9-oxa-2-azabicyclo[4.3.0]nona-1,3,5,7-tetraen-8-yl)-(4-fluorophenyl)-methanone
@<TRIPOS>ATOM
      1 C1         -2.1122   -1.4360   -0.0745 C.3       1 <0>        -0.1268
      2 C2         -3.0487   -0.2552   -0.0659 C.ar      1 <0>         0.0377
      3 C3         -4.4199   -0.4338   -0.0836 C.ar      1 <0>        -0.2085
      4 C4         -5.2482    0.6773   -0.0752 C.ar      1 <0>         0.2060
      5 N1         -4.7624    1.9007   -0.0511 N.ar      1 <0>        -0.4883
      6 C5         -3.4570    2.1338   -0.0337 C.ar      1 <0>         0.3213
      7 C6         -2.5577    1.0516   -0.0409 C.ar      1 <0>        -0.2382
      8 C7         -1.2144    1.6403   -0.0181 C.2       1 <0>         0.2606
      9 C8         -1.4084    3.0096    0.0064 C.2       1 <0>        -0.1786
     10 O1         -2.7352    3.2716   -0.0089 O.3       1 <0>        -0.1653
     11 C9         -0.3824    3.9814    0.0386 C.2       1 <0>         0.4835
     12 O2          0.7812    3.6356    0.1456 O.2       1 <0>        -0.4720
     13 C10        -0.7210    5.4175   -0.0575 C.ar      1 <0>        -0.1738
     14 C11        -2.0568    5.8240   -0.0563 C.ar      1 <0>        -0.0398
     15 C12        -2.3669    7.1645   -0.1403 C.ar      1 <0>        -0.1665
     16 C13        -1.3553    8.1078   -0.2375 C.ar      1 <0>         0.1309
     17 C14        -0.0273    7.7091   -0.2449 C.ar      1 <0>        -0.1693
     18 C15         0.2938    6.3716   -0.1556 C.ar      1 <0>        -0.0304
     19 F1         -1.6647    9.4200   -0.3248 F         1 <0>        -0.1331
     20 N2         -0.0062    0.9668   -0.0155 N.pl3     1 <0>        -0.8100
     21 C16        -6.7422    0.4802   -0.0936 C.3       1 <0>        -0.1095
     22 H1         -1.8969   -1.7363    0.9510 H         1 <0>         0.0890
     23 H2         -2.5785   -2.2656   -0.6058 H         1 <0>         0.0863
     24 H3         -1.1840   -1.1599   -0.5747 H         1 <0>         0.0692
     25 H4         -4.8407   -1.4282   -0.1038 H         1 <0>         0.1494
     26 H5         -2.8457    5.0897    0.0145 H         1 <0>         0.1565
     27 H6         -3.3997    7.4803   -0.1350 H         1 <0>         0.1434
     28 H7          0.7568    8.4479   -0.3204 H         1 <0>         0.1433
     29 H8          1.3286    6.0622   -0.1611 H         1 <0>         0.1452
     30 H9          0.0085   -0.0030   -0.0298 H         1 <0>         0.4066
     31 H10         0.8264    1.4643   -0.0034 H         1 <0>         0.4220
     32 H11        -7.0918    0.4487   -1.1255 H         1 <0>         0.0888
     33 H12        -6.9911   -0.4576    0.4032 H         1 <0>         0.0849
     34 H13        -7.2241    1.3069    0.4283 H         1 <0>         0.0853
@<TRIPOS>BOND
     1    1    2 1
     2    1   22 1
     3    1   23 1
     4    1   24 1
     5    2    7 ar
     6    2    3 ar
     7    3    4 ar
     8    3   25 1
     9    4    5 ar
    10    4   21 1
    11    5    6 ar
    12    6   10 1
    13    6    7 ar
    14    7    8 1
    15    8    9 2
    16    8   20 1
    17    9   10 1
    18    9   11 1
    19   11   12 2
    20   11   13 1
    21   13   18 ar
    22   13   14 ar
    23   14   15 ar
    24   14   26 1
    25   15   16 ar
    26   15   27 1
    27   16   17 ar
    28   16   19 1
    29   17   18 ar
    30   17   28 1
    31   18   29 1
    32   20   30 1
    33   20   31 1
    34   21   32 1
    35   21   33 1
    36   21   34 1
@<TRIPOS>MOLECULE
ZINC28123072
   23    24     0     0     0
SMALL
USER_CHARGES
6-chloro-N-(2-pyridyl)pyrazine-2-carboxamide
@<TRIPOS>ATOM
      1 C1          1.1662    1.6916    0.0009 C.ar      1 <0>        -0.0472
      2 C2         -0.0792    1.0778    0.0031 C.ar      1 <0>        -0.2028
      3 C3         -1.2178    1.8587    0.0195 C.ar      1 <0>         0.1326
      4 N1         -1.1350    3.1754    0.0276 N.ar      1 <0>        -0.4820
      5 C4          0.0332    3.7977    0.0204 C.ar      1 <0>         0.3602
      6 C5          1.2207    3.0740    0.0034 C.ar      1 <0>        -0.2030
      7 N2          0.0736    5.1901    0.0294 N.am      1 <0>        -0.6572
      8 C6         -1.0699    5.8980   -0.0576 C.2       1 <0>         0.5724
      9 O1         -2.1414    5.3248   -0.0506 O.2       1 <0>        -0.4527
     10 C7         -1.0207    7.3746   -0.1617 C.ar      1 <0>         0.0502
     11 C8         -2.2024    8.1083   -0.2575 C.ar      1 <0>         0.1164
     12 N3         -2.1544    9.4255   -0.3454 N.ar      1 <0>        -0.4176
     13 C9         -0.9887   10.0468   -0.3528 C.ar      1 <0>         0.1021
     14 C10         0.1911    9.3190   -0.2628 C.ar      1 <0>         0.1217
     15 N4          0.1514    8.0040   -0.1695 N.ar      1 <0>        -0.4108
     16 Cl1         1.7198   10.1415   -0.2736 Cl        1 <0>         0.0036
     17 H1          2.0718    1.1032   -0.0073 H         1 <0>         0.1395
     18 H2         -0.1566    0.0006   -0.0034 H         1 <0>         0.1373
     19 H3         -2.1886    1.3856    0.0262 H         1 <0>         0.1606
     20 H4          2.1725    3.5843   -0.0028 H         1 <0>         0.1377
     21 H5          1.0388    5.7118    0.1075 H         1 <0>         0.4547
     22 H6         -3.1557    7.6008   -0.2557 H         1 <0>         0.1946
     23 H7         -0.9527   11.1234   -0.4294 H         1 <0>         0.1898
@<TRIPOS>BOND
     1    1    6 ar
     2    1    2 ar
     3    1   17 1
     4    2    3 ar
     5    2   18 1
     6    3    4 ar
     7    3   19 1
     8    4    5 ar
     9    5    6 ar
    10    5    7 1
    11    6   20 1
    12    7    8 am
    13    7   21 1
    14    8    9 2
    15    8   10 1
    16   10   15 ar
    17   10   11 ar
    18   11   12 ar
    19   11   22 1
    20   12   13 ar
    21   13   14 ar
    22   13   23 1
    23   14   15 ar
    24   14   16 1
@<TRIPOS>MOLECULE
ZINC19839164
   32    33     0     0     0
SMALL
USER_CHARGES
2-hydroxy-5-methyl-N-(6-methyl-2-pyridyl)benzamide
@<TRIPOS>ATOM
      1 C1         -2.5080    0.9754    0.0124 C.3       1 <0>        -0.1119
      2 C2         -1.2147    1.7491    0.0110 C.ar      1 <0>        -0.1431
      3 C3         -1.2398    3.1343    0.0224 C.ar      1 <0>        -0.0419
      4 C4         -0.0619    3.8543    0.0159 C.ar      1 <0>        -0.1752
      5 C5          1.1572    3.1930    0.0027 C.ar      1 <0>         0.2368
      6 C6          1.1870    1.7917   -0.0034 C.ar      1 <0>        -0.2510
      7 C7         -0.0127    1.0756    0.0037 C.ar      1 <0>        -0.0429
      8 C8          2.4773    1.0772   -0.0170 C.2       1 <0>         0.5761
      9 O1          3.5192    1.7039   -0.0232 O.2       1 <0>        -0.4862
     10 N1          2.5014   -0.2703   -0.0224 N.am      1 <0>        -0.6645
     11 C9          3.7144   -0.9448   -0.1424 C.ar      1 <0>         0.3644
     12 C10         3.7239   -2.3310   -0.2540 C.ar      1 <0>        -0.2133
     13 C11         4.9353   -2.9878   -0.3768 C.ar      1 <0>        -0.0436
     14 C12         6.1011   -2.2336   -0.3738 C.ar      1 <0>        -0.2039
     15 C13         6.0177   -0.8606   -0.2546 C.ar      1 <0>         0.1616
     16 N2          4.8477   -0.2610   -0.1436 N.ar      1 <0>        -0.4793
     17 C14         7.2793   -0.0364   -0.2507 C.3       1 <0>        -0.1103
     18 O2          2.3155    3.8991   -0.0037 O.3       1 <0>        -0.5168
     19 H1         -3.3551    1.6772    0.0185 H         1 <0>         0.0674
     20 H2         -2.5531    0.3383    0.9080 H         1 <0>         0.0686
     21 H3         -2.5597    0.3460   -0.8883 H         1 <0>         0.0686
     22 H4         -2.1865    3.6540    0.0320 H         1 <0>         0.1341
     23 H5         -0.0897    4.9340    0.0207 H         1 <0>         0.1378
     24 H6          0.0020   -0.0043   -0.0009 H         1 <0>         0.1238
     25 H7          1.5633   -0.8375    0.0679 H         1 <0>         0.4445
     26 H8          2.7980   -2.8868   -0.2482 H         1 <0>         0.1361
     27 H9          4.9736   -4.0632   -0.4687 H         1 <0>         0.1396
     28 H10         7.0632   -2.7160   -0.4641 H         1 <0>         0.1364
     29 H11         7.0215    1.0281   -0.1483 H         1 <0>         0.0814
     30 H12         7.8225   -0.1930   -1.1943 H         1 <0>         0.0801
     31 H13         7.9147   -0.3426    0.5934 H         1 <0>         0.0801
     32 H14         3.2809    3.3720   -0.0142 H         1 <0>         0.4464
@<TRIPOS>BOND
     1    1    2 1
     2    1   19 1
     3    1   20 1
     4    1   21 1
     5    2    7 ar
     6    2    3 ar
     7    3    4 ar
     8    3   22 1
     9    4    5 ar
    10    4   23 1
    11    5    6 ar
    12    5   18 1
    13    6    7 ar
    14    6    8 1
    15    7   24 1
    16    8    9 2
    17    8   10 am
    18   10   11 1
    19   10   25 1
    20   11   16 ar
    21   11   12 ar
    22   12   13 ar
    23   12   26 1
    24   13   14 ar
    25   13   27 1
    26   14   15 ar
    27   14   28 1
    28   15   16 ar
    29   15   17 1
    30   17   29 1
    31   17   30 1
    32   17   31 1
    33   18   32 1
@<TRIPOS>MOLECULE
ZINC01037295
   43    46     0     0     0
SMALL
USER_CHARGES
2-chloro-N-(2,5-diphenylpyrazol-3-yl)-benzamide
@<TRIPOS>ATOM
      1 C1         -1.5852    8.9655   -1.8070 C.ar      1 <0>        -0.1086
      2 C2         -2.0298    7.6955   -2.1276 C.ar      1 <0>        -0.1234
      3 C3         -1.3459    6.5866   -1.6719 C.ar      1 <0>        -0.0892
      4 C4         -0.2056    6.7483   -0.8876 C.ar      1 <0>        -0.0207
      5 C5          0.2345    8.0299   -0.5629 C.ar      1 <0>        -0.0887
      6 C6         -0.4535    9.1318   -1.0291 C.ar      1 <0>        -0.1213
      7 C7          0.5338    5.5599   -0.3948 C.2       1 <0>         0.1374
      8 C8          1.6945    5.5816    0.4014 C.2       1 <0>        -0.2510
      9 C9          2.0580    4.2942    0.6414 C.2       1 <0>         0.3122
     10 N1          1.1616    3.4868    0.0092 N.pl3     1 <0>        -0.3391
     11 N2          0.2181    4.3030   -0.6274 N.2       1 <0>        -0.2686
     12 C10         1.1772    2.0861    0.0020 C.ar      1 <0>         0.1567
     13 C11        -0.0167    1.3769    0.0096 C.ar      1 <0>        -0.1091
     14 C12         0.0021   -0.0041    0.0020 C.ar      1 <0>        -0.0924
     15 C13         1.2080   -0.6806   -0.0131 C.ar      1 <0>        -0.1220
     16 C14         2.3987    0.0227   -0.0207 C.ar      1 <0>        -0.0908
     17 C15         2.3866    1.4038   -0.0132 C.ar      1 <0>        -0.1532
     18 N3          3.1528    3.8758    1.3955 N.am      1 <0>        -0.6475
     19 C16         3.9634    4.7867    1.9695 C.2       1 <0>         0.5624
     20 O1          3.7396    5.9735    1.8295 O.2       1 <0>        -0.4741
     21 C17         5.1239    4.3431    2.7688 C.ar      1 <0>        -0.1325
     22 C18         5.3806    2.9808    2.9366 C.ar      1 <0>        -0.0756
     23 C19         6.4683    2.5735    3.6800 C.ar      1 <0>        -0.1206
     24 C20         7.2994    3.5110    4.2685 C.ar      1 <0>        -0.0733
     25 C21         7.0493    4.8618    4.1118 C.ar      1 <0>        -0.1178
     26 C22         5.9664    5.2846    3.3654 C.ar      1 <0>         0.0196
     27 Cl1         5.6530    6.9808    3.1697 Cl        1 <0>        -0.0229
     28 H1         -2.1233    9.8304   -2.1657 H         1 <0>         0.1246
     29 H2         -2.9140    7.5714   -2.7352 H         1 <0>         0.1260
     30 H3         -1.6938    5.5955   -1.9230 H         1 <0>         0.1285
     31 H4          1.1152    8.1608    0.0484 H         1 <0>         0.1303
     32 H5         -0.1107   10.1256   -0.7818 H         1 <0>         0.1276
     33 H6          2.2026    6.4640    0.7615 H         1 <0>         0.1834
     34 H7         -0.9589    1.9047    0.0169 H         1 <0>         0.1366
     35 H8         -0.9261   -0.5562    0.0076 H         1 <0>         0.1355
     36 H9          1.2201   -1.7605   -0.0187 H         1 <0>         0.1326
     37 H10         3.3389   -0.5085   -0.0322 H         1 <0>         0.1359
     38 H11         3.3168    1.9525   -0.0191 H         1 <0>         0.1246
     39 H12         3.3313    2.9289    1.5072 H         1 <0>         0.4109
     40 H13         4.7308    2.2477    2.4819 H         1 <0>         0.1311
     41 H14         6.6697    1.5201    3.8070 H         1 <0>         0.1400
     42 H15         8.1471    3.1858    4.8533 H         1 <0>         0.1417
     43 H16         7.7016    5.5879    4.5740 H         1 <0>         0.1451
@<TRIPOS>BOND
     1    1    6 ar
     2    1    2 ar
     3    1   28 1
     4    2    3 ar
     5    2   29 1
     6    3    4 ar
     7    3   30 1
     8    4    5 ar
     9    4    7 1
    10    5    6 ar
    11    5   31 1
    12    6   32 1
    13    7   11 2
    14    7    8 1
    15    8    9 2
    16    8   33 1
    17    9   10 1
    18    9   18 1
    19   10   11 1
    20   10   12 1
    21   12   17 ar
    22   12   13 ar
    23   13   14 ar
    24   13   34 1
    25   14   15 ar
    26   14   35 1
    27   15   16 ar
    28   15   36 1
    29   16   17 ar
    30   16   37 1
    31   17   38 1
    32   18   19 am
    33   18   39 1
    34   19   20 2
    35   19   21 1
    36   21   26 ar
    37   21   22 ar
    38   22   23 ar
    39   22   40 1
    40   23   24 ar
    41   23   41 1
    42   24   25 ar
    43   24   42 1
    44   25   26 ar
    45   25   43 1
    46   26   27 1
@<TRIPOS>MOLECULE
ZINC13584924
   41    44     0     0     0
SMALL
USER_CHARGES
N-(2,5-diphenylpyrazol-3-yl)pyrazine-2-carboxamide
@<TRIPOS>ATOM
      1 C1          5.1747    0.6611   -0.0422 C.ar      1 <0>        -0.1085
      2 C2          4.8719    2.0107   -0.0329 C.ar      1 <0>        -0.1232
      3 C3          3.5555    2.4251   -0.0185 C.ar      1 <0>        -0.0890
      4 C4          2.5306    1.4810   -0.0137 C.ar      1 <0>        -0.0210
      5 C5          2.8415    0.1227   -0.0178 C.ar      1 <0>        -0.0892
      6 C6          4.1614   -0.2804   -0.0380 C.ar      1 <0>        -0.1213
      7 C7          1.1134    1.9205    0.0017 C.2       1 <0>         0.1368
      8 C8         -0.0126    1.0758    0.0080 C.2       1 <0>        -0.2508
      9 C9         -1.1216    1.8616    0.0168 C.2       1 <0>         0.3077
     10 N1         -0.7085    3.1595    0.0258 N.pl3     1 <0>        -0.3360
     11 N2          0.6920    3.1679    0.0125 N.2       1 <0>        -0.2657
     12 C10        -1.5387    4.2878    0.0398 C.ar      1 <0>         0.1526
     13 C11        -2.7476    4.2706   -0.6432 C.ar      1 <0>        -0.1471
     14 C12        -3.5665    5.3826   -0.6228 C.ar      1 <0>        -0.0894
     15 C13        -3.1784    6.5163    0.0675 C.ar      1 <0>        -0.1210
     16 C14        -1.9724    6.5385    0.7439 C.ar      1 <0>        -0.0941
     17 C15        -1.1517    5.4278    0.7320 C.ar      1 <0>        -0.1082
     18 N3         -2.4428    1.4191    0.0199 N.am      1 <0>        -0.6326
     19 C16        -2.7111    0.0983    0.0143 C.2       1 <0>         0.5874
     20 O1         -1.8006   -0.7068    0.0066 O.2       1 <0>        -0.4862
     21 C17        -4.1154   -0.3720    0.0175 C.ar      1 <0>         0.0231
     22 C18        -4.3955   -1.7383    0.0117 C.ar      1 <0>         0.1220
     23 N4         -5.6495   -2.1527    0.0151 N.ar      1 <0>        -0.4350
     24 C19        -6.6370   -1.2747    0.0239 C.ar      1 <0>         0.0851
     25 C20        -6.3619    0.0849    0.0302 C.ar      1 <0>         0.0546
     26 N5         -5.1134    0.5073    0.0315 N.ar      1 <0>        -0.4151
     27 H1          6.2062    0.3412   -0.0531 H         1 <0>         0.1247
     28 H2          5.6670    2.7416   -0.0366 H         1 <0>         0.1262
     29 H3          3.3201    3.4791   -0.0113 H         1 <0>         0.1287
     30 H4          2.0511   -0.6132   -0.0093 H         1 <0>         0.1305
     31 H5          4.4034   -1.3329   -0.0456 H         1 <0>         0.1280
     32 H6          0.0021   -0.0041    0.0020 H         1 <0>         0.1829
     33 H7         -3.0493    3.3870   -1.1861 H         1 <0>         0.1256
     34 H8         -4.5091    5.3681   -1.1498 H         1 <0>         0.1359
     35 H9         -3.8186    7.3860    0.0786 H         1 <0>         0.1325
     36 H10        -1.6719    7.4255    1.2817 H         1 <0>         0.1353
     37 H11        -0.2102    5.4456    1.2607 H         1 <0>         0.1364
     38 H12        -3.1694    2.0616    0.0260 H         1 <0>         0.4236
     39 H13        -3.5885   -2.4560    0.0041 H         1 <0>         0.1877
     40 H14        -7.6615   -1.6167    0.0267 H         1 <0>         0.1826
     41 H15        -7.1724    0.7988    0.0381 H         1 <0>         0.1835
@<TRIPOS>BOND
     1    1    6 ar
     2    1    2 ar
     3    1   27 1
     4    2    3 ar
     5    2   28 1
     6    3    4 ar
     7    3   29 1
     8    4    5 ar
     9    4    7 1
    10    5    6 ar
    11    5   30 1
    12    6   31 1
    13    7   11 2
    14    7    8 1
    15    8    9 2
    16    8   32 1
    17    9   10 1
    18    9   18 1
    19   10   11 1
    20   10   12 1
    21   12   17 ar
    22   12   13 ar
    23   13   14 ar
    24   13   33 1
    25   14   15 ar
    26   14   34 1
    27   15   16 ar
    28   15   35 1
    29   16   17 ar
    30   16   36 1
    31   17   37 1
    32   18   19 am
    33   18   38 1
    34   19   20 2
    35   19   21 1
    36   21   26 ar
    37   21   22 ar
    38   22   23 ar
    39   22   39 1
    40   23   24 ar
    41   24   25 ar
    42   24   40 1
    43   25   26 ar
    44   25   41 1
@<TRIPOS>MOLECULE
ZINC03986698
   44    47     0     0     0
SMALL
USER_CHARGES
3-cyano-N-(2,5-diphenylpyrazol-3-yl)-benzamide
@<TRIPOS>ATOM
      1 C1         -2.0688   12.9787    0.0814 C.ar      1 <0>        -0.1082
      2 C2         -0.6937   13.1278    0.0691 C.ar      1 <0>        -0.1233
      3 C3          0.1234   12.0156    0.0563 C.ar      1 <0>        -0.0890
      4 C4         -0.4393   10.7408    0.0563 C.ar      1 <0>        -0.0217
      5 C5         -1.8252   10.5966    0.0638 C.ar      1 <0>        -0.0889
      6 C6         -2.6328   11.7157    0.0814 C.ar      1 <0>        -0.1213
      7 C7          0.4342    9.5413    0.0420 C.2       1 <0>         0.1376
      8 C8         -0.0018    8.2029    0.0345 C.2       1 <0>        -0.2502
      9 C9          1.0998    7.4070    0.0262 C.2       1 <0>         0.3095
     10 N1          2.1949    8.2168    0.0191 N.pl3     1 <0>        -0.3380
     11 N2          1.7508    9.5451    0.0292 N.2       1 <0>        -0.2671
     12 C10         3.5307    7.7953    0.0047 C.ar      1 <0>         0.1554
     13 C11         3.9056    6.6474    0.6904 C.ar      1 <0>        -0.1532
     14 C12         5.2223    6.2312    0.6695 C.ar      1 <0>        -0.0907
     15 C13         6.1692    6.9626   -0.0239 C.ar      1 <0>        -0.1214
     16 C14         5.8001    8.1092   -0.7031 C.ar      1 <0>        -0.0922
     17 C15         4.4839    8.5275   -0.6908 C.ar      1 <0>        -0.1085
     18 N3          1.1075    6.0134    0.0200 N.am      1 <0>        -0.6461
     19 C16        -0.0559    5.3331    0.0284 C.2       1 <0>         0.5693
     20 O1         -1.1120    5.9351    0.0413 O.2       1 <0>        -0.4913
     21 C17        -0.0478    3.8549    0.0218 C.ar      1 <0>        -0.1347
     22 C18         1.1651    3.1615    0.0070 C.ar      1 <0>        -0.0591
     23 C19         1.1747    1.7810    0.0004 C.ar      1 <0>        -0.1197
     24 C20        -0.0126    1.0758    0.0080 C.ar      1 <0>        -0.0385
     25 C21        -1.2327    1.7564    0.0174 C.ar      1 <0>        -0.0263
     26 C22        -1.2495    3.1501    0.0300 C.ar      1 <0>        -0.0057
     27 C23        -2.4632    1.0238    0.0197 C.1       1 <0>         0.2465
     28 N4         -3.4392    0.4426    0.0216 N.1       1 <0>        -0.3971
     29 H1         -2.7045   13.8518    0.0914 H         1 <0>         0.1247
     30 H2         -0.2586   14.1163    0.0692 H         1 <0>         0.1262
     31 H3          1.1970   12.1331    0.0468 H         1 <0>         0.1287
     32 H4         -2.2665    9.6109    0.0596 H         1 <0>         0.1304
     33 H5         -3.7070   11.6050    0.0910 H         1 <0>         0.1279
     34 H6         -1.0286    7.8682    0.0375 H         1 <0>         0.1830
     35 H7          3.1673    6.0782    1.2359 H         1 <0>         0.1251
     36 H8          5.5136    5.3360    1.1987 H         1 <0>         0.1364
     37 H9          7.1990    6.6374   -0.0354 H         1 <0>         0.1327
     38 H10         6.5420    8.6785   -1.2435 H         1 <0>         0.1355
     39 H11         4.1963    9.4229   -1.2217 H         1 <0>         0.1366
     40 H12         1.9501    5.5331    0.0097 H         1 <0>         0.4127
     41 H13         2.0973    3.7067    0.0010 H         1 <0>         0.1316
     42 H14         2.1151    1.2501   -0.0111 H         1 <0>         0.1466
     43 H15         0.0021   -0.0041    0.0020 H         1 <0>         0.1437
     44 H16        -2.1898    3.6813    0.0411 H         1 <0>         0.1518
@<TRIPOS>BOND
     1    1    6 ar
     2    1    2 ar
     3    1   29 1
     4    2    3 ar
     5    2   30 1
     6    3    4 ar
     7    3   31 1
     8    4    5 ar
     9    4    7 1
    10    5    6 ar
    11    5   32 1
    12    6   33 1
    13    7   11 2
    14    7    8 1
    15    8    9 2
    16    8   34 1
    17    9   10 1
    18    9   18 1
    19   10   11 1
    20   10   12 1
    21   12   17 ar
    22   12   13 ar
    23   13   14 ar
    24   13   35 1
    25   14   15 ar
    26   14   36 1
    27   15   16 ar
    28   15   37 1
    29   16   17 ar
    30   16   38 1
    31   17   39 1
    32   18   19 am
    33   18   40 1
    34   19   20 2
    35   19   21 1
    36   21   26 ar
    37   21   22 ar
    38   22   23 ar
    39   22   41 1
    40   23   24 ar
    41   23   42 1
    42   24   25 ar
    43   24   43 1
    44   25   26 ar
    45   25   27 1
    46   26   44 1
    47   27   28 3
@<TRIPOS>MOLECULE
ZINC13584908
   43    46     0     0     0
SMALL
USER_CHARGES
3-chloro-N-(2,5-diphenylpyrazol-3-yl)benzamide
@<TRIPOS>ATOM
      1 C1         -1.5873    8.9654   -1.8039 C.ar      1 <0>        -0.1084
      2 C2         -2.0315    7.6954   -2.1251 C.ar      1 <0>        -0.1232
      3 C3         -1.3471    6.5866   -1.6702 C.ar      1 <0>        -0.0891
      4 C4         -0.2067    6.7483   -0.8860 C.ar      1 <0>        -0.0210
      5 C5          0.2330    8.0298   -0.5607 C.ar      1 <0>        -0.0891
      6 C6         -0.4556    9.1317   -1.0262 C.ar      1 <0>        -0.1213
      7 C7          0.5334    5.5599   -0.3941 C.2       1 <0>         0.1370
      8 C8          1.6937    5.5816    0.4025 C.2       1 <0>        -0.2507
      9 C9          2.0580    4.2943    0.6414 C.2       1 <0>         0.3097
     10 N1          1.1616    3.4868    0.0092 N.pl3     1 <0>        -0.3377
     11 N2          0.2181    4.3030   -0.6274 N.2       1 <0>        -0.2668
     12 C10         1.1772    2.0861    0.0020 C.ar      1 <0>         0.1549
     13 C11        -0.0167    1.3769    0.0096 C.ar      1 <0>        -0.1086
     14 C12         0.0021   -0.0041    0.0020 C.ar      1 <0>        -0.0923
     15 C13         1.2080   -0.6806   -0.0131 C.ar      1 <0>        -0.1209
     16 C14         2.3987    0.0227   -0.0207 C.ar      1 <0>        -0.0899
     17 C15         2.3866    1.4038   -0.0132 C.ar      1 <0>        -0.1527
     18 N3          3.1528    3.8758    1.3954 N.am      1 <0>        -0.6471
     19 C16         3.9634    4.7867    1.9695 C.2       1 <0>         0.5706
     20 O1          3.7396    5.9734    1.8296 O.2       1 <0>        -0.4912
     21 C17         5.1245    4.3429    2.7692 C.ar      1 <0>        -0.1232
     22 C18         5.9662    5.2840    3.3652 C.ar      1 <0>        -0.0475
     23 C19         7.0482    4.8638    4.1103 C.ar      1 <0>        -0.1090
     24 C20         7.3011    3.5127    4.2681 C.ar      1 <0>        -0.0774
     25 C21         6.4705    2.5736    3.6805 C.ar      1 <0>        -0.0413
     26 C22         5.3809    2.9813    2.9365 C.ar      1 <0>        -0.0800
     27 Cl1         6.7957    0.8807    3.8848 Cl        1 <0>        -0.0549
     28 H1         -2.1259    9.8303   -2.1620 H         1 <0>         0.1247
     29 H2         -2.9157    7.5713   -2.7327 H         1 <0>         0.1262
     30 H3         -1.6946    5.5955   -1.9219 H         1 <0>         0.1287
     31 H4          1.1138    8.1608    0.0504 H         1 <0>         0.1303
     32 H5         -0.1131   10.1256   -0.7784 H         1 <0>         0.1279
     33 H6          2.2013    6.4640    0.7633 H         1 <0>         0.1829
     34 H7         -0.9589    1.9047    0.0169 H         1 <0>         0.1368
     35 H8         -0.9261   -0.5562    0.0076 H         1 <0>         0.1357
     36 H9          1.2201   -1.7605   -0.0187 H         1 <0>         0.1329
     37 H10         3.3389   -0.5085   -0.0322 H         1 <0>         0.1363
     38 H11         3.3168    1.9525   -0.0188 H         1 <0>         0.1242
     39 H12         3.3313    2.9289    1.5071 H         1 <0>         0.4127
     40 H13         5.7701    6.3391    3.2433 H         1 <0>         0.1487
     41 H14         7.6995    5.5912    4.5719 H         1 <0>         0.1465
     42 H15         8.1497    3.1891    4.8526 H         1 <0>         0.1437
     43 H16         4.7309    2.2482    2.4820 H         1 <0>         0.1331
@<TRIPOS>BOND
     1    1    6 ar
     2    1    2 ar
     3    1   28 1
     4    2    3 ar
     5    2   29 1
     6    3    4 ar
     7    3   30 1
     8    4    5 ar
     9    4    7 1
    10    5    6 ar
    11    5   31 1
    12    6   32 1
    13    7   11 2
    14    7    8 1
    15    8    9 2
    16    8   33 1
    17    9   10 1
    18    9   18 1
    19   10   11 1
    20   10   12 1
    21   12   17 ar
    22   12   13 ar
    23   13   14 ar
    24   13   34 1
    25   14   15 ar
    26   14   35 1
    27   15   16 ar
    28   15   36 1
    29   16   17 ar
    30   16   37 1
    31   17   38 1
    32   18   19 am
    33   18   39 1
    34   19   20 2
    35   19   21 1
    36   21   26 ar
    37   21   22 ar
    38   22   23 ar
    39   22   40 1
    40   23   24 ar
    41   23   41 1
    42   24   25 ar
    43   24   42 1
    44   25   26 ar
    45   25   27 1
    46   26   43 1
@<TRIPOS>MOLECULE
ZINC03185886
   43    46     0     0     0
SMALL
USER_CHARGES
N-(2,5-diphenylpyrazol-3-yl)benzamide
@<TRIPOS>ATOM
      1 C1          5.1748    0.6612   -0.0427 C.ar      1 <0>        -0.1086
      2 C2          4.8719    2.0108   -0.0329 C.ar      1 <0>        -0.1233
      3 C3          3.5555    2.4252   -0.0185 C.ar      1 <0>        -0.0892
      4 C4          2.5307    1.4811   -0.0137 C.ar      1 <0>        -0.0208
      5 C5          2.8416    0.1228   -0.0178 C.ar      1 <0>        -0.0891
      6 C6          4.1615   -0.2803   -0.0380 C.ar      1 <0>        -0.1213
      7 C7          1.1134    1.9205    0.0017 C.2       1 <0>         0.1372
      8 C8         -0.0126    1.0758    0.0080 C.2       1 <0>        -0.2523
      9 C9         -1.1215    1.8615    0.0168 C.2       1 <0>         0.3110
     10 N1         -0.7085    3.1594    0.0258 N.pl3     1 <0>        -0.3388
     11 N2          0.6920    3.1679    0.0125 N.2       1 <0>        -0.2685
     12 C10        -1.5387    4.2876    0.0398 C.ar      1 <0>         0.1561
     13 C11        -2.7477    4.2704   -0.6432 C.ar      1 <0>        -0.1530
     14 C12        -3.5666    5.3824   -0.6227 C.ar      1 <0>        -0.0906
     15 C13        -3.1785    6.5160    0.0675 C.ar      1 <0>        -0.1218
     16 C14        -1.9726    6.5383    0.7440 C.ar      1 <0>        -0.0924
     17 C15        -1.1519    5.4276    0.7320 C.ar      1 <0>        -0.1089
     18 N3         -2.4429    1.4189    0.0193 N.am      1 <0>        -0.6480
     19 C16        -2.7112    0.0981    0.0130 C.2       1 <0>         0.5683
     20 O1         -1.8005   -0.7071    0.0052 O.2       1 <0>        -0.4962
     21 C17        -4.1128   -0.3713    0.0155 C.ar      1 <0>        -0.1375
     22 C18        -5.1609    0.5507    0.0303 C.ar      1 <0>        -0.0873
     23 C19        -6.4667    0.1059    0.0273 C.ar      1 <0>        -0.1240
     24 C20        -6.7387   -1.2508    0.0209 C.ar      1 <0>        -0.0860
     25 C21        -5.7045   -2.1699    0.0120 C.ar      1 <0>        -0.1244
     26 C22        -4.3942   -1.7385    0.0090 C.ar      1 <0>        -0.0521
     27 H1          6.2063    0.3414   -0.0543 H         1 <0>         0.1247
     28 H2          5.6670    2.7417   -0.0363 H         1 <0>         0.1262
     29 H3          3.3201    3.4792   -0.0113 H         1 <0>         0.1286
     30 H4          2.0512   -0.6132   -0.0096 H         1 <0>         0.1303
     31 H5          4.4035   -1.3328   -0.0456 H         1 <0>         0.1279
     32 H6          0.0021   -0.0041    0.0020 H         1 <0>         0.1827
     33 H7         -3.0493    3.3869   -1.1861 H         1 <0>         0.1246
     34 H8         -4.5092    5.3679   -1.1497 H         1 <0>         0.1360
     35 H9         -3.8188    7.3857    0.0787 H         1 <0>         0.1327
     36 H10        -1.6721    7.4254    1.2818 H         1 <0>         0.1356
     37 H11        -0.2103    5.4455    1.2608 H         1 <0>         0.1366
     38 H12        -3.1696    2.0614    0.0255 H         1 <0>         0.4124
     39 H13        -4.9499    1.6098    0.0395 H         1 <0>         0.1222
     40 H14        -7.2785    0.8181    0.0346 H         1 <0>         0.1331
     41 H15        -7.7627   -1.5938    0.0224 H         1 <0>         0.1318
     42 H16        -5.9236   -3.2275    0.0069 H         1 <0>         0.1351
     43 H17        -3.5879   -2.4570    0.0021 H         1 <0>         0.1408
@<TRIPOS>BOND
     1    1    6 ar
     2    1    2 ar
     3    1   27 1
     4    2    3 ar
     5    2   28 1
     6    3    4 ar
     7    3   29 1
     8    4    5 ar
     9    4    7 1
    10    5    6 ar
    11    5   30 1
    12    6   31 1
    13    7   11 2
    14    7    8 1
    15    8    9 2
    16    8   32 1
    17    9   10 1
    18    9   18 1
    19   10   11 1
    20   10   12 1
    21   12   17 ar
    22   12   13 ar
    23   13   14 ar
    24   13   33 1
    25   14   15 ar
    26   14   34 1
    27   15   16 ar
    28   15   35 1
    29   16   17 ar
    30   16   36 1
    31   17   37 1
    32   18   19 am
    33   18   38 1
    34   19   20 2
    35   19   21 1
    36   21   26 ar
    37   21   22 ar
    38   22   23 ar
    39   22   39 1
    40   23   24 ar
    41   23   40 1
    42   24   25 ar
    43   24   41 1
    44   25   26 ar
    45   25   42 1
    46   26   43 1
@<TRIPOS>MOLECULE
ZINC08449876
   56    59     0     0     0
SMALL
USER_CHARGES

@<TRIPOS>ATOM
      1 C1         -0.0184    1.5028    0.0103 C.3       1 <0>        -0.1250
      2 C2          0.0021   -0.0041    0.0020 C.ar      1 <0>        -0.0495
      3 C3          0.0056   -0.6859   -1.2026 C.ar      1 <0>        -0.1278
      4 C4          0.0243   -2.0644   -1.2186 C.ar      1 <0>        -0.0762
      5 C5          0.0396   -2.7739   -0.0133 C.ar      1 <0>        -0.1707
      6 C6          0.0359   -2.0777    1.1995 C.ar      1 <0>        -0.0523
      7 C7          0.0229   -0.6987    1.1987 C.ar      1 <0>        -0.0981
      8 C8          0.0250    0.0537    2.5044 C.3       1 <0>        -0.1188
      9 C9          0.0591   -4.2454   -0.0214 C.2       1 <0>         0.3997
     10 O1          0.0724   -4.8573    1.0254 O.2       1 <0>        -0.4263
     11 C10         0.0626   -4.9917   -1.3306 C.3       1 <0>         0.0213
     12 O2          0.0825   -6.3979   -1.0772 O.3       1 <0>        -0.3299
     13 C11         0.0880   -7.2128   -2.1503 C.2       1 <0>         0.5130
     14 O3          0.0762   -6.7424   -3.2704 O.2       1 <0>        -0.5002
     15 C12         0.1083   -8.6761   -1.9651 C.ar      1 <0>        -0.1384
     16 C13         0.1161   -9.2193   -0.6772 C.ar      1 <0>        -0.0338
     17 C14         0.1351  -10.5857   -0.5083 C.ar      1 <0>        -0.1561
     18 C15         0.1465  -11.4250   -1.6171 C.ar      1 <0>         0.1590
     19 C16         0.1389  -10.8883   -2.9001 C.ar      1 <0>        -0.1553
     20 C17         0.1141   -9.5231   -3.0770 C.ar      1 <0>        -0.0273
     21 N1          0.1663  -12.8116   -1.4416 N.am      1 <0>        -0.5365
     22 C18         0.1695  -13.4096   -0.2195 C.2       1 <0>         0.5470
     23 O4         -0.0564  -12.8851    0.8498 O.2       1 <0>        -0.4379
     24 C19         0.5084  -14.8459   -0.4640 C.3       1 <0>        -0.1328
     25 H1          1.5902  -14.9699   -0.5126 H         1 <0>         0.1369
     26 C20        -0.0940  -15.9132    0.4236 C.3       1 <0>        -0.0892
     27 C21         0.4191  -17.2626   -0.1181 C.3       1 <0>        -0.0548
     28 H2          1.5039  -17.2962   -0.0169 H         1 <0>         0.1226
     29 C22         0.0508  -17.4634   -1.5840 C.3       1 <0>        -0.0535
     30 H3         -1.0303  -17.5766   -1.6651 H         1 <0>         0.1224
     31 C23         0.4969  -16.2790   -2.4613 C.3       1 <0>        -0.0902
     32 C24        -0.1137  -15.0336   -1.8799 C.3       1 <0>        -0.1336
     33 H4         -1.1912  -15.1746   -1.7953 H         1 <0>         0.1352
     34 C25         0.1784  -13.6951   -2.4762 C.2       1 <0>         0.5492
     35 O5          0.3866  -13.4478   -3.6445 O.2       1 <0>        -0.4391
     36 Br1         0.9150  -19.1026   -2.2407 Br        1 <0>        -0.1174
     37 Br2        -0.3677  -18.7189    0.9426 Br        1 <0>        -0.1180
     38 H5          1.0042    1.8801    0.0026 H         1 <0>         0.0777
     39 H6         -0.5455    1.8639   -0.8728 H         1 <0>         0.0717
     40 H7         -0.5286    1.8543    0.9071 H         1 <0>         0.0739
     41 H8         -0.0066   -0.1367   -2.1325 H         1 <0>         0.1322
     42 H9          0.0267   -2.5950   -2.1593 H         1 <0>         0.1325
     43 H10         0.0474   -2.6186    2.1342 H         1 <0>         0.1361
     44 H11        -1.0020    0.2211    2.8290 H         1 <0>         0.0742
     45 H12         0.5540   -0.5290    3.2586 H         1 <0>         0.0700
     46 H13         0.5246    1.0131    2.3701 H         1 <0>         0.0723
     47 H14        -0.8337   -4.7371   -1.8963 H         1 <0>         0.1070
     48 H15         0.9461   -4.7135   -1.9051 H         1 <0>         0.1070
     49 H16         0.1075   -8.5681    0.1844 H         1 <0>         0.1504
     50 H17         0.1414  -11.0061    0.4865 H         1 <0>         0.1618
     51 H18         0.1478  -11.5433   -3.7587 H         1 <0>         0.1629
     52 H19         0.1032   -9.1071   -4.0736 H         1 <0>         0.1481
     53 H20         0.2347  -15.7735    1.4534 H         1 <0>         0.1078
     54 H21        -1.1820  -15.8765    0.3680 H         1 <0>         0.0956
     55 H22         1.5831  -16.1902   -2.4435 H         1 <0>         0.0939
     56 H23         0.1501  -16.4217   -3.4847 H         1 <0>         0.1072
@<TRIPOS>BOND
     1    1    2 1
     2    1   38 1
     3    1   39 1
     4    1   40 1
     5    2    7 ar
     6    2    3 ar
     7    3    4 ar
     8    3   41 1
     9    4    5 ar
    10    4   42 1
    11    5    6 ar
    12    5    9 1
    13    6    7 ar
    14    6   43 1
    15    7    8 1
    16    8   44 1
    17    8   45 1
    18    8   46 1
    19    9   10 2
    20    9   11 1
    21   11   12 1
    22   11   47 1
    23   11   48 1
    24   12   13 1
    25   13   14 2
    26   13   15 1
    27   15   20 ar
    28   15   16 ar
    29   16   17 ar
    30   16   49 1
    31   17   18 ar
    32   17   50 1
    33   18   19 ar
    34   18   21 1
    35   19   20 ar
    36   19   51 1
    37   20   52 1
    38   21   34 am
    39   21   22 am
    40   22   23 2
    41   22   24 1
    42   24   25 1
    43   24   32 1
    44   24   26 1
    45   26   27 1
    46   26   53 1
    47   26   54 1
    48   27   28 1
    49   27   29 1
    50   27   37 1
    51   29   30 1
    52   29   31 1
    53   29   36 1
    54   31   32 1
    55   31   55 1
    56   31   56 1
    57   32   33 1
    58   32   34 1
    59   34   35 2
@<TRIPOS>MOLECULE
ZINC17779250
   56    59     0     0     0
SMALL
USER_CHARGES

@<TRIPOS>ATOM
      1 C1         -0.0184    1.5028    0.0103 C.3       1 <0>        -0.1250
      2 C2          0.0021   -0.0041    0.0020 C.ar      1 <0>        -0.0496
      3 C3          0.0056   -0.6859   -1.2026 C.ar      1 <0>        -0.1278
      4 C4          0.0243   -2.0644   -1.2186 C.ar      1 <0>        -0.0762
      5 C5          0.0396   -2.7739   -0.0133 C.ar      1 <0>        -0.1706
      6 C6          0.0359   -2.0777    1.1995 C.ar      1 <0>        -0.0523
      7 C7          0.0229   -0.6987    1.1987 C.ar      1 <0>        -0.0982
      8 C8          0.0250    0.0537    2.5044 C.3       1 <0>        -0.1188
      9 C9          0.0591   -4.2454   -0.0214 C.2       1 <0>         0.3997
     10 O1          0.0724   -4.8573    1.0254 O.2       1 <0>        -0.4262
     11 C10         0.0626   -4.9917   -1.3306 C.3       1 <0>         0.0213
     12 O2          0.0825   -6.3979   -1.0772 O.3       1 <0>        -0.3299
     13 C11         0.0880   -7.2128   -2.1503 C.2       1 <0>         0.5132
     14 O3          0.0762   -6.7424   -3.2704 O.2       1 <0>        -0.5004
     15 C12         0.1083   -8.6761   -1.9651 C.ar      1 <0>        -0.1391
     16 C13         0.1161   -9.2193   -0.6772 C.ar      1 <0>        -0.0337
     17 C14         0.1351  -10.5857   -0.5083 C.ar      1 <0>        -0.1565
     18 C15         0.1465  -11.4250   -1.6171 C.ar      1 <0>         0.1598
     19 C16         0.1389  -10.8883   -2.9001 C.ar      1 <0>        -0.1556
     20 C17         0.1141   -9.5231   -3.0770 C.ar      1 <0>        -0.0273
     21 N1          0.1663  -12.8116   -1.4416 N.am      1 <0>        -0.5366
     22 C18         0.1695  -13.4096   -0.2195 C.2       1 <0>         0.5477
     23 O4         -0.0558  -12.8852    0.8500 O.2       1 <0>        -0.4384
     24 C19         0.5070  -14.8456   -0.4645 C.3       1 <0>        -0.1305
     25 H1          1.5889  -14.9679   -0.5160 H         1 <0>         0.1350
     26 C20        -0.0884  -15.9162    0.4189 C.3       1 <0>        -0.0972
     27 C21         0.4069  -17.2678   -0.1281 C.3       1 <0>        -0.0553
     28 H2          1.4900  -17.3190   -0.0174 H         1 <0>         0.1274
     29 C22         0.0498  -17.4576   -1.5983 C.3       1 <0>        -0.0547
     30 H3          0.5183  -18.3721   -1.9620 H         1 <0>         0.1295
     31 C23         0.5246  -16.2722   -2.4626 C.3       1 <0>        -0.0899
     32 C24        -0.1150  -15.0341   -1.8803 C.3       1 <0>        -0.1456
     33 H4         -1.1915  -15.1842   -1.7977 H         1 <0>         0.1418
     34 C25         0.1784  -13.6951   -2.4761 C.2       1 <0>         0.5495
     35 O5          0.3869  -13.4476   -3.6443 O.2       1 <0>        -0.4409
     36 Br1        -1.9016  -17.6282   -1.7661 Br        1 <0>        -0.1222
     37 Br2        -0.4106  -18.7181    0.9176 Br        1 <0>        -0.1153
     38 H5          1.0042    1.8801    0.0026 H         1 <0>         0.0777
     39 H6         -0.5455    1.8639   -0.8728 H         1 <0>         0.0717
     40 H7         -0.5286    1.8543    0.9071 H         1 <0>         0.0738
     41 H8         -0.0066   -0.1367   -2.1325 H         1 <0>         0.1322
     42 H9          0.0267   -2.5950   -2.1593 H         1 <0>         0.1326
     43 H10         0.0474   -2.6186    2.1342 H         1 <0>         0.1361
     44 H11        -1.0020    0.2211    2.8290 H         1 <0>         0.0742
     45 H12         0.5540   -0.5290    3.2586 H         1 <0>         0.0700
     46 H13         0.5246    1.0131    2.3701 H         1 <0>         0.0723
     47 H14        -0.8337   -4.7371   -1.8963 H         1 <0>         0.1069
     48 H15         0.9461   -4.7135   -1.9051 H         1 <0>         0.1069
     49 H16         0.1075   -8.5681    0.1844 H         1 <0>         0.1502
     50 H17         0.1414  -11.0061    0.4865 H         1 <0>         0.1619
     51 H18         0.1478  -11.5433   -3.7587 H         1 <0>         0.1629
     52 H19         0.1032   -9.1071   -4.0736 H         1 <0>         0.1479
     53 H20         0.2507  -15.7830    1.4463 H         1 <0>         0.1057
     54 H21        -1.1766  -15.8727    0.3757 H         1 <0>         0.0982
     55 H22         1.6100  -16.1847   -2.4147 H         1 <0>         0.1001
     56 H23         0.2037  -16.4093   -3.4952 H         1 <0>         0.1074
@<TRIPOS>BOND
     1    1    2 1
     2    1   38 1
     3    1   39 1
     4    1   40 1
     5    2    7 ar
     6    2    3 ar
     7    3    4 ar
     8    3   41 1
     9    4    5 ar
    10    4   42 1
    11    5    6 ar
    12    5    9 1
    13    6    7 ar
    14    6   43 1
    15    7    8 1
    16    8   44 1
    17    8   45 1
    18    8   46 1
    19    9   10 2
    20    9   11 1
    21   11   12 1
    22   11   47 1
    23   11   48 1
    24   12   13 1
    25   13   14 2
    26   13   15 1
    27   15   20 ar
    28   15   16 ar
    29   16   17 ar
    30   16   49 1
    31   17   18 ar
    32   17   50 1
    33   18   19 ar
    34   18   21 1
    35   19   20 ar
    36   19   51 1
    37   20   52 1
    38   21   34 am
    39   21   22 am
    40   22   23 2
    41   22   24 1
    42   24   25 1
    43   24   32 1
    44   24   26 1
    45   26   27 1
    46   26   53 1
    47   26   54 1
    48   27   28 1
    49   27   29 1
    50   27   37 1
    51   29   30 1
    52   29   31 1
    53   29   36 1
    54   31   32 1
    55   31   55 1
    56   31   56 1
    57   32   33 1
    58   32   34 1
    59   34   35 2
@<TRIPOS>MOLECULE
ZINC18258072
   56    59     0     0     0
SMALL
USER_CHARGES
[2-(3,4-dimethylphenyl)-2-oxo-ethyl] 4-[(3aS,5R,6S,7aR)-5,6-dibromo-1,3-dioxo-3a,4,5,6,7,7a-hexahydroisoindol-2-yl]benzoate
@<TRIPOS>ATOM
      1 C1          2.4869    1.0395   -0.1397 C.3       1 <0>        -0.1265
      2 C2          1.1753    1.7812   -0.1157 C.ar      1 <0>        -0.0493
      3 C3         -0.0140    1.0751   -0.0592 C.ar      1 <0>        -0.1272
      4 C4         -1.2182    1.7462   -0.0426 C.ar      1 <0>        -0.0765
      5 C5         -1.2357    3.1445   -0.0719 C.ar      1 <0>        -0.1711
      6 C6         -0.0300    3.8506   -0.1289 C.ar      1 <0>        -0.0513
      7 C7          1.1661    3.1646   -0.1506 C.ar      1 <0>        -0.0982
      8 C8          2.4667    3.9234   -0.2120 C.3       1 <0>        -0.1202
      9 C9         -2.5166    3.8689   -0.0479 C.2       1 <0>         0.3983
     10 O1         -2.5283    5.0810   -0.0776 O.2       1 <0>        -0.4251
     11 C10        -3.8136    3.1041    0.0135 C.3       1 <0>         0.0362
     12 O2         -4.9257    4.0376    0.0268 O.3       1 <0>        -0.3341
     13 C11        -6.1652    3.5117    0.0804 C.2       1 <0>         0.5129
     14 O3         -6.3126    2.3062    0.1152 O.2       1 <0>        -0.4978
     15 C12        -7.3430    4.3997    0.0970 C.ar      1 <0>        -0.1169
     16 C13        -7.1751    5.7869    0.0629 C.ar      1 <0>        -0.0452
     17 C14        -8.2772    6.6123    0.0717 C.ar      1 <0>        -0.1141
     18 C15        -9.5556    6.0677    0.1275 C.ar      1 <0>         0.1484
     19 C16        -9.7265    4.6881    0.1679 C.ar      1 <0>        -0.1105
     20 C17        -8.6295    3.8561    0.1526 C.ar      1 <0>        -0.0385
     21 N1        -10.6717    6.9091    0.1427 N.am      1 <0>        -0.5335
     22 C18       -10.9566    7.7233    1.1730 C.2       1 <0>         0.5367
     23 O4        -10.3394    7.7975    2.2136 O.2       1 <0>        -0.4475
     24 C19       -12.1767    8.5274    0.8089 C.3       1 <0>        -0.1220
     25 H1        -11.7995    9.5112    0.5297 H         1 <0>         0.1263
     26 C20       -13.1256    8.7553    1.9309 C.3       1 <0>        -0.0989
     27 C21       -14.2995    7.8068    1.9999 C.3       1 <0>        -0.0506
     28 H2        -15.0434    8.2119    2.6859 H         1 <0>         0.1296
     29 C22       -14.9395    7.6031    0.6422 C.3       1 <0>        -0.0456
     30 H3        -15.3657    8.5488    0.3072 H         1 <0>         0.1282
     31 C23       -13.9528    7.1215   -0.3904 C.3       1 <0>        -0.1126
     32 C24       -12.6768    7.9234   -0.4839 C.3       1 <0>        -0.0974
     33 H4        -12.7843    8.7024   -1.2387 H         1 <0>         0.1348
     34 C25       -11.5454    6.9763   -0.8717 C.2       1 <0>         0.5309
     35 O5        -11.4529    6.3803   -1.9232 O.2       1 <0>        -0.4531
     36 Br1       -16.3827    6.2788    0.8105 Br        1 <0>        -0.1169
     37 Br2       -13.6800    6.0696    2.6807 Br        1 <0>        -0.1298
     38 H5          2.7697    0.8349   -1.1723 H         1 <0>         0.0781
     39 H6          3.2571    1.6480    0.3342 H         1 <0>         0.0758
     40 H7          2.3825    0.0992    0.4016 H         1 <0>         0.0712
     41 H8          0.0013   -0.0045   -0.0325 H         1 <0>         0.1324
     42 H9         -2.1454    1.1938   -0.0027 H         1 <0>         0.1323
     43 H10        -0.0356    4.9302   -0.1562 H         1 <0>         0.1363
     44 H11         2.7470    4.0802   -1.2536 H         1 <0>         0.0745
     45 H12         2.3481    4.8880    0.2815 H         1 <0>         0.0695
     46 H13         3.2455    3.3508    0.2916 H         1 <0>         0.0742
     47 H14        -3.8876    2.5087   -0.7865 H         1 <0>         0.0961
     48 H15        -3.8362    2.4992    0.9200 H         1 <0>         0.1095
     49 H16        -6.1825    6.2107    0.0244 H         1 <0>         0.1519
     50 H17        -8.1485    7.6842    0.0402 H         1 <0>         0.1377
     51 H18       -10.7208    4.2688    0.2108 H         1 <0>         0.1388
     52 H19        -8.7630    2.7848    0.1839 H         1 <0>         0.1495
     53 H20       -12.5715    8.6807    2.8666 H         1 <0>         0.1064
     54 H21       -13.5150    9.7699    1.8474 H         1 <0>         0.1032
     55 H22       -13.6924    6.0884   -0.1601 H         1 <0>         0.0875
     56 H23       -14.4406    7.1384   -1.3650 H         1 <0>         0.1031
@<TRIPOS>BOND
     1    1    2 1
     2    1   38 1
     3    1   39 1
     4    1   40 1
     5    2    7 ar
     6    2    3 ar
     7    3    4 ar
     8    3   41 1
     9    4    5 ar
    10    4   42 1
    11    5    6 ar
    12    5    9 1
    13    6    7 ar
    14    6   43 1
    15    7    8 1
    16    8   44 1
    17    8   45 1
    18    8   46 1
    19    9   10 2
    20    9   11 1
    21   11   12 1
    22   11   47 1
    23   11   48 1
    24   12   13 1
    25   13   14 2
    26   13   15 1
    27   15   20 ar
    28   15   16 ar
    29   16   17 ar
    30   16   49 1
    31   17   18 ar
    32   17   50 1
    33   18   19 ar
    34   18   21 1
    35   19   20 ar
    36   19   51 1
    37   20   52 1
    38   21   34 am
    39   21   22 am
    40   22   23 2
    41   22   24 1
    42   24   25 1
    43   24   32 1
    44   24   26 1
    45   26   27 1
    46   26   53 1
    47   26   54 1
    48   27   28 1
    49   27   29 1
    50   27   37 1
    51   29   30 1
    52   29   31 1
    53   29   36 1
    54   31   32 1
    55   31   55 1
    56   31   56 1
    57   32   33 1
    58   32   34 1
    59   34   35 2
@<TRIPOS>MOLECULE
ZINC18058000
   54    58     0     0     0
SMALL
USER_CHARGES

@<TRIPOS>ATOM
      1 C1         -0.0164    1.3575    0.0095 C.ar      1 <0>        -0.0994
      2 C2          1.1681    2.0917    0.0021 C.ar      1 <0>        -0.1186
      3 C3          2.3778    1.4684   -0.0127 C.ar      1 <0>        -0.0938
      4 C4          2.4367    0.0628   -0.0207 C.ar      1 <0>        -0.0693
      5 C5          3.6667   -0.6105   -0.0354 C.ar      1 <0>        -0.0238
      6 C6          3.6843   -1.9985   -0.0425 C.ar      1 <0>        -0.1674
      7 C7          2.4786   -2.7277   -0.0356 C.ar      1 <0>        -0.0867
      8 C8          1.2813   -2.0907   -0.0218 C.ar      1 <0>        -0.1096
      9 C9          1.2309   -0.6840   -0.0133 C.ar      1 <0>        -0.0274
     10 C10         0.0021   -0.0041    0.0020 C.ar      1 <0>        -0.1147
     11 C11         4.9698   -2.7126   -0.0580 C.2       1 <0>         0.3990
     12 O1          6.0098   -2.0890   -0.0644 O.2       1 <0>        -0.4261
     13 C12         4.9947   -4.2194   -0.0658 C.3       1 <0>         0.0215
     14 O2          6.3496   -4.6734   -0.0805 O.3       1 <0>        -0.3302
     15 C13         6.5482   -6.0061   -0.0891 C.2       1 <0>         0.5137
     16 O3          5.5970   -6.7620   -0.0841 O.2       1 <0>        -0.5007
     17 C14         7.9203   -6.5472   -0.1044 C.ar      1 <0>        -0.1404
     18 C15         9.0159   -5.6792   -0.1043 C.ar      1 <0>        -0.0340
     19 C16        10.2952   -6.1881   -0.1187 C.ar      1 <0>        -0.1574
     20 C17        10.4981   -7.5638   -0.1333 C.ar      1 <0>         0.1599
     21 C18         9.4106   -8.4307   -0.1335 C.ar      1 <0>        -0.1566
     22 C19         8.1283   -7.9294   -0.1133 C.ar      1 <0>        -0.0275
     23 N1         11.7983   -8.0766   -0.1484 N.am      1 <0>        -0.5368
     24 C20        12.9081   -7.2932   -0.1438 C.2       1 <0>         0.5422
     25 O4         12.9575   -6.1030    0.0810 O.2       1 <0>        -0.4444
     26 C21        14.0589   -8.1950   -0.4725 C.3       1 <0>        -0.1287
     27 H1         14.1752   -8.2830   -1.5527 H         1 <0>         0.1329
     28 C22        15.3970   -7.9171    0.1795 C.3       1 <0>        -0.0690
     29 C23        16.2556   -9.1456   -0.0368 C.2       1 <0>        -0.1538
     30 C24        15.7927  -10.3161   -0.3567 C.2       1 <0>        -0.1532
     31 C25        14.3232  -10.6346   -0.5360 C.3       1 <0>        -0.0695
     32 C26        13.5371   -9.5355    0.1313 C.3       1 <0>        -0.1299
     33 H2         13.7142   -9.5642    1.2064 H         1 <0>         0.1326
     34 C27        12.0743   -9.4066   -0.1631 C.2       1 <0>         0.5442
     35 O5         11.2934  -10.3094   -0.3740 O.2       1 <0>        -0.4454
     36 H3         -0.9635    1.8763    0.0259 H         1 <0>         0.1277
     37 H4          1.1254    3.1708    0.0079 H         1 <0>         0.1281
     38 H5          3.2879    2.0498   -0.0186 H         1 <0>         0.1323
     39 H6          4.5922   -0.0540   -0.0415 H         1 <0>         0.1428
     40 H7          2.5083   -3.8073   -0.0417 H         1 <0>         0.1330
     41 H8          0.3656   -2.6634   -0.0173 H         1 <0>         0.1358
     42 H9         -0.9245   -0.5589    0.0082 H         1 <0>         0.1319
     43 H10         4.4951   -4.5957    0.8269 H         1 <0>         0.1075
     44 H11         4.4788   -4.5867   -0.9529 H         1 <0>         0.1075
     45 H12         8.8591   -4.6107   -0.0934 H         1 <0>         0.1499
     46 H13        11.1422   -5.5180   -0.1190 H         1 <0>         0.1622
     47 H14         9.5721   -9.4985   -0.1448 H         1 <0>         0.1633
     48 H15         7.2843   -8.6032   -0.1085 H         1 <0>         0.1477
     49 H16        15.8647   -7.0494   -0.2857 H         1 <0>         0.0945
     50 H17        15.2616   -7.7407    1.2466 H         1 <0>         0.0887
     51 H18        17.3239   -9.0413    0.0825 H         1 <0>         0.1168
     52 H19        16.5034  -11.1157   -0.5050 H         1 <0>         0.1171
     53 H20        14.0748  -10.6605   -1.5970 H         1 <0>         0.0872
     54 H21        14.0914  -11.5947   -0.0749 H         1 <0>         0.0944
@<TRIPOS>BOND
     1    1   10 ar
     2    1    2 ar
     3    1   36 1
     4    2    3 ar
     5    2   37 1
     6    3    4 ar
     7    3   38 1
     8    4    9 ar
     9    4    5 ar
    10    5    6 ar
    11    5   39 1
    12    6    7 ar
    13    6   11 1
    14    7    8 ar
    15    7   40 1
    16    8    9 ar
    17    8   41 1
    18    9   10 ar
    19   10   42 1
    20   11   12 2
    21   11   13 1
    22   13   14 1
    23   13   43 1
    24   13   44 1
    25   14   15 1
    26   15   16 2
    27   15   17 1
    28   17   22 ar
    29   17   18 ar
    30   18   19 ar
    31   18   45 1
    32   19   20 ar
    33   19   46 1
    34   20   21 ar
    35   20   23 1
    36   21   22 ar
    37   21   47 1
    38   22   48 1
    39   23   34 am
    40   23   24 am
    41   24   25 2
    42   24   26 1
    43   26   27 1
    44   26   32 1
    45   26   28 1
    46   28   29 1
    47   28   49 1
    48   28   50 1
    49   29   30 2
    50   29   51 1
    51   30   31 1
    52   30   52 1
    53   31   32 1
    54   31   53 1
    55   31   54 1
    56   32   33 1
    57   32   34 1
    58   34   35 2
@<TRIPOS>MOLECULE
ZINC17986746
   59    62     0     0     0
SMALL
USER_CHARGES

@<TRIPOS>ATOM
      1 C1          0.6240    1.5034   -0.0574 C.3       1 <0>        -0.1248
      2 C2          0.6053   -0.0035   -0.0616 C.ar      1 <0>        -0.0497
      3 C3          0.3547   -0.6857   -1.2398 C.ar      1 <0>        -0.1278
      4 C4          0.3359   -2.0641   -1.2518 C.ar      1 <0>        -0.0762
      5 C5          0.5708   -2.7734   -0.0693 C.ar      1 <0>        -0.1704
      6 C6          0.8231   -2.0770    1.1167 C.ar      1 <0>        -0.0523
      7 C7          0.8442   -0.6981    1.1112 C.ar      1 <0>        -0.0982
      8 C8          1.1220    0.0544    2.3870 C.3       1 <0>        -0.1187
      9 C9          0.5520   -4.2449   -0.0733 C.2       1 <0>         0.3996
     10 O1          0.7561   -4.8567    0.9535 O.2       1 <0>        -0.4261
     11 C10         0.2792   -4.9915   -1.3537 C.3       1 <0>         0.0212
     12 O2          0.3139   -6.3977   -1.1017 O.3       1 <0>        -0.3299
     13 C11         0.0880   -7.2129   -2.1506 C.2       1 <0>         0.5134
     14 O3         -0.1326   -6.7426   -3.2490 O.2       1 <0>        -0.5007
     15 C12         0.1083   -8.6761   -1.9652 C.ar      1 <0>        -0.1383
     16 C13         0.3561   -9.2189   -0.7012 C.ar      1 <0>        -0.0361
     17 C14         0.3743  -10.5853   -0.5322 C.ar      1 <0>        -0.1536
     18 C15         0.1465  -11.4250   -1.6171 C.ar      1 <0>         0.1547
     19 C16        -0.1004  -10.8887   -2.8763 C.ar      1 <0>        -0.1526
     20 C17        -0.1259   -9.5233   -3.0520 C.ar      1 <0>        -0.0296
     21 N1          0.1663  -12.8116   -1.4416 N.am      1 <0>        -0.5266
     22 C18         0.0857  -13.6806   -2.4641 C.2       1 <0>         0.5267
     23 O4          0.1360  -13.4028   -3.6430 O.2       1 <0>        -0.4526
     24 C19        -0.0795  -15.0807   -1.8758 C.3       1 <0>        -0.1025
     25 H1          0.5358  -15.7986   -2.4182 H         1 <0>         0.1302
     26 C20        -1.5447  -15.4589   -1.9745 C.3       1 <0>        -0.1087
     27 C21        -1.9570  -16.4781   -0.9214 C.3       1 <0>        -0.1123
     28 C22        -1.6859  -15.8810    0.4641 C.3       1 <0>        -0.0957
     29 H2         -2.1741  -14.9101    0.5481 H         1 <0>         0.0712
     30 C23        -0.1791  -15.7147    0.6236 C.3       1 <0>        -0.1002
     31 C24         0.4547  -14.8808   -0.4644 C.3       1 <0>        -0.1116
     32 H3          1.5281  -15.0694   -0.4812 H         1 <0>         0.1244
     33 C25         0.2735  -13.3968   -0.2336 C.2       1 <0>         0.5301
     34 O5          0.2307  -12.8379    0.8412 O.2       1 <0>        -0.4497
     35 C26        -2.2198  -16.8226    1.5454 C.3       1 <0>        -0.1461
     36 H4          1.6340    1.8547   -0.2683 H         1 <0>         0.0777
     37 H5         -0.0577    1.8773   -0.8213 H         1 <0>         0.0717
     38 H6          0.3092    1.8679    0.9204 H         1 <0>         0.0738
     39 H7          0.1732   -0.1366   -2.1519 H         1 <0>         0.1322
     40 H8          0.1399   -2.5949   -2.1717 H         1 <0>         0.1325
     41 H9          1.0051   -2.6176    2.0338 H         1 <0>         0.1361
     42 H10         0.1834    0.2478    2.9065 H         1 <0>         0.0742
     43 H11         1.7746   -0.5411    3.0254 H         1 <0>         0.0700
     44 H12         1.6088    1.0009    2.1519 H         1 <0>         0.0723
     45 H13        -0.7043   -4.7146   -1.7332 H         1 <0>         0.1068
     46 H14         1.0389   -4.7359   -2.0923 H         1 <0>         0.1068
     47 H15         0.5335   -8.5674    0.1417 H         1 <0>         0.1498
     48 H16         0.5661  -11.0054    0.4441 H         1 <0>         0.1629
     49 H17        -0.2769  -11.5440   -3.7164 H         1 <0>         0.1633
     50 H18        -0.3225   -9.1075   -4.0292 H         1 <0>         0.1476
     51 H19        -2.1496  -14.5606   -1.8514 H         1 <0>         0.0642
     52 H20        -1.7350  -15.8769   -2.9630 H         1 <0>         0.0852
     53 H21        -3.0191  -16.7006   -1.0230 H         1 <0>         0.0759
     54 H22        -1.3747  -17.3909   -1.0473 H         1 <0>         0.0741
     55 H23         0.0223  -15.2473    1.5875 H         1 <0>         0.0849
     56 H24         0.2862  -16.7003    0.6101 H         1 <0>         0.0827
     57 H25        -1.7212  -17.7885    1.4646 H         1 <0>         0.0583
     58 H26        -2.0250  -16.3943    2.5286 H         1 <0>         0.0580
     59 H27        -3.2935  -16.9558    1.4134 H         1 <0>         0.0587
@<TRIPOS>BOND
     1    1    2 1
     2    1   36 1
     3    1   37 1
     4    1   38 1
     5    2    7 ar
     6    2    3 ar
     7    3    4 ar
     8    3   39 1
     9    4    5 ar
    10    4   40 1
    11    5    6 ar
    12    5    9 1
    13    6    7 ar
    14    6   41 1
    15    7    8 1
    16    8   42 1
    17    8   43 1
    18    8   44 1
    19    9   10 2
    20    9   11 1
    21   11   12 1
    22   11   45 1
    23   11   46 1
    24   12   13 1
    25   13   14 2
    26   13   15 1
    27   15   20 ar
    28   15   16 ar
    29   16   17 ar
    30   16   47 1
    31   17   18 ar
    32   17   48 1
    33   18   19 ar
    34   18   21 1
    35   19   20 ar
    36   19   49 1
    37   20   50 1
    38   21   33 am
    39   21   22 am
    40   22   23 2
    41   22   24 1
    42   24   25 1
    43   24   31 1
    44   24   26 1
    45   26   27 1
    46   26   51 1
    47   26   52 1
    48   27   28 1
    49   27   53 1
    50   27   54 1
    51   28   29 1
    52   28   30 1
    53   28   35 1
    54   30   31 1
    55   30   55 1
    56   30   56 1
    57   31   32 1
    58   31   33 1
    59   33   34 2
    60   35   57 1
    61   35   58 1
    62   35   59 1
@<TRIPOS>MOLECULE
ZINC17986749
   59    62     0     0     0
SMALL
USER_CHARGES

@<TRIPOS>ATOM
      1 C1         -0.0993    1.5016    0.0098 C.3       1 <0>        -0.1248
      2 C2         -0.0739   -0.0052    0.0015 C.ar      1 <0>        -0.0497
      3 C3         -0.0383   -0.6866   -1.2029 C.ar      1 <0>        -0.1278
      4 C4         -0.0150   -2.0650   -1.2188 C.ar      1 <0>        -0.0762
      5 C5         -0.0273   -2.7749   -0.0137 C.ar      1 <0>        -0.1704
      6 C6         -0.0633   -2.0792    1.1988 C.ar      1 <0>        -0.0523
      7 C7         -0.0806   -0.7002    1.1981 C.ar      1 <0>        -0.0982
      8 C8         -0.1132    0.0516    2.5038 C.3       1 <0>        -0.1187
      9 C9         -0.0030   -4.2463   -0.0218 C.2       1 <0>         0.3996
     10 O1         -0.0138   -4.8586    1.0248 O.2       1 <0>        -0.4261
     11 C10         0.0353   -4.9921   -1.3307 C.3       1 <0>         0.0212
     12 O2          0.0533   -6.3984   -1.0774 O.3       1 <0>        -0.3299
     13 C11         0.0880   -7.2128   -2.1502 C.2       1 <0>         0.5134
     14 O3          0.1025   -6.7420   -3.2702 O.2       1 <0>        -0.5008
     15 C12         0.1083   -8.6761   -1.9650 C.ar      1 <0>        -0.1384
     16 C13         0.0858   -9.2198   -0.6775 C.ar      1 <0>        -0.0360
     17 C14         0.1049  -10.5861   -0.5087 C.ar      1 <0>        -0.1535
     18 C15         0.1465  -11.4250   -1.6171 C.ar      1 <0>         0.1549
     19 C16         0.1690  -10.8879   -2.8997 C.ar      1 <0>        -0.1529
     20 C17         0.1443   -9.5226   -3.0767 C.ar      1 <0>        -0.0294
     21 N1          0.1663  -12.8116   -1.4416 N.am      1 <0>        -0.5268
     22 C18         0.0856  -13.6824   -2.4664 C.2       1 <0>         0.5329
     23 O4         -0.1520  -13.4108   -3.6236 O.2       1 <0>        -0.4505
     24 C19         0.3467  -15.0607   -1.9046 C.3       1 <0>        -0.1122
     25 H1          1.4178  -15.2455   -1.9865 H         1 <0>         0.1224
     26 C20        -0.3579  -16.1543   -2.6344 C.3       1 <0>        -0.1061
     27 C21        -1.7804  -16.4336   -2.1948 C.3       1 <0>        -0.1174
     28 C22        -1.8692  -16.4918   -0.6710 C.3       1 <0>        -0.0882
     29 H2         -1.2064  -17.2706   -0.2939 H         1 <0>         0.0813
     30 C23        -1.4405  -15.1356   -0.1123 C.3       1 <0>        -0.1097
     31 C24         0.0241  -14.8938   -0.4195 C.3       1 <0>        -0.1010
     32 H3          0.6711  -15.5050    0.2097 H         1 <0>         0.1363
     33 C25         0.2734  -13.3959   -0.2353 C.2       1 <0>         0.5262
     34 O5          0.5207  -12.8353    0.8107 O.2       1 <0>        -0.4513
     35 C26        -3.3091  -16.7919   -0.2497 C.3       1 <0>        -0.1490
     36 H4          0.9220    1.8820    0.0275 H         1 <0>         0.0777
     37 H5         -0.6056    1.8613   -0.8860 H         1 <0>         0.0717
     38 H6         -0.6327    1.8511    0.8938 H         1 <0>         0.0738
     39 H7         -0.0292   -0.1370   -2.1326 H         1 <0>         0.1322
     40 H8          0.0124   -2.5952   -2.1593 H         1 <0>         0.1325
     41 H9         -0.0733   -2.6204    2.1334 H         1 <0>         0.1361
     42 H10        -1.1485    0.2157    2.8028 H         1 <0>         0.0741
     43 H11         0.3987   -0.5297    3.2707 H         1 <0>         0.0700
     44 H12         0.3865    1.0126    2.3822 H         1 <0>         0.0723
     45 H13        -0.8475   -4.7401   -1.9184 H         1 <0>         0.1068
     46 H14         0.9319   -4.7109   -1.8830 H         1 <0>         0.1068
     47 H15         0.0539   -8.5689    0.1837 H         1 <0>         0.1498
     48 H16         0.0880  -11.0069    0.4858 H         1 <0>         0.1623
     49 H17         0.2013  -11.5425   -3.7581 H         1 <0>         0.1636
     50 H18         0.1569   -9.1063   -4.0732 H         1 <0>         0.1476
     51 H19        -0.3727  -15.9016   -3.6946 H         1 <0>         0.0842
     52 H20         0.2210  -17.0704   -2.5163 H         1 <0>         0.0805
     53 H21        -2.4325  -15.6416   -2.5630 H         1 <0>         0.0633
     54 H22        -2.1044  -17.3877   -2.6105 H         1 <0>         0.0766
     55 H23        -2.0401  -14.3493   -0.5707 H         1 <0>         0.0671
     56 H24        -1.5942  -15.1237    0.9668 H         1 <0>         0.0858
     57 H25        -3.6173  -17.7508   -0.6665 H         1 <0>         0.0603
     58 H26        -3.3685  -16.8326    0.8380 H         1 <0>         0.0586
     59 H27        -3.9674  -16.0062   -0.6203 H         1 <0>         0.0556
@<TRIPOS>BOND
     1    1    2 1
     2    1   36 1
     3    1   37 1
     4    1   38 1
     5    2    7 ar
     6    2    3 ar
     7    3    4 ar
     8    3   39 1
     9    4    5 ar
    10    4   40 1
    11    5    6 ar
    12    5    9 1
    13    6    7 ar
    14    6   41 1
    15    7    8 1
    16    8   42 1
    17    8   43 1
    18    8   44 1
    19    9   10 2
    20    9   11 1
    21   11   12 1
    22   11   45 1
    23   11   46 1
    24   12   13 1
    25   13   14 2
    26   13   15 1
    27   15   20 ar
    28   15   16 ar
    29   16   17 ar
    30   16   47 1
    31   17   18 ar
    32   17   48 1
    33   18   19 ar
    34   18   21 1
    35   19   20 ar
    36   19   49 1
    37   20   50 1
    38   21   33 am
    39   21   22 am
    40   22   23 2
    41   22   24 1
    42   24   25 1
    43   24   31 1
    44   24   26 1
    45   26   27 1
    46   26   51 1
    47   26   52 1
    48   27   28 1
    49   27   53 1
    50   27   54 1
    51   28   29 1
    52   28   30 1
    53   28   35 1
    54   30   31 1
    55   30   55 1
    56   30   56 1
    57   31   32 1
    58   31   33 1
    59   33   34 2
    60   35   57 1
    61   35   58 1
    62   35   59 1
@<TRIPOS>MOLECULE
ZINC01174116
   54    57     0     0     0
SMALL
USER_CHARGES
[2-(4-methoxy-3-nitro-phenyl)-2-oxo-ethyl] 4-(1,3-dioxo-3a,4,7,7a-tetrahydroisoindol-2-yl)benzoate
@<TRIPOS>ATOM
      1 C1          2.3037   -0.3098   -0.0207 C.3       1 <0>         0.0139
      2 O1          2.3650    1.1179   -0.0141 O.3       1 <0>        -0.2729
      3 C2          1.1838    1.7850    0.0003 C.ar      1 <0>         0.2305
      4 C3         -0.0126    1.0758    0.0080 C.ar      1 <0>        -0.2200
      5 C4         -1.2060    1.7400    0.0172 C.ar      1 <0>         0.0140
      6 C5         -1.2281    3.1402    0.0297 C.ar      1 <0>        -0.2061
      7 C6         -0.0238    3.8548    0.0216 C.ar      1 <0>         0.0452
      8 C7          1.1735    3.1757    0.0070 C.ar      1 <0>        -0.0928
      9 N1          2.4496    3.9255   -0.0012 N.pl3     1 <0>         0.0334
     10 O2          2.4405    5.1434    0.0047 O.2       1 <0>        -0.1669
     11 O3          3.5090    3.3245   -0.0137 O.3       1 <0>        -0.1297
     12 C8         -2.5099    3.8568    0.0453 C.2       1 <0>         0.4011
     13 O4         -2.5267    5.0696    0.0511 O.2       1 <0>        -0.4127
     14 C9         -3.8044    3.0852    0.0540 C.3       1 <0>         0.0377
     15 O5         -4.9210    4.0133    0.0690 O.3       1 <0>        -0.3336
     16 C10        -6.1588    3.4810    0.0783 C.2       1 <0>         0.5159
     17 O6         -6.3013    2.2744    0.0740 O.2       1 <0>        -0.5017
     18 C11        -7.3409    4.3633    0.0936 C.ar      1 <0>        -0.1412
     19 C12        -7.1790    5.7516    0.1044 C.ar      1 <0>        -0.0347
     20 C13        -8.2848    6.5719    0.1133 C.ar      1 <0>        -0.1571
     21 C14        -9.5616    6.0206    0.1224 C.ar      1 <0>         0.1575
     22 C15        -9.7267    4.6397    0.1176 C.ar      1 <0>        -0.1562
     23 C16        -8.6258    3.8130    0.1033 C.ar      1 <0>        -0.0279
     24 N2        -10.6818    6.8566    0.1370 N.am      1 <0>        -0.5304
     25 C17       -10.5957    8.2008    0.1424 C.2       1 <0>         0.5245
     26 O7         -9.5985    8.8584   -0.0644 O.2       1 <0>        -0.4476
     27 C18       -11.9983    8.7456    0.4598 C.3       1 <0>        -0.0957
     28 H1        -12.2177    9.6987   -0.0213 H         1 <0>         0.1450
     29 C19       -12.0630    8.7930    1.9885 C.3       1 <0>        -0.0869
     30 C20       -13.3993    8.4726    2.5410 C.2       1 <0>        -0.1563
     31 C21       -14.3475    7.8877    1.8877 C.2       1 <0>        -0.1467
     32 C22       -14.2287    7.4857    0.4516 C.3       1 <0>        -0.0769
     33 C23       -12.8384    7.5791   -0.0850 C.3       1 <0>        -0.1232
     34 H2        -12.9138    7.7171   -1.1636 H         1 <0>         0.1234
     35 C24       -11.9505    6.3899    0.1410 C.2       1 <0>         0.5411
     36 O8        -12.3019    5.2404    0.2977 O.2       1 <0>        -0.4457
     37 H3          1.7664   -0.6463   -0.9074 H         1 <0>         0.0683
     38 H4          3.3147   -0.7168   -0.0322 H         1 <0>         0.1181
     39 H5          1.7831   -0.6553    0.8725 H         1 <0>         0.0683
     40 H6          0.0021   -0.0041    0.0020 H         1 <0>         0.1625
     41 H7         -2.1326    1.1853    0.0186 H         1 <0>         0.1556
     42 H8         -0.0343    4.9347    0.0264 H         1 <0>         0.1737
     43 H9         -3.8571    2.5134   -0.7647 H         1 <0>         0.0976
     44 H10        -3.8450    2.4536    0.9415 H         1 <0>         0.1113
     45 H11        -6.1877    6.1804    0.1017 H         1 <0>         0.1501
     46 H12        -8.1605    7.6447    0.1178 H         1 <0>         0.1646
     47 H13       -10.7198    4.2153    0.1254 H         1 <0>         0.1656
     48 H14        -8.7548    2.7407    0.0999 H         1 <0>         0.1477
     49 H15       -11.3538    8.0697    2.3910 H         1 <0>         0.0748
     50 H16       -11.7689    9.7888    2.3202 H         1 <0>         0.0961
     51 H17       -13.5985    8.7565    3.5638 H         1 <0>         0.1151
     52 H18       -15.2727    7.6786    2.4040 H         1 <0>         0.1187
     53 H19       -14.8762    8.1286   -0.1447 H         1 <0>         0.0968
     54 H20       -14.5736    6.4569    0.3482 H         1 <0>         0.0948
@<TRIPOS>BOND
     1    1    2 1
     2    1   37 1
     3    1   38 1
     4    1   39 1
     5    2    3 1
     6    3    8 ar
     7    3    4 ar
     8    4    5 ar
     9    4   40 1
    10    5    6 ar
    11    5   41 1
    12    6    7 ar
    13    6   12 1
    14    7    8 ar
    15    7   42 1
    16    8    9 1
    17    9   10 2
    18    9   11 1
    19   12   13 2
    20   12   14 1
    21   14   15 1
    22   14   43 1
    23   14   44 1
    24   15   16 1
    25   16   17 2
    26   16   18 1
    27   18   23 ar
    28   18   19 ar
    29   19   20 ar
    30   19   45 1
    31   20   21 ar
    32   20   46 1
    33   21   22 ar
    34   21   24 1
    35   22   23 ar
    36   22   47 1
    37   23   48 1
    38   24   35 am
    39   24   25 am
    40   25   26 2
    41   25   27 1
    42   27   28 1
    43   27   33 1
    44   27   29 1
    45   29   30 1
    46   29   49 1
    47   29   50 1
    48   30   31 2
    49   30   51 1
    50   31   32 1
    51   31   52 1
    52   32   33 1
    53   32   53 1
    54   32   54 1
    55   33   34 1
    56   33   35 1
    57   35   36 2
@<TRIPOS>MOLECULE
ZINC17986935
   54    57     0     0     0
SMALL
USER_CHARGES

@<TRIPOS>ATOM
      1 C1         -0.0173    1.4248    0.0099 C.3       1 <0>         0.0141
      2 O1          0.0021   -0.0041    0.0020 O.3       1 <0>        -0.2734
      3 C2          0.6247   -0.6173    1.0397 C.ar      1 <0>         0.2299
      4 C3          1.2015    0.1449    2.0500 C.ar      1 <0>        -0.2204
      5 C4          1.8302   -0.4649    3.0981 C.ar      1 <0>         0.0138
      6 C5          1.8959   -1.8624    3.1583 C.ar      1 <0>        -0.2058
      7 C6          1.3153   -2.6303    2.1413 C.ar      1 <0>         0.0445
      8 C7          0.6791   -2.0060    1.0923 C.ar      1 <0>        -0.0981
      9 N1          0.0580   -2.8124    0.0177 N.pl3     1 <0>         0.0392
     10 O2          0.1053   -4.0196    0.0636 O.2       1 <0>        -0.1660
     11 O3         -0.4968   -2.2639   -0.9059 O.3       1 <0>        -0.1291
     12 C8          2.5717   -2.5204    4.2839 C.2       1 <0>         0.4029
     13 O4          2.6274   -3.7311    4.3340 O.2       1 <0>        -0.4143
     14 C9          3.1960   -1.6916    5.3767 C.3       1 <0>         0.0225
     15 O5          3.7870   -2.5545    6.3505 O.3       1 <0>        -0.3289
     16 C10         4.3920   -1.9671    7.4015 C.2       1 <0>         0.5158
     17 O6          4.4171   -0.7556    7.4888 O.2       1 <0>        -0.5007
     18 C11         5.0239   -2.7952    8.4460 C.ar      1 <0>        -0.1424
     19 C12         5.0011   -4.1890    8.3443 C.ar      1 <0>        -0.0335
     20 C13         5.5919   -4.9586    9.3214 C.ar      1 <0>        -0.1576
     21 C14         6.2109   -4.3507   10.4083 C.ar      1 <0>         0.1616
     22 C15         6.2356   -2.9641   10.5130 C.ar      1 <0>        -0.1568
     23 C16         5.6520   -2.1877    9.5370 C.ar      1 <0>        -0.0268
     24 N2          6.8092   -5.1353   11.3984 N.am      1 <0>        -0.5372
     25 C17         6.8295   -6.4931   11.3616 C.2       1 <0>         0.5423
     26 O7          6.1846   -7.2108   10.6279 O.2       1 <0>        -0.4439
     27 C18         7.8098   -6.9259   12.4093 C.3       1 <0>        -0.1289
     28 H1          8.8201   -6.9403   12.0003 H         1 <0>         0.1329
     29 C19         7.5309   -8.2067   13.1671 C.3       1 <0>        -0.0691
     30 C20         8.4538   -8.2176   14.3677 C.2       1 <0>        -0.1537
     31 C21         9.0509   -7.1665   14.8426 C.2       1 <0>        -0.1534
     32 C22         8.8937   -5.7681   14.2833 C.3       1 <0>        -0.0700
     33 C23         7.6513   -5.7580   13.4313 C.3       1 <0>        -0.1293
     34 H2          6.7782   -5.9199   14.0634 H         1 <0>         0.1332
     35 C24         7.4315   -4.6136   12.4873 C.2       1 <0>         0.5443
     36 O8          7.7440   -3.4553   12.6614 O.2       1 <0>        -0.4451
     37 H3          1.0053    1.8021    0.0021 H         1 <0>         0.0681
     38 H4         -0.5445    1.7859   -0.8732 H         1 <0>         0.1179
     39 H5         -0.5275    1.7763    0.9067 H         1 <0>         0.0681
     40 H6          1.1523    1.2228    2.0055 H         1 <0>         0.1621
     41 H7          2.2770    0.1309    3.8803 H         1 <0>         0.1557
     42 H8          1.3627   -3.7085    2.1821 H         1 <0>         0.1732
     43 H9          3.9635   -1.0461    4.9497 H         1 <0>         0.1093
     44 H10         2.4293   -1.0793    5.8515 H         1 <0>         0.1093
     45 H11         4.5203   -4.6618    7.5007 H         1 <0>         0.1501
     46 H12         5.5744   -6.0356    9.2437 H         1 <0>         0.1629
     47 H13         6.7172   -2.4956   11.3585 H         1 <0>         0.1635
     48 H14         5.6758   -1.1109    9.6165 H         1 <0>         0.1476
     49 H15         6.4919   -8.2259   13.4961 H         1 <0>         0.0888
     50 H16         7.7370   -9.0678   12.5314 H         1 <0>         0.0947
     51 H17         8.6267   -9.1621   14.8620 H         1 <0>         0.1170
     52 H18         9.7028   -7.2987   15.6935 H         1 <0>         0.1171
     53 H19         8.7961   -5.0503   15.0977 H         1 <0>         0.0945
     54 H20         9.7549   -5.5158   13.6645 H         1 <0>         0.0870
@<TRIPOS>BOND
     1    1    2 1
     2    1   37 1
     3    1   38 1
     4    1   39 1
     5    2    3 1
     6    3    8 ar
     7    3    4 ar
     8    4    5 ar
     9    4   40 1
    10    5    6 ar
    11    5   41 1
    12    6    7 ar
    13    6   12 1
    14    7    8 ar
    15    7   42 1
    16    8    9 1
    17    9   10 2
    18    9   11 1
    19   12   13 2
    20   12   14 1
    21   14   15 1
    22   14   43 1
    23   14   44 1
    24   15   16 1
    25   16   17 2
    26   16   18 1
    27   18   23 ar
    28   18   19 ar
    29   19   20 ar
    30   19   45 1
    31   20   21 ar
    32   20   46 1
    33   21   22 ar
    34   21   24 1
    35   22   23 ar
    36   22   47 1
    37   23   48 1
    38   24   35 am
    39   24   25 am
    40   25   26 2
    41   25   27 1
    42   27   28 1
    43   27   33 1
    44   27   29 1
    45   29   30 1
    46   29   49 1
    47   29   50 1
    48   30   31 2
    49   30   51 1
    50   31   32 1
    51   31   52 1
    52   32   33 1
    53   32   53 1
    54   32   54 1
    55   33   34 1
    56   33   35 1
    57   35   36 2
@<TRIPOS>MOLECULE
ZINC28571048
   26    27     0     0     0
SMALL
USER_CHARGES
2-chloro-6-[(3-chlorophenyl)methoxy]pyridine-4-carbonitrile
@<TRIPOS>ATOM
      1 C1          1.1746    1.7831    0.0004 C.ar      1 <0>        -0.1086
      2 C2          1.1560    3.1656    0.0081 C.ar      1 <0>        -0.0889
      3 C3         -0.0498    3.8410    0.0228 C.ar      1 <0>        -0.0893
      4 C4         -1.2380    3.1346    0.0299 C.ar      1 <0>        -0.0850
      5 C5         -1.2201    1.7515    0.0174 C.ar      1 <0>        -0.0385
      6 C6         -0.0126    1.0758    0.0080 C.ar      1 <0>        -0.0978
      7 Cl1        -2.7119    0.8636    0.0190 Cl        1 <0>        -0.0635
      8 C7         -0.0692    5.3479    0.0306 C.3       1 <0>         0.1096
      9 O1         -0.0880    5.8310   -1.3141 O.3       1 <0>        -0.2888
     10 C8         -0.1070    7.1770   -1.4849 C.ar      1 <0>         0.3539
     11 C9         -0.1199    7.7051   -2.7680 C.ar      1 <0>        -0.1398
     12 C10        -0.1442    9.0929   -2.9284 C.ar      1 <0>         0.0760
     13 C11        -0.1439    9.8923   -1.7787 C.ar      1 <0>        -0.1501
     14 C12        -0.1250    9.2854   -0.5386 C.ar      1 <0>         0.2214
     15 N1         -0.1073    7.9699   -0.4266 N.ar      1 <0>        -0.5203
     16 Cl2        -0.1237   10.2661    0.8939 Cl        1 <0>        -0.0061
     17 C13        -0.1640    9.6820   -4.2334 C.1       1 <0>         0.2476
     18 N2         -0.1796   10.1493   -5.2687 N.1       1 <0>        -0.3727
     19 H1          2.1171    1.2559   -0.0118 H         1 <0>         0.1375
     20 H2          2.0841    3.7180    0.0022 H         1 <0>         0.1329
     21 H3         -2.1802    3.6625    0.0414 H         1 <0>         0.1364
     22 H4          0.0021   -0.0041    0.0020 H         1 <0>         0.1371
     23 H5         -0.9671    5.7003    0.5594 H         1 <0>         0.0856
     24 H6          0.8290    5.7235    0.5426 H         1 <0>         0.0870
     25 H7         -0.1154    7.0535   -3.6293 H         1 <0>         0.1629
     26 H8         -0.1585   10.9691   -1.8608 H         1 <0>         0.1614
@<TRIPOS>BOND
     1    1    6 ar
     2    1    2 ar
     3    1   19 1
     4    2    3 ar
     5    2   20 1
     6    3    4 ar
     7    3    8 1
     8    4    5 ar
     9    4   21 1
    10    5    6 ar
    11    5    7 1
    12    6   22 1
    13    8    9 1
    14    8   23 1
    15    8   24 1
    16    9   10 1
    17   10   15 ar
    18   10   11 ar
    19   11   12 ar
    20   11   25 1
    21   12   13 ar
    22   12   17 1
    23   13   14 ar
    24   13   26 1
    25   14   15 ar
    26   14   16 1
    27   17   18 3
@<TRIPOS>MOLECULE
ZINC04826839
   40    43     0     0     0
SMALL
USER_CHARGES
2-(3-benzyloxyphenyl)isoindoline-1,3-dione
@<TRIPOS>ATOM
      1 C1        -10.0863    5.2684    0.0748 C.ar      1 <0>        -0.1083
      2 C2         -9.6175    4.7723   -1.1273 C.ar      1 <0>        -0.1230
      3 C3         -8.6698    3.7660   -1.1373 C.ar      1 <0>        -0.0947
      4 C4         -8.1912    3.2554    0.0548 C.ar      1 <0>        -0.0992
      5 C5         -8.6642    3.7475    1.2569 C.ar      1 <0>        -0.0947
      6 C6         -9.6077    4.7578    1.2669 C.ar      1 <0>        -0.1230
      7 C7         -7.1584    2.1580    0.0440 C.3       1 <0>         0.1016
      8 O1         -5.8509    2.7345    0.0422 O.3       1 <0>        -0.3035
      9 C8         -4.7979    1.8755    0.0327 C.ar      1 <0>         0.1519
     10 C9         -5.0195    0.5053    0.0252 C.ar      1 <0>        -0.2153
     11 C10        -3.9497   -0.3691    0.0160 C.ar      1 <0>        -0.0567
     12 C11        -2.6565    0.1174    0.0138 C.ar      1 <0>        -0.1764
     13 C12        -2.4290    1.4872    0.0203 C.ar      1 <0>         0.1655
     14 C13        -3.5020    2.3669    0.0353 C.ar      1 <0>        -0.1744
     15 N1         -1.1173    1.9805    0.0175 N.am      1 <0>        -0.5191
     16 C14        -0.0144    1.2103    0.0087 C.2       1 <0>         0.5769
     17 O2          0.0021   -0.0041    0.0020 O.2       1 <0>        -0.4449
     18 C15         1.1739    2.0892    0.0021 C.ar      1 <0>        -0.1393
     19 C16         2.5416    1.8675   -0.0126 C.ar      1 <0>        -0.0398
     20 C17         3.4126    2.9459   -0.0155 C.ar      1 <0>        -0.0923
     21 C18         2.9260    4.2397   -0.0039 C.ar      1 <0>        -0.0917
     22 C19         1.5603    4.4768    0.0108 C.ar      1 <0>        -0.0402
     23 C20         0.6777    3.4087    0.0139 C.ar      1 <0>        -0.1384
     24 C21        -0.7953    3.2866    0.0273 C.2       1 <0>         0.5735
     25 O3         -1.5830    4.2109    0.0398 O.2       1 <0>        -0.4418
     26 H1        -10.8261    6.0551    0.0826 H         1 <0>         0.1251
     27 H2         -9.9913    5.1713   -2.0587 H         1 <0>         0.1261
     28 H3         -8.3035    3.3785   -2.0765 H         1 <0>         0.1244
     29 H4         -8.2936    3.3455    2.1883 H         1 <0>         0.1245
     30 H5         -9.9737    5.1455    2.2061 H         1 <0>         0.1261
     31 H6         -7.2872    1.5467   -0.8492 H         1 <0>         0.0737
     32 H7         -7.2800    1.5359    0.9307 H         1 <0>         0.0737
     33 H8         -6.0292    0.1222    0.0270 H         1 <0>         0.1333
     34 H9         -4.1247   -1.4348    0.0110 H         1 <0>         0.1363
     35 H10        -1.8220   -0.5682    0.0066 H         1 <0>         0.1570
     36 H11        -3.3276    3.4327    0.0453 H         1 <0>         0.1632
     37 H12         2.9274    0.8588   -0.0220 H         1 <0>         0.1459
     38 H13         4.4787    2.7741   -0.0273 H         1 <0>         0.1461
     39 H14         3.6147    5.0716   -0.0060 H         1 <0>         0.1461
     40 H15         1.1859    5.4898    0.0202 H         1 <0>         0.1459
@<TRIPOS>BOND
     1    1    6 ar
     2    1    2 ar
     3    1   26 1
     4    2    3 ar
     5    2   27 1
     6    3    4 ar
     7    3   28 1
     8    4    5 ar
     9    4    7 1
    10    5    6 ar
    11    5   29 1
    12    6   30 1
    13    7    8 1
    14    7   31 1
    15    7   32 1
    16    8    9 1
    17    9   14 ar
    18    9   10 ar
    19   10   11 ar
    20   10   33 1
    21   11   12 ar
    22   11   34 1
    23   12   13 ar
    24   12   35 1
    25   13   14 ar
    26   13   15 1
    27   14   36 1
    28   15   24 am
    29   15   16 am
    30   16   17 2
    31   16   18 1
    32   18   23 ar
    33   18   19 ar
    34   19   20 ar
    35   19   37 1
    36   20   21 ar
    37   20   38 1
    38   21   22 ar
    39   21   39 1
    40   22   23 ar
    41   22   40 1
    42   23   24 1
    43   24   25 2
@<TRIPOS>MOLECULE
ZINC28880806
   31    33     0     0     0
SMALL
USER_CHARGES
N-(3-chlorophenyl)-2-oxo-indoline-7-carboxamide
@<TRIPOS>ATOM
      1 C1         -7.1668    2.4746    0.4089 C.ar      1 <0>        -0.0854
      2 C2         -5.8697    2.9411    0.4984 C.ar      1 <0>        -0.1422
      3 C3         -4.8247    2.1888   -0.0218 C.ar      1 <0>         0.1642
      4 C4         -5.0878    0.9710   -0.6357 C.ar      1 <0>        -0.1166
      5 C5         -6.3870    0.5072   -0.7180 C.ar      1 <0>        -0.0145
      6 C6         -7.4260    1.2599   -0.1983 C.ar      1 <0>        -0.1267
      7 Cl1        -6.7171   -1.0173   -1.4801 Cl        1 <0>        -0.0626
      8 N1         -3.5107    2.6591    0.0672 N.am      1 <0>        -0.6787
      9 C7         -2.4920    1.7891    0.2144 C.2       1 <0>         0.5701
     10 O1         -2.7212    0.6045    0.3663 O.2       1 <0>        -0.5291
     11 C8         -1.0991    2.2736    0.1913 C.ar      1 <0>        -0.1700
     12 C9         -0.8333    3.6318    0.0122 C.ar      1 <0>        -0.0487
     13 C10         0.4669    4.0878   -0.0029 C.ar      1 <0>        -0.1500
     14 C11         1.5172    3.1957    0.1540 C.ar      1 <0>        -0.0318
     15 C12         1.2670    1.8536    0.3251 C.ar      1 <0>        -0.1599
     16 C13        -0.0337    1.3670    0.3448 C.ar      1 <0>         0.2139
     17 N2         -0.0319   -0.0093    0.5293 N.am      1 <0>        -0.6641
     18 C14         1.2107   -0.5086    0.6398 C.2       1 <0>         0.5347
     19 O2          1.5078   -1.6726    0.8067 O.2       1 <0>        -0.4943
     20 C15         2.1700    0.6564    0.5173 C.3       1 <0>        -0.1198
     21 H1         -7.9795    3.0596    0.8134 H         1 <0>         0.1381
     22 H2         -5.6685    3.8905    0.9723 H         1 <0>         0.1334
     23 H3         -4.2777    0.3856   -1.0448 H         1 <0>         0.1444
     24 H4         -8.4411    0.8978   -0.2676 H         1 <0>         0.1357
     25 H5         -3.3085    3.7392    0.0171 H         1 <0>         0.4372
     26 H6         -1.6495    4.3284   -0.1105 H         1 <0>         0.1334
     27 H7          0.6682    5.1403   -0.1373 H         1 <0>         0.1393
     28 H8          2.5353    3.5558    0.1414 H         1 <0>         0.1369
     29 H9         -0.9832   -0.5600    0.5697 H         1 <0>         0.4552
     30 H10         2.8357    0.5559   -0.3526 H         1 <0>         0.1290
     31 H11         2.7733    0.7944    1.4267 H         1 <0>         0.1290
@<TRIPOS>BOND
     1    1    6 ar
     2    1    2 ar
     3    1   21 1
     4    2    3 ar
     5    2   22 1
     6    3    4 ar
     7    3    8 1
     8    4    5 ar
     9    4   23 1
    10    5    6 ar
    11    5    7 1
    12    6   24 1
    13    8    9 am
    14    8   25 1
    15    9   10 2
    16    9   11 1
    17   11   16 ar
    18   11   12 ar
    19   12   13 ar
    20   12   26 1
    21   13   14 ar
    22   13   27 1
    23   14   15 ar
    24   14   28 1
    25   15   20 1
    26   15   16 ar
    27   16   17 1
    28   17   18 am
    29   17   29 1
    30   18   19 2
    31   18   20 1
    32   20   30 1
    33   20   31 1
@<TRIPOS>MOLECULE
ZINC28880926
   30    32     0     0     0
SMALL
USER_CHARGES
N-(3-chlorophenyl)-1H-indole-7-carboxamide
@<TRIPOS>ATOM
      1 C1         -4.9480    4.0755    0.3641 C.ar      1 <0>        -0.1632
      2 C2         -4.9880    5.4495    0.4765 C.ar      1 <0>        -0.0320
      3 C3         -3.8016    6.1841    0.4772 C.ar      1 <0>        -0.1240
      4 C4         -3.4897    7.6127    0.5774 C.2       1 <0>        -0.2066
      5 C5         -2.1535    7.7251    0.5211 C.2       1 <0>         0.0464
      6 N1         -1.5870    6.4854    0.3931 N.pl3     1 <0>        -0.5912
      7 H1         -0.4934    6.3841    0.3313 H         1 <0>         0.4546
      8 C6         -2.5648    5.5245    0.3633 C.ar      1 <0>         0.1652
      9 C7         -2.5405    4.1247    0.2493 C.ar      1 <0>        -0.1581
     10 C8         -3.7391    3.4138    0.2455 C.ar      1 <0>        -0.0558
     11 C9         -1.2549    3.4123    0.1283 C.2       1 <0>         0.5702
     12 O1         -0.2114    4.0368    0.1269 O.2       1 <0>        -0.5347
     13 N2         -1.2364    2.0691    0.0191 N.am      1 <0>        -0.6814
     14 C10        -0.0165    1.3856    0.0022 C.ar      1 <0>         0.1634
     15 C11         0.0887    0.1346    0.5970 C.ar      1 <0>        -0.1422
     16 C12         1.2930   -0.5408    0.5739 C.ar      1 <0>        -0.0869
     17 C13         2.3943    0.0266   -0.0406 C.ar      1 <0>        -0.1275
     18 C14         2.2933    1.2724   -0.6346 C.ar      1 <0>        -0.0164
     19 C15         1.0905    1.9535   -0.6142 C.ar      1 <0>        -0.1169
     20 Cl1         3.6783    1.9806   -1.4053 Cl        1 <0>        -0.0646
     21 H2         -5.8690    3.5115    0.3638 H         1 <0>         0.1319
     22 H3         -5.9374    5.9568    0.5637 H         1 <0>         0.1296
     23 H4         -4.1995    8.4206    0.6770 H         1 <0>         0.1487
     24 H5         -1.6066    8.6552    0.5692 H         1 <0>         0.1731
     25 H6         -3.7238    2.3378    0.1539 H         1 <0>         0.1274
     26 H7         -2.1809    1.5104   -0.0567 H         1 <0>         0.4366
     27 H8         -0.7708   -0.3096    1.0768 H         1 <0>         0.1330
     28 H9          1.3748   -1.5135    1.0360 H         1 <0>         0.1376
     29 H10         3.3350   -0.5037   -0.0572 H         1 <0>         0.1350
     30 H11         1.0118    2.9257   -1.0779 H         1 <0>         0.1488
@<TRIPOS>BOND
     1    1   10 ar
     2    1    2 ar
     3    1   21 1
     4    2    3 ar
     5    2   22 1
     6    3    8 ar
     7    3    4 1
     8    4    5 2
     9    4   23 1
    10    5    6 1
    11    5   24 1
    12    6    7 1
    13    6    8 1
    14    8    9 ar
    15    9   10 ar
    16    9   11 1
    17   10   25 1
    18   11   12 2
    19   11   13 am
    20   13   14 1
    21   13   26 1
    22   14   19 ar
    23   14   15 ar
    24   15   16 ar
    25   15   27 1
    26   16   17 ar
    27   16   28 1
    28   17   18 ar
    29   17   29 1
    30   18   19 ar
    31   18   20 1
    32   19   30 1
@<TRIPOS>MOLECULE
ZINC00001436
   28    29     0     0     0
SMALL
USER_CHARGES

@<TRIPOS>ATOM
      1 C1         -0.0177    1.4614   -0.0125 C.3       1 <0>         0.1258
      2 N1          0.0021   -0.0035   -0.0093 N.pl3     1 <0>        -0.6333
      3 C2         -1.1598   -0.9112   -0.0033 C.3       1 <0>         0.0415
      4 C3         -0.5311   -2.2896   -0.0023 C.2       1 <0>         0.4455
      5 O1         -1.1777   -3.4665    0.0021 O.3       1 <0>        -0.6320
      6 N2          0.7614   -2.1100   -0.0071 N.2       1 <0>        -0.6243
      7 C4          1.1035   -0.8171   -0.0171 C.2       1 <0>         0.6510
      8 N3          2.3550   -0.3773   -0.0293 N.2       1 <0>        -0.7061
      9 C5          3.3715   -1.2497   -0.0363 C.2       1 <0>         0.6664
     10 O2          3.1467   -2.4469   -0.0315 O.2       1 <0>        -0.5646
     11 N4          4.6430   -0.8028   -0.0486 N.am      1 <0>        -0.6746
     12 C6          5.7040   -1.7098    0.0415 C.ar      1 <0>         0.1991
     13 C7          6.8580   -1.3643    0.7332 C.ar      1 <0>        -0.1587
     14 C8          7.9041   -2.2616    0.8208 C.ar      1 <0>        -0.0911
     15 C9          7.8043   -3.5034    0.2207 C.ar      1 <0>        -0.1468
     16 C10         6.6563   -3.8512   -0.4693 C.ar      1 <0>        -0.0134
     17 C11         5.6035   -2.9593   -0.5554 C.ar      1 <0>        -0.1169
     18 Cl1         6.5352   -5.4113   -1.2211 Cl        1 <0>        -0.0772
     19 H1          1.0049    1.8386   -0.0219 H         1 <0>         0.0871
     20 H2         -0.5439    1.8157   -0.8988 H         1 <0>         0.0475
     21 H3         -0.5289    1.8198    0.8811 H         1 <0>         0.0475
     22 H4         -1.7590   -0.7620    0.8949 H         1 <0>         0.0926
     23 H5         -1.7650   -0.7660   -0.8982 H         1 <0>         0.0925
     24 H6          4.8223    0.1478   -0.1200 H         1 <0>         0.4053
     25 H7          6.9372   -0.3946    1.2020 H         1 <0>         0.1269
     26 H8          8.8015   -1.9929    1.3582 H         1 <0>         0.1289
     27 H9          8.6240   -4.2031    0.2903 H         1 <0>         0.1265
     28 H10         4.7056   -3.2327   -1.0898 H         1 <0>         0.1548
@<TRIPOS>BOND
     1    1    2 1
     2    1   19 1
     3    1   20 1
     4    1   21 1
     5    2    7 1
     6    2    3 1
     7    3    4 1
     8    3   22 1
     9    3   23 1
    10    4    5 1
    11    4    6 2
    12    6    7 1
    13    7    8 2
    14    8    9 1
    15    9   10 2
    16    9   11 am
    17   11   12 1
    18   11   24 1
    19   12   17 ar
    20   12   13 ar
    21   13   14 ar
    22   13   25 1
    23   14   15 ar
    24   14   26 1
    25   15   16 ar
    26   15   27 1
    27   16   17 ar
    28   16   18 1
    29   17   28 1
@<TRIPOS>MOLECULE
ZINC28882889
   30    31     0     0     0
SMALL
USER_CHARGES

@<TRIPOS>ATOM
      1 C1         -1.2464    1.1845    0.1653 C.3       1 <0>        -0.1035
      2 C2         -0.5643   -0.1564    0.0763 C.ar      1 <0>        -0.1859
      3 C3         -0.5237   -0.8424   -1.1199 C.ar      1 <0>         0.1090
      4 N1          0.0716   -2.0169   -1.2062 N.ar      1 <0>        -0.5106
      5 C4          0.6500   -2.5840   -0.1640 C.ar      1 <0>         0.1028
      6 C5          0.6536   -1.9630    1.0673 C.ar      1 <0>        -0.1732
      7 C6          0.0395   -0.7181    1.2002 C.ar      1 <0>         0.2261
      8 N2          0.0253   -0.0547    2.4268 N.am      1 <0>        -0.6679
      9 C7         -0.0560   -0.7590    3.5730 C.2       1 <0>         0.6671
     10 O1         -0.0395   -1.9766    3.5421 O.2       1 <0>        -0.5637
     11 N3         -0.1550   -0.1201    4.7461 N.2       1 <0>        -0.7059
     12 C8         -0.2350   -0.8134    5.8743 C.2       1 <0>         0.6516
     13 N4         -0.2187   -2.1492    5.9382 N.2       1 <0>        -0.6249
     14 C9         -0.3103   -2.5967    7.1606 C.2       1 <0>         0.4458
     15 O2         -0.3204   -3.8832    7.5455 O.3       1 <0>        -0.6314
     16 C10        -0.4025   -1.3816    8.0608 C.3       1 <0>         0.0414
     17 N5         -0.3386   -0.2498    7.1179 N.pl3     1 <0>        -0.6328
     18 C11        -0.3801    1.1781    7.4432 C.3       1 <0>         0.1255
     19 H1         -0.5273    1.9733   -0.0552 H         1 <0>         0.0668
     20 H2         -2.0630    1.2253   -0.5556 H         1 <0>         0.0677
     21 H3         -1.6424    1.3246    1.1711 H         1 <0>         0.0662
     22 H4         -0.9853   -0.4129   -1.9967 H         1 <0>         0.1497
     23 H5          1.1262   -3.5468   -0.2770 H         1 <0>         0.1525
     24 H6          1.1286   -2.4325    1.9160 H         1 <0>         0.1534
     25 H7          0.0739    0.9137    2.4550 H         1 <0>         0.4053
     26 H8         -1.3463   -1.3787    8.6062 H         1 <0>         0.0932
     27 H9          0.4408   -1.3500    8.7506 H         1 <0>         0.0929
     28 H10        -0.3153    1.7619    6.5250 H         1 <0>         0.0871
     29 H11        -1.3152    1.4073    7.9542 H         1 <0>         0.0478
     30 H12         0.4593    1.4274    8.0923 H         1 <0>         0.0481
@<TRIPOS>BOND
     1    1    2 1
     2    1   19 1
     3    1   20 1
     4    1   21 1
     5    2    7 ar
     6    2    3 ar
     7    3    4 ar
     8    3   22 1
     9    4    5 ar
    10    5    6 ar
    11    5   23 1
    12    6    7 ar
    13    6   24 1
    14    7    8 1
    15    8    9 am
    16    8   25 1
    17    9   10 2
    18    9   11 1
    19   11   12 2
    20   12   17 1
    21   12   13 1
    22   13   14 2
    23   14   15 1
    24   14   16 1
    25   16   17 1
    26   16   26 1
    27   16   27 1
    28   17   18 1
    29   18   28 1
    30   18   29 1
    31   18   30 1
@<TRIPOS>MOLECULE
ZINC28881381
   30    32     0     0     0
SMALL
USER_CHARGES
N-(2-methyl-4-pyridyl)-2-oxo-3H-1,3-benzoxazole-4-carboxamide
@<TRIPOS>ATOM
      1 C1          1.3267    3.3075   -1.2380 C.3       1 <0>        -0.1030
      2 C2          1.2522    1.9465   -0.5953 C.ar      1 <0>         0.1403
      3 C3          0.0587    1.2546   -0.6020 C.ar      1 <0>        -0.1785
      4 C4          0.0017   -0.0036   -0.0044 C.ar      1 <0>         0.2138
      5 C5          1.1624   -0.5112    0.5782 C.ar      1 <0>        -0.2187
      6 C6          2.3158    0.2440    0.5424 C.ar      1 <0>         0.1164
      7 N1          2.3295    1.4314   -0.0336 N.ar      1 <0>        -0.5091
      8 N2         -1.1852   -0.7357    0.0099 N.am      1 <0>        -0.6929
      9 C7         -2.3678   -0.0999    0.1268 C.2       1 <0>         0.5640
     10 O1         -2.4065    1.1154    0.1338 O.2       1 <0>        -0.4906
     11 C8         -3.6148   -0.8781    0.2461 C.ar      1 <0>        -0.1763
     12 C9         -3.5770   -2.2750    0.2328 C.ar      1 <0>        -0.0690
     13 C10        -4.7452   -2.9979    0.3518 C.ar      1 <0>        -0.1859
     14 C11        -5.9631   -2.3509    0.4712 C.ar      1 <0>        -0.0557
     15 C12        -6.0204   -0.9669    0.4801 C.ar      1 <0>        -0.0340
     16 C13        -4.8461   -0.2232    0.3678 C.ar      1 <0>         0.1651
     17 N3         -5.2147    1.1142    0.4073 N.2       1 <0>        -0.6203
     18 C14        -6.5551    1.1638    0.5379 C.2       1 <0>         0.5519
     19 O2         -7.2172    2.1813    0.6052 O.3       1 <0>        -0.5593
     20 O3         -7.0455   -0.0851    0.5823 O.3       1 <0>        -0.3101
     21 H1          0.3421    3.5724   -1.6509 H         1 <0>         0.0757
     22 H2          2.0713    3.2904   -2.0475 H         1 <0>         0.0750
     23 H3          1.6211    4.0531   -0.4847 H         1 <0>         0.0768
     24 H4         -0.8194    1.6818   -1.0634 H         1 <0>         0.1506
     25 H5          1.1570   -1.4804    1.0548 H         1 <0>         0.1336
     26 H6          3.2195   -0.1413    0.9912 H         1 <0>         0.1538
     27 H7         -1.1562   -1.8321   -0.0742 H         1 <0>         0.4291
     28 H8         -2.6319   -2.7886    0.1348 H         1 <0>         0.1158
     29 H9         -4.7103   -4.0773    0.3458 H         1 <0>         0.1235
     30 H10        -6.8722   -2.9274    0.5582 H         1 <0>         0.1177
@<TRIPOS>BOND
     1    1    2 1
     2    1   21 1
     3    1   22 1
     4    1   23 1
     5    2    7 ar
     6    2    3 ar
     7    3    4 ar
     8    3   24 1
     9    4    5 ar
    10    4    8 1
    11    5    6 ar
    12    5   25 1
    13    6    7 ar
    14    6   26 1
    15    8    9 am
    16    8   27 1
    17    9   10 2
    18    9   11 1
    19   11   16 ar
    20   11   12 ar
    21   12   13 ar
    22   12   28 1
    23   13   14 ar
    24   13   29 1
    25   14   15 ar
    26   14   30 1
    27   15   20 1
    28   15   16 ar
    29   16   17 1
    30   17   18 2
    31   18   19 1
    32   18   20 1
@<TRIPOS>MOLECULE
ZINC28967975
   32    34     0     0     0
SMALL
USER_CHARGES
2-(2-phenylethynyl)-7,8-dihydro-6H-quinolin-5-one
@<TRIPOS>ATOM
      1 C1          3.0587    2.3534   -9.2032 C.ar      1 <0>        -0.1036
      2 C2          3.6443    1.9167   -8.0277 C.ar      1 <0>        -0.1198
      3 C3          2.9045    1.8569   -6.8655 C.ar      1 <0>        -0.0894
      4 C4          1.5598    2.2388   -6.8767 C.ar      1 <0>         0.0004
      5 C5          0.9739    2.6738   -8.0691 C.ar      1 <0>        -0.0877
      6 C6          1.7282    2.7335   -9.2221 C.ar      1 <0>        -0.1194
      7 C7          0.7847    2.1791   -5.6741 C.1       1 <0>        -0.0607
      8 C8          0.1493    2.1302   -4.6881 C.1       1 <0>        -0.1269
      9 C9         -0.6258    2.0705   -3.4855 C.ar      1 <0>         0.2731
     10 C10        -1.9714    2.4565   -3.5135 C.ar      1 <0>        -0.1615
     11 C11        -2.7033    2.3983   -2.3586 C.ar      1 <0>        -0.0135
     12 C12        -2.0701    1.9512   -1.1878 C.ar      1 <0>        -0.2203
     13 C13        -0.7240    1.5762   -1.2247 C.ar      1 <0>         0.1926
     14 N1         -0.0558    1.6496   -2.3601 N.ar      1 <0>        -0.4795
     15 C14        -0.0127    1.0858    0.0080 C.3       1 <0>        -0.0802
     16 C15        -0.7098    1.5694    1.2765 C.3       1 <0>        -0.1172
     17 C16        -2.1857    1.1558    1.2379 C.3       1 <0>        -0.1677
     18 C17        -2.8267    1.8813    0.0727 C.2       1 <0>         0.4054
     19 O1         -3.9245    2.3871    0.1750 O.2       1 <0>        -0.4466
     20 H1          3.6432    2.3980  -10.1103 H         1 <0>         0.1283
     21 H2          4.6834    1.6224   -8.0205 H         1 <0>         0.1307
     22 H3          3.3627    1.5156   -5.9490 H         1 <0>         0.1288
     23 H4         -0.0656    2.9661   -8.0864 H         1 <0>         0.1293
     24 H5          1.2781    3.0732  -10.1432 H         1 <0>         0.1309
     25 H6         -2.4253    2.7949   -4.4332 H         1 <0>         0.1484
     26 H7         -3.7432    2.6898   -2.3478 H         1 <0>         0.1525
     27 H8         -0.0012   -0.0141    0.0115 H         1 <0>         0.0994
     28 H9          1.0205    1.4633    0.0098 H         1 <0>         0.0993
     29 H10        -0.2256    1.1189    2.1555 H         1 <0>         0.0923
     30 H11        -0.6376    2.6652    1.3396 H         1 <0>         0.0733
     31 H12        -2.2578    0.0667    1.1013 H         1 <0>         0.1078
     32 H13        -2.6709    1.4397    2.1834 H         1 <0>         0.1014
@<TRIPOS>BOND
     1    1    6 ar
     2    1    2 ar
     3    1   20 1
     4    2    3 ar
     5    2   21 1
     6    3    4 ar
     7    3   22 1
     8    4    5 ar
     9    4    7 1
    10    5    6 ar
    11    5   23 1
    12    6   24 1
    13    7    8 3
    14    8    9 1
    15    9   14 ar
    16    9   10 ar
    17   10   11 ar
    18   10   25 1
    19   11   12 ar
    20   11   26 1
    21   12   18 1
    22   12   13 ar
    23   13   14 ar
    24   13   15 1
    25   15   16 1
    26   15   27 1
    27   15   28 1
    28   16   17 1
    29   16   29 1
    30   16   30 1
    31   17   18 1
    32   17   31 1
    33   17   32 1
    34   18   19 2
@<TRIPOS>MOLECULE
ZINC13779018
   19    19     0     0     0
SMALL
USER_CHARGES

@<TRIPOS>ATOM
      1 C1         -0.0187    1.5258    0.0104 C.3       1 <0>         0.1559
      2 C2          0.0021   -0.0041    0.0020 C.3       1 <0>        -0.0639
      3 H1          0.4501   -0.3665    0.9272 H         1 <0>         0.1320
      4 C3         -1.4075   -0.5249   -0.1112 C.2       1 <0>         0.4991
      5 O1         -1.7761   -1.0680   -1.1386 O.co2     1 <0>        -0.6678
      6 O2         -2.1794   -0.4033    0.8248 O.co2     1 <0>        -0.6405
      7 N1          0.7922   -0.4768   -1.1426 N.4       1 <0>        -0.6027
      8 N2          1.3557    2.0329    0.0000 N.pl3     1 <0>        -0.5059
      9 C4          2.1974    2.0610   -1.0502 C.2       1 <0>         0.5942
     10 O3          1.9169    1.6204   -2.2941 O.3       1 <0>        -0.6607
     11 N3          3.3403    2.5907   -0.6628 N.2       1 <0>        -0.6559
     12 C5          3.2823    2.9189    0.6279 C.2       1 <0>         0.5845
     13 O4          4.1815    3.4284    1.2748 O.2       1 <0>        -0.5268
     14 O5          2.0627    2.5981    1.0944 O.3       1 <0>        -0.1559
     15 H2         -0.5459    1.8868   -0.8726 H         1 <0>         0.1126
     16 H3         -0.5289    1.8773    0.9072 H         1 <0>         0.1283
     17 H4          0.3774   -0.1413   -1.9991 H         1 <0>         0.4369
     18 H5          1.7359   -0.1280   -1.0669 H         1 <0>         0.4173
     19 H6          0.8059   -1.4857   -1.1482 H         1 <0>         0.4191
@<TRIPOS>BOND
     1    1    2 1
     2    1    8 1
     3    1   15 1
     4    1   16 1
     5    2    3 1
     6    2    4 1
     7    2    7 1
     8    4    5 2
     9    4    6 1
    10    7   17 1
    11    7   18 1
    12    7   19 1
    13    8   14 1
    14    8    9 1
    15    9   10 1
    16    9   11 2
    17   11   12 1
    18   12   13 2
    19   12   14 1
@<TRIPOS>MOLECULE
ZINC13779018
   20    20     0     0     0
SMALL
USER_CHARGES

@<TRIPOS>ATOM
      1 C1         -0.0187    1.5258    0.0104 C.3       1 <0>         0.1622
      2 C2          0.0021   -0.0041    0.0020 C.3       1 <0>         0.0738
      3 H1          0.4501   -0.3665    0.9272 H         1 <0>         0.1320
      4 C3         -1.4075   -0.5249   -0.1112 C.2       1 <0>         0.4457
      5 O1         -1.8299   -0.8975   -1.1801 O.2       1 <0>        -0.5041
      6 O2         -2.1938   -0.5750    0.9756 O.3       1 <0>        -0.5011
      7 N1          0.7922   -0.4768   -1.1426 N.3       1 <0>        -0.8119
      8 N2          1.3557    2.0329    0.0000 N.pl3     1 <0>        -0.4321
      9 C4          2.1974    2.0610   -1.0502 C.2       1 <0>         0.6249
     10 N3          3.3406    2.5899   -0.6626 N.2       1 <0>        -0.6311
     11 C5          3.2828    2.9177    0.6282 C.2       1 <0>         0.5998
     12 O3          4.1822    3.4265    1.2753 O.2       1 <0>        -0.4634
     13 O4          2.0627    2.5981    1.0944 O.3       1 <0>        -0.1103
     14 O5          1.9169    1.6204   -2.2941 O.3       1 <0>        -0.4110
     15 H2         -0.5459    1.8868   -0.8726 H         1 <0>         0.1177
     16 H3         -0.5289    1.8773    0.9072 H         1 <0>         0.1297
     17 H4         -3.0795   -0.9232    0.8045 H         1 <0>         0.4131
     18 H5          0.8750   -1.4823   -1.1342 H         1 <0>         0.3592
     19 H6          0.3968   -0.1538   -2.0130 H         1 <0>         0.3617
     20 H7          2.6463    1.7214   -2.9209 H         1 <0>         0.4452
@<TRIPOS>BOND
     1    1    2 1
     2    1    8 1
     3    1   15 1
     4    1   16 1
     5    2    3 1
     6    2    4 1
     7    2    7 1
     8    4    5 2
     9    4    6 1
    10    6   17 1
    11    7   18 1
    12    7   19 1
    13    8   13 1
    14    8    9 1
    15    9   10 2
    16    9   14 1
    17   10   11 1
    18   11   12 2
    19   11   13 1
    20   14   20 1
@<TRIPOS>MOLECULE
ZINC01489321
   22    23     0     0     0
SMALL
USER_CHARGES

@<TRIPOS>ATOM
      1 C1          8.4297    0.6198   -0.0714 C.3       1 <0>        -0.0679
      2 C2          7.0514    0.0104   -0.0617 C.2       1 <0>         0.1038
      3 N1          5.8891    0.6137   -0.0482 N.2       1 <0>        -0.5013
      4 C3          4.7531   -0.0708   -0.0410 C.2       1 <0>         0.1611
      5 C4          4.8338   -1.4424   -0.0425 C.2       1 <0>        -0.1874
      6 S1          6.6061   -1.6675   -0.0655 S.3       1 <0>         0.0676
      7 C5          3.4862    0.5966   -0.0263 C.1       1 <0>        -0.0788
      8 C6          2.4476    1.1438   -0.0142 C.1       1 <0>        -0.0931
      9 C7          1.1808    1.8112    0.0005 C.ar      1 <0>        -0.0380
     10 C8         -0.0126    1.0758    0.0080 C.ar      1 <0>        -0.0510
     11 C9         -1.2093    1.7691    0.0173 C.ar      1 <0>        -0.1700
     12 C10        -1.1910    3.1527    0.0294 C.ar      1 <0>         0.1087
     13 N2         -0.0528    3.8196    0.0221 N.ar      1 <0>        -0.4809
     14 C11         1.1126    3.2067    0.0082 C.ar      1 <0>         0.1307
     15 H1          8.7714    0.7619    0.9539 H         1 <0>         0.0955
     16 H2          9.1171   -0.0448   -0.5947 H         1 <0>         0.0914
     17 H3          8.3974    1.5831   -0.5804 H         1 <0>         0.0973
     18 H4          4.0448   -2.1798   -0.0338 H         1 <0>         0.2036
     19 H5          0.0021   -0.0041    0.0020 H         1 <0>         0.1403
     20 H6         -2.1486    1.2360    0.0191 H         1 <0>         0.1436
     21 H7         -2.1244    3.6959    0.0409 H         1 <0>         0.1621
     22 H8          2.0232    3.7875    0.0029 H         1 <0>         0.1627
@<TRIPOS>BOND
     1    1    2 1
     2    1   15 1
     3    1   16 1
     4    1   17 1
     5    2    6 1
     6    2    3 2
     7    3    4 1
     8    4    5 2
     9    4    7 1
    10    5    6 1
    11    5   18 1
    12    7    8 3
    13    8    9 1
    14    9   14 ar
    15    9   10 ar
    16   10   11 ar
    17   10   19 1
    18   11   12 ar
    19   11   20 1
    20   12   13 ar
    21   12   21 1
    22   13   14 ar
    23   14   22 1
@<TRIPOS>MOLECULE
ZINC04391801
   23    24     0     0     0
SMALL
USER_CHARGES
3-aminobicyclo[2.1.1]hexane-3,5-dicarboxylic acid
@<TRIPOS>ATOM
      1 C1         -0.1932    1.8486    1.3557 C.3       1 <0>        -0.1075
      2 C2         -0.0127    1.0858    0.0080 C.3       1 <0>        -0.1190
      3 H1          0.0021   -0.0041    0.0020 H         1 <0>         0.1102
      4 C3         -0.8680    1.8164   -1.0830 C.3       1 <0>        -0.1018
      5 C4         -0.5567    3.3008   -0.6708 C.3       1 <0>         0.0043
      6 C5          0.4072    3.0300    0.5346 C.3       1 <0>        -0.1028
      7 H2          0.8428    3.8891    1.0448 H         1 <0>         0.1136
      8 C6          1.3119    1.8907   -0.0003 C.3       1 <0>        -0.1477
      9 H3          1.7207    2.0692   -0.9949 H         1 <0>         0.0572
     10 C7          2.3393    1.4013    0.9875 C.2       1 <0>         0.4810
     11 O1          2.4893    1.9777    2.0388 O.co2     1 <0>        -0.6253
     12 C8         -1.7980    4.0331   -0.2304 C.2       1 <0>         0.4745
     13 O2         -2.1775    3.9453    0.9133 O.co2     1 <0>        -0.5698
     14 H4         -1.2312    1.9915    1.6558 H         1 <0>         0.0810
     15 H5          0.4460    1.4918    2.1633 H         1 <0>         0.1155
     16 H6         -0.5164    1.5826   -2.0879 H         1 <0>         0.0842
     17 H7         -1.9293    1.5935   -0.9730 H         1 <0>         0.0957
     18 H8         -0.4992    4.1875   -2.5280 H         1 <0>         0.4340
     19 H9          0.5323    4.8784   -1.4215 H         1 <0>         0.4272
     20 O3          3.0880    0.3250    0.6995 O.co2     1 <0>        -0.7600
     21 O4         -2.4821    4.7830   -1.1088 O.co2     1 <0>        -0.7509
     22 N1          0.1452    3.9998   -1.7617 N.4       1 <0>        -0.6124
     23 H10         0.9103    3.4072   -2.1050 H         1 <0>         0.4190
@<TRIPOS>BOND
     1    1    6 1
     2    1    2 1
     3    1   14 1
     4    1   15 1
     5    2    3 1
     6    2    8 1
     7    2    4 1
     8    4    5 1
     9    4   16 1
    10    4   17 1
    11    5    6 1
    12    5   12 1
    13    5   22 1
    14    6    7 1
    15    6    8 1
    16    8    9 1
    17    8   10 1
    18   10   11 2
    19   10   20 1
    20   12   13 2
    21   12   21 1
    22   18   22 1
    23   19   22 1
    24   22   23 1
@<TRIPOS>MOLECULE
ZINC13584912
   46    49     0     0     0
SMALL
USER_CHARGES
N-(2,5-diphenylpyrazol-3-yl)-3-methyl-benzamide
@<TRIPOS>ATOM
      1 C1         -2.5138    0.9721    0.0188 C.3       1 <0>        -0.1184
      2 C2         -1.2220    1.7483    0.0174 C.ar      1 <0>        -0.0894
      3 C3         -0.0126    1.0758    0.0080 C.ar      1 <0>        -0.0878
      4 C4          1.1778    1.7807    0.0004 C.ar      1 <0>        -0.1189
      5 C5          1.1662    3.1603    0.0079 C.ar      1 <0>        -0.0935
      6 C6         -0.0501    3.8448    0.0232 C.ar      1 <0>        -0.1325
      7 C7         -1.2478    3.1273    0.0308 C.ar      1 <0>        -0.0537
      8 C8         -0.0702    5.3227    0.0308 C.2       1 <0>         0.5687
      9 O1         -1.1311    5.9161    0.0441 O.2       1 <0>        -0.4962
     10 N1          1.0877    6.0124    0.0230 N.am      1 <0>        -0.6478
     11 C9          1.0688    7.4058    0.0302 C.2       1 <0>         0.3111
     12 C10        -0.0392    8.1928    0.0390 C.2       1 <0>        -0.2524
     13 C11         0.3859    9.5347    0.0463 C.2       1 <0>         0.1371
     14 N2          1.7025    9.5491    0.0340 N.2       1 <0>        -0.2685
     15 N3          2.1573    8.2245    0.0238 N.pl3     1 <0>        -0.3387
     16 C12         3.4965    7.8137    0.0098 C.ar      1 <0>         0.1560
     17 C13         3.8803    6.6688    0.6955 C.ar      1 <0>        -0.1527
     18 C14         5.2004    6.2633    0.6750 C.ar      1 <0>        -0.0907
     19 C15         6.1416    7.0024   -0.0179 C.ar      1 <0>        -0.1217
     20 C16         5.7636    8.1462   -0.6970 C.ar      1 <0>        -0.0926
     21 C17         4.4441    8.5538   -0.6851 C.ar      1 <0>        -0.1089
     22 C18        -0.4972   10.7271    0.0603 C.ar      1 <0>        -0.0206
     23 C19        -1.8819   10.5717    0.0673 C.ar      1 <0>        -0.0891
     24 C20        -2.6984   11.6842    0.0862 C.ar      1 <0>        -0.1213
     25 C21        -2.1447   12.9518    0.0867 C.ar      1 <0>        -0.1087
     26 C22        -0.7708   13.1119    0.0740 C.ar      1 <0>        -0.1233
     27 C23         0.0552   12.0064    0.0609 C.ar      1 <0>        -0.0892
     28 H1         -2.8205    0.7790    1.0468 H         1 <0>         0.0757
     29 H2         -3.2859    1.5508   -0.4882 H         1 <0>         0.0716
     30 H3         -2.3692    0.0251   -0.5012 H         1 <0>         0.0711
     31 H4          0.0021   -0.0041    0.0020 H         1 <0>         0.1314
     32 H5          2.1182    1.2498   -0.0118 H         1 <0>         0.1334
     33 H6          2.0961    3.7094    0.0023 H         1 <0>         0.1220
     34 H7         -2.1923    3.6508    0.0426 H         1 <0>         0.1404
     35 H8          1.9342    5.5389    0.0124 H         1 <0>         0.4125
     36 H9         -1.0633    7.8498    0.0422 H         1 <0>         0.1826
     37 H10         3.1465    6.0936    1.2405 H         1 <0>         0.1247
     38 H11         5.4987    5.3702    1.2041 H         1 <0>         0.1360
     39 H12         7.1740    6.6855   -0.0290 H         1 <0>         0.1327
     40 H13         6.5011    8.7215   -1.2369 H         1 <0>         0.1356
     41 H14         4.1494    9.4470   -1.2159 H         1 <0>         0.1366
     42 H15        -2.3153    9.5825    0.0624 H         1 <0>         0.1303
     43 H16        -3.7718   11.5649    0.0961 H         1 <0>         0.1278
     44 H17        -2.7874   13.8197    0.0973 H         1 <0>         0.1247
     45 H18        -0.3438   14.1039    0.0741 H         1 <0>         0.1261
     46 H19         1.1278   12.1325    0.0514 H         1 <0>         0.1286
@<TRIPOS>BOND
     1    1    2 1
     2    1   28 1
     3    1   29 1
     4    1   30 1
     5    2    7 ar
     6    2    3 ar
     7    3    4 ar
     8    3   31 1
     9    4    5 ar
    10    4   32 1
    11    5    6 ar
    12    5   33 1
    13    6    7 ar
    14    6    8 1
    15    7   34 1
    16    8    9 2
    17    8   10 am
    18   10   11 1
    19   10   35 1
    20   11   15 1
    21   11   12 2
    22   12   13 1
    23   12   36 1
    24   13   14 2
    25   13   22 1
    26   14   15 1
    27   15   16 1
    28   16   21 ar
    29   16   17 ar
    30   17   18 ar
    31   17   37 1
    32   18   19 ar
    33   18   38 1
    34   19   20 ar
    35   19   39 1
    36   20   21 ar
    37   20   40 1
    38   21   41 1
    39   22   27 ar
    40   22   23 ar
    41   23   24 ar
    42   23   42 1
    43   24   25 ar
    44   24   43 1
    45   25   26 ar
    46   25   44 1
    47   26   27 ar
    48   26   45 1
    49   27   46 1
@<TRIPOS>MOLECULE
ZINC22243236
   25    26     0     0     0
SMALL
USER_CHARGES

@<TRIPOS>ATOM
      1 C1          2.3741    1.4320   -0.0762 C.ar      1 <0>        -0.0470
      2 C2          1.1329    2.0537   -0.0468 C.ar      1 <0>        -0.2024
      3 C3         -0.0104    1.2799   -0.0231 C.ar      1 <0>         0.1313
      4 N1          0.0639   -0.0373   -0.0276 N.ar      1 <0>        -0.4788
      5 C4          1.2279   -0.6669   -0.0553 C.ar      1 <0>         0.3562
      6 C5          2.4197    0.0492   -0.0806 C.ar      1 <0>        -0.2031
      7 N2          1.2594   -2.0596   -0.0585 N.am      1 <0>        -0.6415
      8 C6          0.1150   -2.7598    0.0699 C.2       1 <0>         0.5862
      9 O1         -0.9530   -2.1797    0.0948 O.2       1 <0>        -0.4776
     10 C7          0.1585   -4.2320    0.1804 C.ar      1 <0>        -0.0638
     11 C8         -1.0342   -4.9742    0.1963 C.ar      1 <0>         0.4179
     12 N3         -0.9833   -6.2975    0.2956 N.ar      1 <0>        -0.5085
     13 C9          0.1844   -6.9087    0.3786 C.ar      1 <0>         0.1471
     14 C10         1.3621   -6.1751    0.3627 C.ar      1 <0>        -0.0229
     15 N4          1.3271   -4.8620    0.2597 N.ar      1 <0>        -0.3731
     16 N5         -2.2547   -4.3302    0.1097 N.pl3     1 <0>        -0.8127
     17 H1          3.2831    2.0146   -0.0995 H         1 <0>         0.1398
     18 H2          1.0625    3.1314   -0.0422 H         1 <0>         0.1373
     19 H3         -0.9780    1.7591   -0.0002 H         1 <0>         0.1605
     20 H4          3.3681   -0.4670   -0.1035 H         1 <0>         0.1381
     21 H5          2.1050   -2.5254   -0.1532 H         1 <0>         0.4284
     22 H6          0.2229   -7.9850    0.4595 H         1 <0>         0.1788
     23 H7          2.3125   -6.6834    0.4311 H         1 <0>         0.1767
     24 H8         -2.2932   -3.3610    0.1163 H         1 <0>         0.4284
     25 H9         -3.0724   -4.8477    0.0422 H         1 <0>         0.4045
@<TRIPOS>BOND
     1    1    6 ar
     2    1    2 ar
     3    1   17 1
     4    2    3 ar
     5    2   18 1
     6    3    4 ar
     7    3   19 1
     8    4    5 ar
     9    5    6 ar
    10    5    7 1
    11    6   20 1
    12    7    8 am
    13    7   21 1
    14    8    9 2
    15    8   10 1
    16   10   15 ar
    17   10   11 ar
    18   11   12 ar
    19   11   16 1
    20   12   13 ar
    21   13   14 ar
    22   13   22 1
    23   14   15 ar
    24   14   23 1
    25   16   24 1
    26   16   25 1
@<TRIPOS>MOLECULE
ZINC01037297
   43    46     0     0     0
SMALL
USER_CHARGES

@<TRIPOS>ATOM
      1 C1         -0.0167    1.3790    0.0096 C.ar      1 <0>        -0.1084
      2 C2          1.1687    2.0919    0.0021 C.ar      1 <0>        -0.1235
      3 C3          2.3774    1.4259   -0.0134 C.ar      1 <0>        -0.0890
      4 C4          2.4022    0.0327   -0.0211 C.ar      1 <0>        -0.0213
      5 C5          1.2051   -0.6804   -0.0130 C.ar      1 <0>        -0.0888
      6 C6          0.0021   -0.0041    0.0020 C.ar      1 <0>        -0.1212
      7 C7          3.6987   -0.6889   -0.0383 C.2       1 <0>         0.1381
      8 C8          3.8652   -2.0866   -0.0530 C.2       1 <0>        -0.2511
      9 C9          5.1992   -2.3461   -0.0661 C.2       1 <0>         0.3108
     10 N1          5.8530   -1.1512   -0.0597 N.pl3     1 <0>        -0.3386
     11 N2          4.8919   -0.1323   -0.0480 N.2       1 <0>        -0.2678
     12 C10         7.2423   -0.9726   -0.0689 C.ar      1 <0>         0.1567
     13 C11         8.0637   -1.8702    0.6005 C.ar      1 <0>        -0.1540
     14 C12         9.4331   -1.6916    0.5891 C.ar      1 <0>        -0.0903
     15 C13         9.9866   -0.6202   -0.0876 C.ar      1 <0>        -0.1221
     16 C14         9.1714    0.2756   -0.7548 C.ar      1 <0>        -0.0919
     17 C15         7.8016    0.0991   -0.7524 C.ar      1 <0>        -0.1093
     18 N3          5.7915   -3.6075   -0.0825 N.am      1 <0>        -0.6465
     19 C16         5.0214   -4.7135   -0.0871 C.2       1 <0>         0.5670
     20 O1          3.8099   -4.6109   -0.0770 O.2       1 <0>        -0.4835
     21 C17         5.6489   -6.0500   -0.1045 C.ar      1 <0>        -0.1769
     22 C18         7.0403   -6.1721   -0.1104 C.ar      1 <0>        -0.0589
     23 C19         7.6199   -7.4227   -0.1267 C.ar      1 <0>        -0.1351
     24 C20         6.8272   -8.5580   -0.1373 C.ar      1 <0>        -0.0550
     25 C21         5.4496   -8.4478   -0.1320 C.ar      1 <0>        -0.1613
     26 C22         4.8533   -7.1999   -0.1094 C.ar      1 <0>         0.1688
     27 F1          3.5066   -7.0924   -0.0977 F         1 <0>        -0.1105
     28 H1         -0.9603    1.9042    0.0260 H         1 <0>         0.1248
     29 H2          1.1483    3.1717    0.0081 H         1 <0>         0.1262
     30 H3          3.3023    1.9835   -0.0199 H         1 <0>         0.1286
     31 H4          1.2186   -1.7603   -0.0192 H         1 <0>         0.1305
     32 H5         -0.9264   -0.5558    0.0082 H         1 <0>         0.1280
     33 H6          3.0740   -2.8216   -0.0536 H         1 <0>         0.1828
     34 H7          7.6320   -2.7067    1.1298 H         1 <0>         0.1245
     35 H8         10.0724   -2.3893    1.1096 H         1 <0>         0.1361
     36 H9         11.0577   -0.4825   -0.0947 H         1 <0>         0.1328
     37 H10         9.6065    1.1118   -1.2819 H         1 <0>         0.1356
     38 H11         7.1657    0.7963   -1.2777 H         1 <0>         0.1367
     39 H12         6.7580   -3.6894   -0.0906 H         1 <0>         0.4119
     40 H13         7.6610   -5.2883   -0.1026 H         1 <0>         0.1323
     41 H14         8.6957   -7.5174   -0.1316 H         1 <0>         0.1411
     42 H15         7.2879   -9.5347   -0.1500 H         1 <0>         0.1432
     43 H16         4.8376   -9.3376   -0.1410 H         1 <0>         0.1483
@<TRIPOS>BOND
     1    1    6 ar
     2    1    2 ar
     3    1   28 1
     4    2    3 ar
     5    2   29 1
     6    3    4 ar
     7    3   30 1
     8    4    5 ar
     9    4    7 1
    10    5    6 ar
    11    5   31 1
    12    6   32 1
    13    7   11 2
    14    7    8 1
    15    8    9 2
    16    8   33 1
    17    9   10 1
    18    9   18 1
    19   10   11 1
    20   10   12 1
    21   12   17 ar
    22   12   13 ar
    23   13   14 ar
    24   13   34 1
    25   14   15 ar
    26   14   35 1
    27   15   16 ar
    28   15   36 1
    29   16   17 ar
    30   16   37 1
    31   17   38 1
    32   18   19 am
    33   18   39 1
    34   19   20 2
    35   19   21 1
    36   21   26 ar
    37   21   22 ar
    38   22   23 ar
    39   22   40 1
    40   23   24 ar
    41   23   41 1
    42   24   25 ar
    43   24   42 1
    44   25   26 ar
    45   25   43 1
    46   26   27 1
@<TRIPOS>MOLECULE
ZINC01037297
   48    51     0     0     0
SMALL
USER_CHARGES

@<TRIPOS>ATOM
      1 C1         -2.1415    0.1757    0.7878 C.3       1 <0>        -0.1414
      2 C2         -1.1626   -0.8915    0.3708 C.ar      1 <0>         0.0303
      3 C3         -1.2817   -1.5084   -0.8526 C.ar      1 <0>        -0.1911
      4 C4         -0.3796   -2.4900   -1.2341 C.ar      1 <0>         0.1915
      5 N1          0.6033   -2.8436   -0.4290 N.ar      1 <0>        -0.4597
      6 C5          0.7596   -2.2829    0.7507 C.ar      1 <0>         0.1442
      7 C6         -0.1021   -1.2702    1.2306 C.ar      1 <0>        -0.1971
      8 C7          0.2218   -0.7589    2.5535 C.2       1 <0>         0.3131
      9 C8          1.3131   -1.2852    3.2085 C.2       1 <0>        -0.3383
     10 S1          1.9350   -2.5010    2.0637 S.3       1 <0>         0.1120
     11 C9          1.8158   -0.9471    4.4900 C.2       1 <0>         0.6328
     12 O1          1.2623   -0.0896    5.1543 O.2       1 <0>        -0.5307
     13 N2          2.9063   -1.5746    4.9732 N.am      1 <0>        -0.5196
     14 N3          3.4031   -1.2403    6.2398 N.am      1 <0>        -0.4012
     15 C10         4.6110   -0.4305    6.3229 C.3       1 <0>         0.1050
     16 C11         5.2584   -0.5550    7.6692 C.2       1 <0>         0.5215
     17 O2          6.4268   -0.2501    7.7829 O.2       1 <0>        -0.5051
     18 N4          4.6011   -0.9879    8.7495 N.am      1 <0>        -0.5650
     19 C12         3.1977   -1.3768    8.7173 C.3       1 <0>         0.1131
     20 C13         2.7452   -1.6739    7.3194 C.2       1 <0>         0.5205
     21 O3          1.7432   -2.3388    7.1616 O.2       1 <0>        -0.5030
     22 C14         5.2911   -1.0715    9.9639 C.ar      1 <0>         0.1233
     23 C15         5.4241    0.0532   10.7675 C.ar      1 <0>        -0.1011
     24 C16         6.1058   -0.0326   11.9656 C.ar      1 <0>        -0.1105
     25 C17         6.6556   -1.2368   12.3653 C.ar      1 <0>        -0.1086
     26 C18         6.5253   -2.3585   11.5672 C.ar      1 <0>        -0.1104
     27 C19         5.8395   -2.2807   10.3709 C.ar      1 <0>        -0.1066
     28 N5         -0.5492    0.2347    3.1406 N.pl3     1 <0>        -0.8334
     29 C20        -0.5238   -3.1577   -2.5774 C.3       1 <0>        -0.1095
     30 H1         -1.7168    1.1584    0.5829 H         1 <0>         0.0887
     31 H2         -3.0690    0.0568    0.2278 H         1 <0>         0.0866
     32 H3         -2.3467    0.0837    1.8544 H         1 <0>         0.0840
     33 H4         -2.0828   -1.2268   -1.5200 H         1 <0>         0.1473
     34 H5          3.3471   -2.2576    4.4440 H         1 <0>         0.4184
     35 H6          5.3139   -0.7584    5.5571 H         1 <0>         0.1264
     36 H7          4.3534    0.6137    6.1459 H         1 <0>         0.1132
     37 H8          3.0587   -2.2633    9.3361 H         1 <0>         0.1272
     38 H9          2.5928   -0.5640    9.1192 H         1 <0>         0.1143
     39 H10         4.9952    0.9941   10.4558 H         1 <0>         0.1253
     40 H11         6.2099    0.8419   12.5909 H         1 <0>         0.1298
     41 H12         7.1882   -1.3013   13.3026 H         1 <0>         0.1281
     42 H13         6.9561   -3.2975   11.8819 H         1 <0>         0.1299
     43 H14         5.7336   -3.1584    9.7504 H         1 <0>         0.1256
     44 H15        -1.0760    0.8311    2.5859 H         1 <0>         0.4024
     45 H16        -0.5612    0.3326    4.1055 H         1 <0>         0.4194
     46 H17         0.0443   -2.6010   -3.3226 H         1 <0>         0.0889
     47 H18        -0.1442   -4.1778   -2.5187 H         1 <0>         0.0853
     48 H19        -1.5757   -3.1772   -2.8624 H         1 <0>         0.0841
@<TRIPOS>BOND
     1    1    2 1
     2    1   30 1
     3    1   31 1
     4    1   32 1
     5    2    7 ar
     6    2    3 ar
     7    3    4 ar
     8    3   33 1
     9    4    5 ar
    10    4   29 1
    11    5    6 ar
    12    6   10 1
    13    6    7 ar
    14    7    8 1
    15    8    9 2
    16    8   28 1
    17    9   10 1
    18    9   11 1
    19   11   12 2
    20   11   13 am
    21   13   14 1
    22   13   34 1
    23   14   20 am
    24   14   15 1
    25   15   16 1
    26   15   35 1
    27   15   36 1
    28   16   17 2
    29   16   18 am
    30   18   19 1
    31   18   22 1
    32   19   20 1
    33   19   37 1
    34   19   38 1
    35   20   21 2
    36   22   27 ar
    37   22   23 ar
    38   23   24 ar
    39   23   39 1
    40   24   25 ar
    41   24   40 1
    42   25   26 ar
    43   25   41 1
    44   26   27 ar
    45   26   42 1
    46   27   43 1
    47   28   44 1
    48   28   45 1
    49   29   46 1
    50   29   47 1
    51   29   48 1
@<TRIPOS>MOLECULE
ZINC01037297
   49    52     0     0     0
SMALL
USER_CHARGES

@<TRIPOS>ATOM
      1 C1         -2.1415    0.1757    0.7878 C.3       1 <0>        -0.1663
      2 C2         -1.1626   -0.8915    0.3708 C.ar      1 <0>         0.1146
      3 C3         -1.2817   -1.5084   -0.8526 C.ar      1 <0>        -0.1683
      4 C4         -0.3796   -2.4900   -1.2341 C.ar      1 <0>         0.2345
      5 N1          0.6033   -2.8436   -0.4290 N.ar      1 <0>        -0.4322
      6 C5          0.7593   -2.2832    0.7509 C.ar      1 <0>         0.0824
      7 C6         -0.1021   -1.2702    1.2306 C.ar      1 <0>        -0.1492
      8 C7          0.2218   -0.7589    2.5535 C.2       1 <0>         0.3072
      9 C8          1.3131   -1.2852    3.2085 C.2       1 <0>        -0.3145
     10 S1          1.9344   -2.5017    2.0641 S.3       1 <0>         0.2513
     11 C9          1.8158   -0.9471    4.4900 C.2       1 <0>         0.6245
     12 O1          1.2623   -0.0896    5.1543 O.2       1 <0>        -0.5065
     13 N2          2.9063   -1.5746    4.9732 N.am      1 <0>        -0.5152
     14 N3          3.4031   -1.2403    6.2398 N.am      1 <0>        -0.4022
     15 C10         4.6110   -0.4305    6.3229 C.3       1 <0>         0.1052
     16 C11         5.2584   -0.5550    7.6692 C.2       1 <0>         0.5189
     17 O2          6.4268   -0.2501    7.7829 O.2       1 <0>        -0.4989
     18 N4          4.6011   -0.9879    8.7495 N.am      1 <0>        -0.5631
     19 C12         3.1977   -1.3768    8.7173 C.3       1 <0>         0.1125
     20 C13         2.7452   -1.6739    7.3194 C.2       1 <0>         0.5246
     21 O3          1.7432   -2.3388    7.1616 O.2       1 <0>        -0.5041
     22 C14         5.2911   -1.0715    9.9639 C.ar      1 <0>         0.1173
     23 C15         5.4241    0.0532   10.7675 C.ar      1 <0>        -0.1003
     24 C16         6.1058   -0.0326   11.9656 C.ar      1 <0>        -0.1090
     25 C17         6.6556   -1.2368   12.3653 C.ar      1 <0>        -0.1048
     26 C18         6.5253   -2.3585   11.5672 C.ar      1 <0>        -0.1095
     27 C19         5.8395   -2.2807   10.3709 C.ar      1 <0>        -0.1064
     28 N5         -0.5492    0.2347    3.1406 N.pl3     1 <0>        -0.8153
     29 C20        -0.5238   -3.1577   -2.5774 C.3       1 <0>        -0.1481
     30 H1         -1.7168    1.1584    0.5829 H         1 <0>         0.1178
     31 H2         -3.0690    0.0568    0.2278 H         1 <0>         0.1108
     32 H3         -2.3467    0.0837    1.8544 H         1 <0>         0.1031
     33 H4         -2.0828   -1.2268   -1.5200 H         1 <0>         0.1924
     34 H5          3.3471   -2.2576    4.4440 H         1 <0>         0.4155
     35 H6          5.3139   -0.7584    5.5571 H         1 <0>         0.1264
     36 H7          4.3534    0.6137    6.1459 H         1 <0>         0.1149
     37 H8          3.0587   -2.2633    9.3361 H         1 <0>         0.1308
     38 H9          2.5928   -0.5640    9.1192 H         1 <0>         0.1177
     39 H10         4.9952    0.9941   10.4558 H         1 <0>         0.1254
     40 H11         6.2099    0.8419   12.5909 H         1 <0>         0.1316
     41 H12         7.1882   -1.3013   13.3026 H         1 <0>         0.1303
     42 H13         6.9561   -3.2975   11.8819 H         1 <0>         0.1313
     43 H14         5.7336   -3.1584    9.7504 H         1 <0>         0.1246
     44 H15        -1.0760    0.8311    2.5859 H         1 <0>         0.4102
     45 H16        -0.5612    0.3326    4.1055 H         1 <0>         0.4317
     46 H17         0.0443   -2.6010   -3.3226 H         1 <0>         0.1256
     47 H18        -0.1442   -4.1778   -2.5187 H         1 <0>         0.1048
     48 H19        -1.5757   -3.1772   -2.8624 H         1 <0>         0.1255
     49 H20         1.2247   -3.5322   -0.7130 H         1 <0>         0.4510
@<TRIPOS>BOND
     1    1    2 1
     2    1   30 1
     3    1   31 1
     4    1   32 1
     5    2    7 ar
     6    2    3 ar
     7    3    4 ar
     8    3   33 1
     9    4    5 ar
    10    4   29 1
    11    5    6 ar
    12    5   49 1
    13    6   10 1
    14    6    7 ar
    15    7    8 1
    16    8    9 2
    17    8   28 1
    18    9   10 1
    19    9   11 1
    20   11   12 2
    21   11   13 am
    22   13   14 1
    23   13   34 1
    24   14   20 am
    25   14   15 1
    26   15   16 1
    27   15   35 1
    28   15   36 1
    29   16   17 2
    30   16   18 am
    31   18   19 1
    32   18   22 1
    33   19   20 1
    34   19   37 1
    35   19   38 1
    36   20   21 2
    37   22   27 ar
    38   22   23 ar
    39   23   24 ar
    40   23   39 1
    41   24   25 ar
    42   24   40 1
    43   25   26 ar
    44   25   41 1
    45   26   27 ar
    46   26   42 1
    47   27   43 1
    48   28   44 1
    49   28   45 1
    50   29   46 1
    51   29   47 1
    52   29   48 1
@<TRIPOS>MOLECULE
ZINC01590899
   43    46     0     0     0
SMALL
USER_CHARGES
4-chloro-N-(2,5-diphenylpyrazol-3-yl)-benzamide
@<TRIPOS>ATOM
      1 C1          5.1748    0.6612   -0.0404 C.ar      1 <0>        -0.1083
      2 C2          4.8719    2.0108   -0.0315 C.ar      1 <0>        -0.1232
      3 C3          3.5555    2.4252   -0.0178 C.ar      1 <0>        -0.0890
      4 C4          2.5307    1.4811   -0.0129 C.ar      1 <0>        -0.0213
      5 C5          2.8416    0.1228   -0.0162 C.ar      1 <0>        -0.0890
      6 C6          4.1615   -0.2803   -0.0357 C.ar      1 <0>        -0.1213
      7 C7          1.1134    1.9205    0.0017 C.2       1 <0>         0.1374
      8 C8         -0.0126    1.0758    0.0080 C.2       1 <0>        -0.2509
      9 C9         -1.1215    1.8615    0.0168 C.2       1 <0>         0.3098
     10 N1         -0.7085    3.1594    0.0250 N.pl3     1 <0>        -0.3382
     11 N2          0.6920    3.1679    0.0120 N.2       1 <0>        -0.2673
     12 C10        -1.5387    4.2876    0.0384 C.ar      1 <0>         0.1555
     13 C11        -2.7475    4.2702   -0.6449 C.ar      1 <0>        -0.1534
     14 C12        -3.5665    5.3821   -0.6249 C.ar      1 <0>        -0.0906
     15 C13        -3.1786    6.5160    0.0650 C.ar      1 <0>        -0.1213
     16 C14        -1.9728    6.5386    0.7417 C.ar      1 <0>        -0.0921
     17 C15        -1.1520    5.4279    0.7303 C.ar      1 <0>        -0.1086
     18 N3         -2.4429    1.4189    0.0196 N.am      1 <0>        -0.6470
     19 C16        -2.7113    0.0981    0.0136 C.2       1 <0>         0.5691
     20 O1         -1.8005   -0.7072    0.0059 O.2       1 <0>        -0.4926
     21 C17        -4.1122   -0.3711    0.0166 C.ar      1 <0>        -0.1332
     22 C18        -5.1604    0.5513    0.0313 C.ar      1 <0>        -0.0739
     23 C19        -6.4658    0.1073    0.0281 C.ar      1 <0>        -0.1146
     24 C20        -6.7384   -1.2507    0.0225 C.ar      1 <0>        -0.0058
     25 C21        -5.7029   -2.1706    0.0137 C.ar      1 <0>        -0.1148
     26 C22        -4.3934   -1.7388    0.0104 C.ar      1 <0>        -0.0381
     27 Cl1        -8.3845   -1.8020    0.0260 Cl        1 <0>        -0.0529
     28 H1          6.2063    0.3413   -0.0515 H         1 <0>         0.1248
     29 H2          5.6671    2.7417   -0.0349 H         1 <0>         0.1262
     30 H3          3.3201    3.4792   -0.0112 H         1 <0>         0.1286
     31 H4          2.0512   -0.6132   -0.0079 H         1 <0>         0.1303
     32 H5          4.4036   -1.3328   -0.0427 H         1 <0>         0.1280
     33 H6          0.0021   -0.0041    0.0020 H         1 <0>         0.1829
     34 H7         -3.0490    3.3864   -1.1876 H         1 <0>         0.1245
     35 H8         -4.5089    5.3675   -1.1522 H         1 <0>         0.1362
     36 H9         -3.8188    7.3857    0.0757 H         1 <0>         0.1329
     37 H10        -1.6725    7.4258    1.2793 H         1 <0>         0.1358
     38 H11        -0.2106    5.4459    1.2593 H         1 <0>         0.1367
     39 H12        -3.1696    2.0614    0.0257 H         1 <0>         0.4125
     40 H13        -4.9490    1.6104    0.0402 H         1 <0>         0.1327
     41 H14        -7.2774    0.8199    0.0347 H         1 <0>         0.1449
     42 H15        -5.9216   -3.2282    0.0090 H         1 <0>         0.1468
     43 H16        -3.5868   -2.4570    0.0028 H         1 <0>         0.1516
@<TRIPOS>BOND
     1    1    6 ar
     2    1    2 ar
     3    1   28 1
     4    2    3 ar
     5    2   29 1
     6    3    4 ar
     7    3   30 1
     8    4    5 ar
     9    4    7 1
    10    5    6 ar
    11    5   31 1
    12    6   32 1
    13    7   11 2
    14    7    8 1
    15    8    9 2
    16    8   33 1
    17    9   10 1
    18    9   18 1
    19   10   11 1
    20   10   12 1
    21   12   17 ar
    22   12   13 ar
    23   13   14 ar
    24   13   34 1
    25   14   15 ar
    26   14   35 1
    27   15   16 ar
    28   15   36 1
    29   16   17 ar
    30   16   37 1
    31   17   38 1
    32   18   19 am
    33   18   39 1
    34   19   20 2
    35   19   21 1
    36   21   26 ar
    37   21   22 ar
    38   22   23 ar
    39   22   40 1
    40   23   24 ar
    41   23   41 1
    42   24   25 ar
    43   24   27 1
    44   25   26 ar
    45   25   42 1
    46   26   43 1
@<TRIPOS>MOLECULE
ZINC13584914
   46    49     0     0     0
SMALL
USER_CHARGES
N-(2,5-diphenylpyrazol-3-yl)-4-methyl-benzamide
@<TRIPOS>ATOM
      1 C1         -8.1676   -1.7294    0.0308 C.3       1 <0>        -0.1236
      2 C2         -6.7386   -1.2508    0.0273 C.ar      1 <0>        -0.0506
      3 C3         -5.7045   -2.1700    0.0187 C.ar      1 <0>        -0.1269
      4 C4         -4.3941   -1.7386    0.0149 C.ar      1 <0>        -0.0465
      5 C5         -4.1128   -0.3713    0.0198 C.ar      1 <0>        -0.1445
      6 C6         -5.1608    0.5507    0.0343 C.ar      1 <0>        -0.0816
      7 C7         -6.4667    0.1058    0.0322 C.ar      1 <0>        -0.1263
      8 C8         -2.7112    0.0981    0.0158 C.2       1 <0>         0.5691
      9 O1         -1.8005   -0.7071    0.0082 O.2       1 <0>        -0.4972
     10 N1         -2.4429    1.4189    0.0206 N.am      1 <0>        -0.6484
     11 C9         -1.1215    1.8615    0.0168 C.2       1 <0>         0.3113
     12 C10        -0.0126    1.0758    0.0080 C.2       1 <0>        -0.2524
     13 C11         1.1134    1.9205    0.0017 C.2       1 <0>         0.1370
     14 N2          0.6920    3.1679    0.0117 N.2       1 <0>        -0.2687
     15 N3         -0.7085    3.1594    0.0245 N.pl3     1 <0>        -0.3390
     16 C12        -1.5387    4.2877    0.0371 C.ar      1 <0>         0.1564
     17 C13        -2.7474    4.2698   -0.6463 C.ar      1 <0>        -0.1530
     18 C14        -3.5664    5.3818   -0.6271 C.ar      1 <0>        -0.0907
     19 C15        -3.1786    6.5161    0.0623 C.ar      1 <0>        -0.1219
     20 C16        -1.9729    6.5390    0.7391 C.ar      1 <0>        -0.0925
     21 C17        -1.1522    5.4282    0.7285 C.ar      1 <0>        -0.1090
     22 C18         2.5307    1.4811   -0.0129 C.ar      1 <0>        -0.0206
     23 C19         2.8416    0.1228   -0.0162 C.ar      1 <0>        -0.0891
     24 C20         4.1615   -0.2803   -0.0361 C.ar      1 <0>        -0.1213
     25 C21         5.1748    0.6612   -0.0404 C.ar      1 <0>        -0.1087
     26 C22         4.8719    2.0108   -0.0315 C.ar      1 <0>        -0.1233
     27 C23         3.5555    2.4252   -0.0178 C.ar      1 <0>        -0.0892
     28 H1         -8.5079   -1.8497    1.0593 H         1 <0>         0.0782
     29 H2         -8.7969   -0.9985   -0.4770 H         1 <0>         0.0718
     30 H3         -8.2316   -2.6862   -0.4873 H         1 <0>         0.0725
     31 H4         -5.9236   -3.2275    0.0152 H         1 <0>         0.1345
     32 H5         -3.5878   -2.4571    0.0079 H         1 <0>         0.1410
     33 H6         -4.9499    1.6098    0.0427 H         1 <0>         0.1224
     34 H7         -7.2785    0.8181    0.0386 H         1 <0>         0.1327
     35 H8         -3.1696    2.0614    0.0267 H         1 <0>         0.4122
     36 H9          0.0021   -0.0041    0.0020 H         1 <0>         0.1826
     37 H10        -3.0488    3.3858   -1.1886 H         1 <0>         0.1247
     38 H11        -4.5088    5.3668   -1.1545 H         1 <0>         0.1359
     39 H12        -3.8188    7.3858    0.0724 H         1 <0>         0.1326
     40 H13        -1.6727    7.4265    1.2763 H         1 <0>         0.1356
     41 H14        -0.2108    5.4466    1.2576 H         1 <0>         0.1366
     42 H15         2.0512   -0.6132   -0.0079 H         1 <0>         0.1303
     43 H16         4.4036   -1.3328   -0.0431 H         1 <0>         0.1278
     44 H17         6.2063    0.3413   -0.0512 H         1 <0>         0.1246
     45 H18         5.6671    2.7417   -0.0349 H         1 <0>         0.1261
     46 H19         3.3201    3.4792   -0.0112 H         1 <0>         0.1286
@<TRIPOS>BOND
     1    1    2 1
     2    1   28 1
     3    1   29 1
     4    1   30 1
     5    2    7 ar
     6    2    3 ar
     7    3    4 ar
     8    3   31 1
     9    4    5 ar
    10    4   32 1
    11    5    6 ar
    12    5    8 1
    13    6    7 ar
    14    6   33 1
    15    7   34 1
    16    8    9 2
    17    8   10 am
    18   10   11 1
    19   10   35 1
    20   11   15 1
    21   11   12 2
    22   12   13 1
    23   12   36 1
    24   13   14 2
    25   13   22 1
    26   14   15 1
    27   15   16 1
    28   16   21 ar
    29   16   17 ar
    30   17   18 ar
    31   17   37 1
    32   18   19 ar
    33   18   38 1
    34   19   20 ar
    35   19   39 1
    36   20   21 ar
    37   20   40 1
    38   21   41 1
    39   22   27 ar
    40   22   23 ar
    41   23   24 ar
    42   23   42 1
    43   24   25 ar
    44   24   43 1
    45   25   26 ar
    46   25   44 1
    47   26   27 ar
    48   26   45 1
    49   27   46 1
@<TRIPOS>MOLECULE
ZINC03947792
   44    47     0     0     0
SMALL
USER_CHARGES
N-[4-chloro-2-[(1,3-dioxoisoindolin-2-yl)methyl]phenyl]-2-hydroxy-benzamide
@<TRIPOS>ATOM
      1 C1          4.1135    4.9676   -6.0326 C.ar      1 <0>        -0.0931
      2 C2          4.7523    3.7510   -5.8823 C.ar      1 <0>        -0.0949
      3 C3          4.6785    3.0622   -4.6817 C.ar      1 <0>        -0.0429
      4 C4          3.9581    3.5973   -3.6259 C.ar      1 <0>        -0.1418
      5 C5          3.3067    4.8378   -3.7792 C.ar      1 <0>        -0.1409
      6 C6          3.3897    5.5153   -4.9851 C.ar      1 <0>        -0.0435
      7 C7          2.6450    5.1097   -2.4857 C.2       1 <0>         0.5752
      8 O1          1.9790    6.0906   -2.2225 O.2       1 <0>        -0.4528
      9 N1          2.9034    4.0885   -1.6490 N.am      1 <0>        -0.5729
     10 C8          3.6744    3.1597   -2.2428 C.2       1 <0>         0.5783
     11 O2          4.0691    2.1323   -1.7293 O.2       1 <0>        -0.4618
     12 C9          2.4148    4.0022   -0.2706 C.3       1 <0>         0.1592
     13 C10         1.0145    3.4454   -0.2679 C.ar      1 <0>        -0.1456
     14 C11        -0.0694    4.3006   -0.2273 C.ar      1 <0>        -0.0621
     15 C12        -1.3554    3.7900   -0.2248 C.ar      1 <0>        -0.0553
     16 C13        -1.5595    2.4217   -0.2674 C.ar      1 <0>        -0.0758
     17 C14        -0.4794    1.5621   -0.3028 C.ar      1 <0>        -0.1170
     18 C15         0.8126    2.0721   -0.3058 C.ar      1 <0>         0.1779
     19 N2          1.9087    1.2035   -0.3466 N.am      1 <0>        -0.6661
     20 C16         1.8112    0.0254   -0.9937 C.2       1 <0>         0.5673
     21 O3          0.7502   -0.3147   -1.4810 O.2       1 <0>        -0.5025
     22 C17         2.9914   -0.8516   -1.1109 C.ar      1 <0>        -0.1696
     23 C18         4.2139   -0.4623   -0.5575 C.ar      1 <0>        -0.0449
     24 C19         5.3114   -1.2882   -0.6663 C.ar      1 <0>        -0.1401
     25 C20         5.2114   -2.4997   -1.3311 C.ar      1 <0>        -0.0704
     26 C21         4.0109   -2.8943   -1.8871 C.ar      1 <0>        -0.1607
     27 C22         2.8946   -2.0776   -1.7830 C.ar      1 <0>         0.1718
     28 O4          1.7146   -2.4637   -2.3296 O.3       1 <0>        -0.4789
     29 Cl1        -2.7154    4.8677   -0.1743 Cl        1 <0>        -0.0639
     30 H1          4.1790    5.4951   -6.9727 H         1 <0>         0.1443
     31 H2          5.3133    3.3345   -6.7059 H         1 <0>         0.1438
     32 H3          5.1797    2.1121   -4.5699 H         1 <0>         0.1419
     33 H4          2.8928    6.4663   -5.1081 H         1 <0>         0.1436
     34 H5          2.4114    4.9963    0.1766 H         1 <0>         0.1125
     35 H6          3.0676    3.3467    0.3059 H         1 <0>         0.1026
     36 H7          0.0870    5.3688   -0.1978 H         1 <0>         0.1431
     37 H8         -2.5643    2.0259   -0.2695 H         1 <0>         0.1403
     38 H9         -0.6391    0.4944   -0.3326 H         1 <0>         0.1573
     39 H10         2.7388    1.4493    0.0910 H         1 <0>         0.4123
     40 H11         4.2976    0.4832   -0.0423 H         1 <0>         0.1299
     41 H12         6.2549   -0.9880   -0.2349 H         1 <0>         0.1316
     42 H13         6.0778   -3.1390   -1.4151 H         1 <0>         0.1325
     43 H14         3.9410   -3.8399   -2.4041 H         1 <0>         0.1365
     44 H15         1.5932   -2.1779   -3.2454 H         1 <0>         0.3959
@<TRIPOS>BOND
     1    1    6 ar
     2    1    2 ar
     3    1   30 1
     4    2    3 ar
     5    2   31 1
     6    3    4 ar
     7    3   32 1
     8    4   10 1
     9    4    5 ar
    10    5    6 ar
    11    5    7 1
    12    6   33 1
    13    7    8 2
    14    7    9 am
    15    9   10 am
    16    9   12 1
    17   10   11 2
    18   12   13 1
    19   12   34 1
    20   12   35 1
    21   13   18 ar
    22   13   14 ar
    23   14   15 ar
    24   14   36 1
    25   15   16 ar
    26   15   29 1
    27   16   17 ar
    28   16   37 1
    29   17   18 ar
    30   17   38 1
    31   18   19 1
    32   19   20 am
    33   19   39 1
    34   20   21 2
    35   20   22 1
    36   22   27 ar
    37   22   23 ar
    38   23   24 ar
    39   23   40 1
    40   24   25 ar
    41   24   41 1
    42   25   26 ar
    43   25   42 1
    44   26   27 ar
    45   26   43 1
    46   27   28 1
    47   28   44 1
@<TRIPOS>MOLECULE
ZINC03261368
   28    29     0     0     0
SMALL
USER_CHARGES

@<TRIPOS>ATOM
      1 C1         -0.0166    1.3746    0.0096 C.ar      1 <0>        -0.0985
      2 C2          1.1697    2.0870    0.0021 C.ar      1 <0>        -0.1318
      3 C3          2.3858    1.4216   -0.0136 C.ar      1 <0>         0.0941
      4 C4          2.4205    0.0411   -0.0218 C.ar      1 <0>        -0.1194
      5 C5          1.2246   -0.6843   -0.0138 C.ar      1 <0>        -0.0480
      6 C6          0.0021   -0.0041    0.0020 C.ar      1 <0>        -0.0807
      7 C7          1.2520   -2.1546   -0.0230 C.2       1 <0>         0.2089
      8 N1          0.1323   -2.8294   -0.0155 N.2       1 <0>        -0.3718
      9 N2          0.1564   -4.1191   -0.0235 N.2       1 <0>        -0.3734
     10 C8         -0.9633   -4.7939   -0.0160 C.2       1 <0>         0.2082
     11 C9         -0.9358   -6.2642   -0.0251 C.ar      1 <0>        -0.0481
     12 C10         0.2864   -6.9443   -0.0360 C.ar      1 <0>        -0.1076
     13 C11         0.3033   -8.3252   -0.0441 C.ar      1 <0>         0.0915
     14 C12        -0.8872   -9.0356   -0.0419 C.ar      1 <0>        -0.1327
     15 C13        -2.0993   -8.3681   -0.0316 C.ar      1 <0>        -0.0961
     16 C14        -2.1321   -6.9898   -0.0171 C.ar      1 <0>        -0.0930
     17 F1          1.4821   -8.9850   -0.0546 F         1 <0>        -0.1362
     18 F2          3.5391    2.1251   -0.0212 F         1 <0>        -0.1355
     19 H1         -0.9600    1.9001    0.0260 H         1 <0>         0.1391
     20 H2          1.1480    3.1667    0.0081 H         1 <0>         0.1399
     21 H3          3.3681   -0.4769   -0.0347 H         1 <0>         0.1438
     22 H4         -0.9252   -0.5578    0.0083 H         1 <0>         0.1411
     23 H5          2.1972   -2.6770   -0.0359 H         1 <0>         0.1192
     24 H6         -1.9085   -4.2715   -0.0031 H         1 <0>         0.1215
     25 H7          1.2140   -6.3912   -0.0385 H         1 <0>         0.1460
     26 H8         -0.8685  -10.1154   -0.0486 H         1 <0>         0.1398
     27 H9         -3.0225   -8.9286   -0.0306 H         1 <0>         0.1407
     28 H10        -3.0793   -6.4712   -0.0046 H         1 <0>         0.1388
@<TRIPOS>BOND
     1    1    6 ar
     2    1    2 ar
     3    1   19 1
     4    2    3 ar
     5    2   20 1
     6    3    4 ar
     7    3   18 1
     8    4    5 ar
     9    4   21 1
    10    5    6 ar
    11    5    7 1
    12    6   22 1
    13    7    8 2
    14    7   23 1
    15    8    9 1
    16    9   10 2
    17   10   11 1
    18   10   24 1
    19   11   16 ar
    20   11   12 ar
    21   12   13 ar
    22   12   25 1
    23   13   14 ar
    24   13   17 1
    25   14   15 ar
    26   14   26 1
    27   15   16 ar
    28   15   27 1
    29   16   28 1
@<TRIPOS>MOLECULE
ZINC08449891
   55    59     0     0     0
SMALL
USER_CHARGES

@<TRIPOS>ATOM
      1 C1          0.6714    1.5027   -0.0676 C.3       1 <0>        -0.1250
      2 C2          0.6498   -0.0041   -0.0712 C.ar      1 <0>        -0.0493
      3 C3          0.3805   -0.6860   -1.2453 C.ar      1 <0>        -0.1277
      4 C4          0.3589   -2.0644   -1.2568 C.ar      1 <0>        -0.0761
      5 C5          0.6100   -2.7739   -0.0778 C.ar      1 <0>        -0.1707
      6 C6          0.8813   -2.0777    1.1042 C.ar      1 <0>        -0.0521
      7 C7          0.9048   -0.6989    1.0981 C.ar      1 <0>        -0.0982
      8 C8          1.2029    0.0534    2.3695 C.3       1 <0>        -0.1188
      9 C9          0.5884   -4.2454   -0.0812 C.2       1 <0>         0.4000
     10 O1          0.8066   -4.8573    0.9427 O.2       1 <0>        -0.4265
     11 C10         0.2952   -4.9917   -1.3571 C.3       1 <0>         0.0210
     12 O2          0.3310   -6.3979   -1.1054 O.3       1 <0>        -0.3291
     13 C11         0.0880   -7.2129   -2.1506 C.2       1 <0>         0.5130
     14 O3         -0.1480   -6.7424   -3.2457 O.2       1 <0>        -0.4972
     15 C12         0.1083   -8.6761   -1.9653 C.ar      1 <0>        -0.1183
     16 C13         0.3739   -9.2191   -0.7049 C.ar      1 <0>        -0.0457
     17 C14         0.3920  -10.5855   -0.5359 C.ar      1 <0>        -0.1125
     18 C15         0.1465  -11.4250   -1.6171 C.ar      1 <0>         0.1499
     19 C16        -0.1181  -10.8885   -2.8726 C.ar      1 <0>        -0.1129
     20 C17        -0.1436   -9.5231   -3.0483 C.ar      1 <0>        -0.0387
     21 N1          0.1663  -12.8116   -1.4416 N.am      1 <0>        -0.5321
     22 C18         1.1024  -13.5964   -1.9868 C.2       1 <0>         0.5366
     23 O4          2.0205  -13.2131   -2.6795 O.2       1 <0>        -0.4630
     24 C19         0.8388  -15.0350   -1.6049 C.3       1 <0>        -0.1233
     25 H1          0.7295  -15.6964   -2.4643 H         1 <0>         0.1429
     26 C20         1.9547  -15.4906   -0.6129 C.3       1 <0>        -0.0575
     27 H2          2.8622  -15.8950   -1.0612 H         1 <0>         0.1208
     28 C21         1.1350  -16.4608    0.3138 C.3       1 <0>        -0.1131
     29 C22         0.0914  -15.3522    0.7060 C.3       1 <0>        -0.0543
     30 H3         -0.6588  -15.6285    1.4469 H         1 <0>         0.1219
     31 C23        -0.4430  -14.9421   -0.7250 C.3       1 <0>        -0.1221
     32 H4         -1.2642  -15.5614   -1.0858 H         1 <0>         0.1458
     33 C24        -0.7462  -13.4612   -0.7100 C.2       1 <0>         0.5373
     34 O5         -1.6738  -12.9426   -0.1269 O.2       1 <0>        -0.4622
     35 C25         1.0475  -14.2190    1.0978 C.2       1 <0>        -0.1749
     36 C26         2.1368  -14.2902    0.3238 C.2       1 <0>        -0.1724
     37 H5          1.6789    1.8522   -0.2936 H         1 <0>         0.0778
     38 H6         -0.0209    1.8778   -0.8214 H         1 <0>         0.0718
     39 H7          0.3719    1.8681    0.9147 H         1 <0>         0.0739
     40 H8          0.1864   -0.1368   -2.1548 H         1 <0>         0.1323
     41 H9          0.1483   -2.5951   -2.1735 H         1 <0>         0.1326
     42 H10         1.0758   -2.6185    2.0186 H         1 <0>         0.1361
     43 H11         0.2726    0.2486    2.9028 H         1 <0>         0.0742
     44 H12         1.8638   -0.5433    2.9982 H         1 <0>         0.0700
     45 H13         1.6880    0.9989    2.1270 H         1 <0>         0.0724
     46 H14        -0.6933   -4.7130   -1.7221 H         1 <0>         0.1076
     47 H15         1.0443   -4.7377   -2.1070 H         1 <0>         0.1075
     48 H16         0.5649   -8.5678    0.1351 H         1 <0>         0.1512
     49 H17         0.5975  -11.0058    0.4375 H         1 <0>         0.1362
     50 H18        -0.3082  -11.5437   -3.7099 H         1 <0>         0.1386
     51 H19        -0.3540   -9.1071   -4.0225 H         1 <0>         0.1495
     52 H20         0.6821  -17.2834   -0.2397 H         1 <0>         0.0891
     53 H21         1.7140  -16.8102    1.1686 H         1 <0>         0.0907
     54 H22         0.8709  -13.4807    1.8660 H         1 <0>         0.1346
     55 H23         2.9958  -13.6363    0.3526 H         1 <0>         0.1387
@<TRIPOS>BOND
     1    1    2 1
     2    1   37 1
     3    1   38 1
     4    1   39 1
     5    2    7 ar
     6    2    3 ar
     7    3    4 ar
     8    3   40 1
     9    4    5 ar
    10    4   41 1
    11    5    6 ar
    12    5    9 1
    13    6    7 ar
    14    6   42 1
    15    7    8 1
    16    8   43 1
    17    8   44 1
    18    8   45 1
    19    9   10 2
    20    9   11 1
    21   11   12 1
    22   11   46 1
    23   11   47 1
    24   12   13 1
    25   13   14 2
    26   13   15 1
    27   15   20 ar
    28   15   16 ar
    29   16   17 ar
    30   16   48 1
    31   17   18 ar
    32   17   49 1
    33   18   19 ar
    34   18   21 1
    35   19   20 ar
    36   19   50 1
    37   20   51 1
    38   21   33 am
    39   21   22 am
    40   22   23 2
    41   22   24 1
    42   24   25 1
    43   24   31 1
    44   24   26 1
    45   26   27 1
    46   26   36 1
    47   26   28 1
    48   28   29 1
    49   28   52 1
    50   28   53 1
    51   29   30 1
    52   29   31 1
    53   29   35 1
    54   31   32 1
    55   31   33 1
    56   33   34 2
    57   35   36 2
    58   35   54 1
    59   36   55 1
@<TRIPOS>MOLECULE
ZINC17857596
   55    59     0     0     0
SMALL
USER_CHARGES
[2-(3,4-dimethylphenyl)-2-oxo-ethyl] 4-(dioxoBLAHyl)benzoate
@<TRIPOS>ATOM
      1 C1          2.4895    1.0408   -0.0161 C.3       1 <0>        -0.1264
      2 C2          1.1778    1.7824    0.0004 C.ar      1 <0>        -0.0497
      3 C3         -0.0126    1.0758    0.0080 C.ar      1 <0>        -0.1273
      4 C4         -1.2168    1.7470    0.0173 C.ar      1 <0>        -0.0766
      5 C5         -1.2335    3.1456    0.0307 C.ar      1 <0>        -0.1708
      6 C6         -0.0268    3.8521    0.0225 C.ar      1 <0>        -0.0515
      7 C7          1.1695    3.1662    0.0074 C.ar      1 <0>        -0.0982
      8 C8          2.4712    3.9255   -0.0009 C.3       1 <0>        -0.1202
      9 C9         -2.5145    3.8698    0.0464 C.2       1 <0>         0.3977
     10 O1         -2.5255    5.0823    0.0522 O.2       1 <0>        -0.4248
     11 C10        -3.8127    3.1045    0.0552 C.3       1 <0>         0.0364
     12 O2         -4.9248    4.0380    0.0702 O.3       1 <0>        -0.3351
     13 C11        -6.1651    3.5118    0.0795 C.2       1 <0>         0.5141
     14 O3         -6.3135    2.3059    0.0753 O.2       1 <0>        -0.5027
     15 C12        -7.3430    4.3997    0.0950 C.ar      1 <0>        -0.1436
     16 C13        -7.1743    5.7872    0.1057 C.ar      1 <0>        -0.0302
     17 C14        -8.2762    6.6128    0.1153 C.ar      1 <0>        -0.1595
     18 C15        -9.5557    6.0677    0.1249 C.ar      1 <0>         0.1708
     19 C16        -9.7275    4.6877    0.1196 C.ar      1 <0>        -0.1588
     20 C17        -8.6305    3.8556    0.1047 C.ar      1 <0>        -0.0238
     21 N1        -10.6718    6.9091    0.1405 N.am      1 <0>        -0.5586
     22 C18       -11.9703    6.4571    0.1453 C.2       1 <0>         0.5479
     23 O4        -12.3658    5.3412    0.4057 O.2       1 <0>        -0.4398
     24 C19       -12.7871    7.6477   -0.2401 C.3       1 <0>        -0.1304
     25 H1        -12.7657    7.8319   -1.3142 H         1 <0>         0.1384
     26 C20       -14.1725    7.9541    0.3331 C.3       1 <0>        -0.0549
     27 H2        -14.8635    7.1168    0.4298 H         1 <0>         0.1260
     28 C21       -13.8945    8.8558    1.6254 C.3       1 <0>        -0.1241
     29 C22       -12.8500    9.7842    0.8438 C.3       1 <0>        -0.0265
     30 H3        -12.4379   10.6395    1.3794 H         1 <0>         0.1214
     31 C23       -11.9101    8.6774    0.5812 C.3       1 <0>        -0.1655
     32 H4        -11.9347    8.1804    1.5510 H         1 <0>         0.1027
     33 C24       -10.5941    8.2916    0.1468 C.2       1 <0>         0.5791
     34 O5         -9.6531    8.9993   -0.1415 O.2       1 <0>        -0.4355
     35 C25       -13.7387   10.1180   -0.3520 C.2       1 <0>        -0.1569
     36 C26       -14.5516    9.1144   -0.6324 C.2       1 <0>        -0.1598
     37 H5          2.7960    0.8675   -1.0477 H         1 <0>         0.0780
     38 H6          3.2487    1.6339    0.4937 H         1 <0>         0.0757
     39 H7          2.3727    0.0845    0.4937 H         1 <0>         0.0711
     40 H8          0.0021   -0.0041    0.0020 H         1 <0>         0.1323
     41 H9         -2.1447    1.1944    0.0188 H         1 <0>         0.1323
     42 H10        -0.0317    4.9321    0.0277 H         1 <0>         0.1364
     43 H11         2.7754    4.1138   -1.0305 H         1 <0>         0.0745
     44 H12         2.3414    4.8748    0.5189 H         1 <0>         0.0695
     45 H13         3.2382    3.3373    0.5028 H         1 <0>         0.0741
     46 H14        -3.8683    2.5330   -0.7635 H         1 <0>         0.0955
     47 H15        -3.8563    2.4732    0.9426 H         1 <0>         0.1087
     48 H16        -6.1810    6.2112    0.1028 H         1 <0>         0.1501
     49 H17        -8.1467    7.6850    0.1198 H         1 <0>         0.1557
     50 H18       -10.7226    4.2680    0.1274 H         1 <0>         0.1581
     51 H19        -8.7647    2.7840    0.1002 H         1 <0>         0.1477
     52 H20       -13.4315    8.3056    2.4446 H         1 <0>         0.0808
     53 H21       -14.7798    9.4039    1.9476 H         1 <0>         0.0969
     54 H22       -13.7070   11.0501   -0.8966 H         1 <0>         0.1339
     55 H23       -15.3265    9.1016   -1.3846 H         1 <0>         0.1452
@<TRIPOS>BOND
     1    1    2 1
     2    1   37 1
     3    1   38 1
     4    1   39 1
     5    2    7 ar
     6    2    3 ar
     7    3    4 ar
     8    3   40 1
     9    4    5 ar
    10    4   41 1
    11    5    6 ar
    12    5    9 1
    13    6    7 ar
    14    6   42 1
    15    7    8 1
    16    8   43 1
    17    8   44 1
    18    8   45 1
    19    9   10 2
    20    9   11 1
    21   11   12 1
    22   11   46 1
    23   11   47 1
    24   12   13 1
    25   13   14 2
    26   13   15 1
    27   15   20 ar
    28   15   16 ar
    29   16   17 ar
    30   16   48 1
    31   17   18 ar
    32   17   49 1
    33   18   19 ar
    34   18   21 1
    35   19   20 ar
    36   19   50 1
    37   20   51 1
    38   21   33 am
    39   21   22 am
    40   22   23 2
    41   22   24 1
    42   24   25 1
    43   24   31 1
    44   24   26 1
    45   26   27 1
    46   26   36 1
    47   26   28 1
    48   28   29 1
    49   28   52 1
    50   28   53 1
    51   29   30 1
    52   29   31 1
    53   29   35 1
    54   31   32 1
    55   31   33 1
    56   33   34 2
    57   35   36 2
    58   35   54 1
    59   36   55 1
@<TRIPOS>MOLECULE
ZINC13896758
   54    57     0     0     0
SMALL
USER_CHARGES

@<TRIPOS>ATOM
      1 C1         -0.0184    1.5028    0.0103 C.3       1 <0>        -0.1249
      2 C2          0.0021   -0.0041    0.0020 C.ar      1 <0>        -0.0497
      3 C3          0.0056   -0.6859   -1.2026 C.ar      1 <0>        -0.1278
      4 C4          0.0243   -2.0644   -1.2186 C.ar      1 <0>        -0.0761
      5 C5          0.0396   -2.7739   -0.0133 C.ar      1 <0>        -0.1705
      6 C6          0.0359   -2.0777    1.1995 C.ar      1 <0>        -0.0523
      7 C7          0.0229   -0.6987    1.1987 C.ar      1 <0>        -0.0982
      8 C8          0.0250    0.0537    2.5044 C.3       1 <0>        -0.1187
      9 C9          0.0591   -4.2454   -0.0214 C.2       1 <0>         0.3996
     10 O1          0.0724   -4.8573    1.0254 O.2       1 <0>        -0.4262
     11 C10         0.0626   -4.9917   -1.3306 C.3       1 <0>         0.0213
     12 O2          0.0825   -6.3979   -1.0772 O.3       1 <0>        -0.3300
     13 C11         0.0880   -7.2128   -2.1503 C.2       1 <0>         0.5135
     14 O3          0.0762   -6.7424   -3.2704 O.2       1 <0>        -0.5009
     15 C12         0.1083   -8.6761   -1.9651 C.ar      1 <0>        -0.1403
     16 C13         0.1161   -9.2193   -0.6772 C.ar      1 <0>        -0.0341
     17 C14         0.1351  -10.5857   -0.5083 C.ar      1 <0>        -0.1575
     18 C15         0.1465  -11.4250   -1.6171 C.ar      1 <0>         0.1598
     19 C16         0.1389  -10.8883   -2.9001 C.ar      1 <0>        -0.1566
     20 C17         0.1141   -9.5231   -3.0770 C.ar      1 <0>        -0.0275
     21 N1          0.1663  -12.8116   -1.4416 N.am      1 <0>        -0.5369
     22 C18         0.1694  -13.4079   -0.2210 C.2       1 <0>         0.5423
     23 O4          0.3653  -12.8736    0.8493 O.2       1 <0>        -0.4445
     24 C19        -0.1187  -14.8586   -0.4628 C.3       1 <0>        -0.1289
     25 H1         -1.1944  -15.0306   -0.4988 H         1 <0>         0.1327
     26 C20         0.5476  -15.8812    0.4333 C.3       1 <0>        -0.0690
     27 C21         0.3751  -17.2297   -0.2338 C.2       1 <0>        -0.1539
     28 C22         0.0774  -17.3947   -1.4871 C.2       1 <0>        -0.1532
     29 C23        -0.1165  -16.2640   -2.4757 C.3       1 <0>        -0.0701
     30 C24         0.5092  -15.0296   -1.8805 C.3       1 <0>        -0.1293
     31 H2          1.5875  -15.1710   -1.8058 H         1 <0>         0.1331
     32 C25         0.1784  -13.6931   -2.4751 C.2       1 <0>         0.5441
     33 O5         -0.0334  -13.4477   -3.6431 O.2       1 <0>        -0.4450
     34 H3          1.0042    1.8801    0.0026 H         1 <0>         0.0776
     35 H4         -0.5455    1.8639   -0.8728 H         1 <0>         0.0717
     36 H5         -0.5286    1.8543    0.9071 H         1 <0>         0.0738
     37 H6         -0.0066   -0.1367   -2.1325 H         1 <0>         0.1322
     38 H7          0.0267   -2.5950   -2.1593 H         1 <0>         0.1326
     39 H8          0.0474   -2.6186    2.1342 H         1 <0>         0.1361
     40 H9         -1.0020    0.2211    2.8290 H         1 <0>         0.0741
     41 H10         0.5540   -0.5290    3.2586 H         1 <0>         0.0700
     42 H11         0.5246    1.0131    2.3701 H         1 <0>         0.0723
     43 H12        -0.8337   -4.7371   -1.8963 H         1 <0>         0.1068
     44 H13         0.9461   -4.7135   -1.9051 H         1 <0>         0.1068
     45 H14         0.1075   -8.5681    0.1844 H         1 <0>         0.1498
     46 H15         0.1414  -11.0061    0.4865 H         1 <0>         0.1625
     47 H16         0.1478  -11.5433   -3.7587 H         1 <0>         0.1632
     48 H17         0.1032   -9.1071   -4.0736 H         1 <0>         0.1476
     49 H18         1.6078  -15.6504    0.5375 H         1 <0>         0.0887
     50 H19         0.0688  -15.8864    1.4125 H         1 <0>         0.0945
     51 H20         0.5089  -18.1131    0.3730 H         1 <0>         0.1168
     52 H21        -0.0393  -18.4057   -1.8486 H         1 <0>         0.1171
     53 H22         0.3655  -16.5102   -3.4219 H         1 <0>         0.0945
     54 H23        -1.1802  -16.0862   -2.6338 H         1 <0>         0.0870
@<TRIPOS>BOND
     1    1    2 1
     2    1   34 1
     3    1   35 1
     4    1   36 1
     5    2    7 ar
     6    2    3 ar
     7    3    4 ar
     8    3   37 1
     9    4    5 ar
    10    4   38 1
    11    5    6 ar
    12    5    9 1
    13    6    7 ar
    14    6   39 1
    15    7    8 1
    16    8   40 1
    17    8   41 1
    18    8   42 1
    19    9   10 2
    20    9   11 1
    21   11   12 1
    22   11   43 1
    23   11   44 1
    24   12   13 1
    25   13   14 2
    26   13   15 1
    27   15   20 ar
    28   15   16 ar
    29   16   17 ar
    30   16   45 1
    31   17   18 ar
    32   17   46 1
    33   18   19 ar
    34   18   21 1
    35   19   20 ar
    36   19   47 1
    37   20   48 1
    38   21   32 am
    39   21   22 am
    40   22   23 2
    41   22   24 1
    42   24   25 1
    43   24   30 1
    44   24   26 1
    45   26   27 1
    46   26   49 1
    47   26   50 1
    48   27   28 2
    49   27   51 1
    50   28   29 1
    51   28   52 1
    52   29   30 1
    53   29   53 1
    54   29   54 1
    55   30   31 1
    56   30   32 1
    57   32   33 2
@<TRIPOS>MOLECULE
ZINC25046105
   28    29     0     0     0
SMALL
USER_CHARGES
3,5-difluoro-N-(6-methyl-2-pyridyl)benzamide
@<TRIPOS>ATOM
      1 C1         -4.1533    2.5125    2.5400 C.3       1 <0>        -0.1062
      2 C2         -2.6730    2.2475    2.4429 C.ar      1 <0>         0.1618
      3 C3         -2.1375    1.7987    1.2515 C.ar      1 <0>        -0.2036
      4 C4         -0.7726    1.5608    1.1668 C.ar      1 <0>        -0.0435
      5 C5          0.0058    1.7740    2.2910 C.ar      1 <0>        -0.2137
      6 C6         -0.6013    2.2216    3.4588 C.ar      1 <0>         0.3675
      7 N1         -1.9062    2.4419    3.4984 N.ar      1 <0>        -0.4813
      8 N2          0.1704    2.4398    4.5981 N.am      1 <0>        -0.6692
      9 C7         -0.3925    2.9701    5.7019 C.2       1 <0>         0.5537
     10 O1         -1.5906    3.1718    5.7361 O.2       1 <0>        -0.4557
     11 C8          0.4473    3.3062    6.8710 C.ar      1 <0>        -0.0732
     12 C9          1.8224    3.0703    6.8367 C.ar      1 <0>        -0.1358
     13 C10         2.6034    3.3910    7.9309 C.ar      1 <0>         0.1309
     14 C11         2.0222    3.9363    9.0640 C.ar      1 <0>        -0.1669
     15 C12         0.6569    4.1674    9.1057 C.ar      1 <0>         0.1323
     16 C13        -0.1330    3.8554    8.0154 C.ar      1 <0>        -0.1052
     17 F1          0.0966    4.6990   10.2141 F         1 <0>        -0.1218
     18 F2          3.9354    3.1679    7.8971 F         1 <0>        -0.1236
     19 H1         -4.6285    2.2977    1.5715 H         1 <0>         0.0760
     20 H2         -4.3204    3.5670    2.8046 H         1 <0>         0.0806
     21 H3         -4.5914    1.8662    3.3148 H         1 <0>         0.0805
     22 H4         -2.7736    1.6380    0.3937 H         1 <0>         0.1364
     23 H5         -0.3288    1.2131    0.2457 H         1 <0>         0.1395
     24 H6          1.0705    1.5954    2.2614 H         1 <0>         0.1365
     25 H7          1.2391    2.1793    4.5967 H         1 <0>         0.4413
     26 H8          2.2760    2.6417    5.9552 H         1 <0>         0.1464
     27 H9          2.6357    4.1819    9.9182 H         1 <0>         0.1569
     28 H10        -1.1971    4.0366    8.0487 H         1 <0>         0.1591
@<TRIPOS>BOND
     1    1    2 1
     2    1   19 1
     3    1   20 1
     4    1   21 1
     5    2    7 ar
     6    2    3 ar
     7    3    4 ar
     8    3   22 1
     9    4    5 ar
    10    4   23 1
    11    5    6 ar
    12    5   24 1
    13    6    7 ar
    14    6    8 1
    15    8    9 am
    16    8   25 1
    17    9   10 2
    18    9   11 1
    19   11   16 ar
    20   11   12 ar
    21   12   13 ar
    22   12   26 1
    23   13   14 ar
    24   13   18 1
    25   14   15 ar
    26   14   27 1
    27   15   16 ar
    28   15   17 1
    29   16   28 1
@<TRIPOS>MOLECULE
ZINC12526516
   39    41     0     0     0
SMALL
USER_CHARGES
N-(6-methyl-2-pyridyl)-4-phenoxy-benzamide
@<TRIPOS>ATOM
      1 C1         -4.2107    2.6456    2.5635 C.3       1 <0>        -0.1055
      2 C2         -2.7417    2.3211    2.4738 C.ar      1 <0>         0.1611
      3 C3         -2.2221    1.8346    1.2903 C.ar      1 <0>        -0.2032
      4 C4         -0.8675    1.5421    1.2123 C.ar      1 <0>        -0.0433
      5 C5         -0.0834    1.7405    2.3353 C.ar      1 <0>        -0.2142
      6 C6         -0.6746    2.2283    3.4951 C.ar      1 <0>         0.3638
      7 N1         -1.9699    2.5003    3.5284 N.ar      1 <0>        -0.4779
      8 N2          0.1029    2.4323    4.6330 N.am      1 <0>        -0.6589
      9 C7         -0.4393    3.0050    5.7259 C.2       1 <0>         0.5508
     10 O1         -1.6292    3.2527    5.7554 O.2       1 <0>        -0.4606
     11 C8          0.4113    3.3314    6.8867 C.ar      1 <0>        -0.1359
     12 C9          1.7783    3.0422    6.8569 C.ar      1 <0>        -0.0714
     13 C10         2.5697    3.3535    7.9398 C.ar      1 <0>        -0.1272
     14 C11         2.0084    3.9438    9.0665 C.ar      1 <0>         0.1152
     15 C12         0.6480    4.2279    9.1022 C.ar      1 <0>        -0.1395
     16 C13        -0.1490    3.9253    8.0209 C.ar      1 <0>        -0.0406
     17 O2          2.7906    4.2440   10.1339 O.3       1 <0>        -0.2593
     18 C14         2.7342    3.4247   11.2165 C.ar      1 <0>         0.1187
     19 C15         1.8274    2.3749   11.2472 C.ar      1 <0>        -0.1958
     20 C16         1.7761    1.5400   12.3466 C.ar      1 <0>        -0.0813
     21 C17         2.6199    1.7563   13.4204 C.ar      1 <0>        -0.1499
     22 C18         3.5203    2.8054   13.3949 C.ar      1 <0>        -0.0821
     23 C19         3.5796    3.6398   12.2956 C.ar      1 <0>        -0.1432
     24 H1         -4.3710    3.6857    2.2798 H         1 <0>         0.0802
     25 H2         -4.5552    2.4905    3.5859 H         1 <0>         0.0798
     26 H3         -4.7682    1.9951    1.8896 H         1 <0>         0.0767
     27 H4         -2.8624    1.6869    0.4332 H         1 <0>         0.1367
     28 H5         -0.4359    1.1643    0.2972 H         1 <0>         0.1398
     29 H6          0.9735    1.5198    2.3108 H         1 <0>         0.1361
     30 H7          1.0345    2.1621    4.6386 H         1 <0>         0.4165
     31 H8          2.2143    2.5795    5.9838 H         1 <0>         0.1348
     32 H9          3.6270    3.1347    7.9158 H         1 <0>         0.1417
     33 H10         0.2157    4.6868    9.9791 H         1 <0>         0.1413
     34 H11        -1.2056    4.1469    8.0492 H         1 <0>         0.1472
     35 H12         1.1653    2.2080   10.4105 H         1 <0>         0.1288
     36 H13         1.0735    0.7201   12.3691 H         1 <0>         0.1273
     37 H14         2.5754    1.1049   14.2807 H         1 <0>         0.1267
     38 H15         4.1780    2.9724   14.2351 H         1 <0>         0.1329
     39 H16         4.2830    4.4591   12.2763 H         1 <0>         0.1337
@<TRIPOS>BOND
     1    1    2 1
     2    1   24 1
     3    1   25 1
     4    1   26 1
     5    2    7 ar
     6    2    3 ar
     7    3    4 ar
     8    3   27 1
     9    4    5 ar
    10    4   28 1
    11    5    6 ar
    12    5   29 1
    13    6    7 ar
    14    6    8 1
    15    8    9 am
    16    8   30 1
    17    9   10 2
    18    9   11 1
    19   11   16 ar
    20   11   12 ar
    21   12   13 ar
    22   12   31 1
    23   13   14 ar
    24   13   32 1
    25   14   15 ar
    26   14   17 1
    27   15   16 ar
    28   15   33 1
    29   16   34 1
    30   17   18 1
    31   18   23 ar
    32   18   19 ar
    33   19   20 ar
    34   19   35 1
    35   20   21 ar
    36   20   36 1
    37   21   22 ar
    38   21   37 1
    39   22   23 ar
    40   22   38 1
    41   23   39 1
@<TRIPOS>MOLECULE
ZINC03879105
   38    40     0     0     0
SMALL
USER_CHARGES
N-(6-methyl-2-pyridyl)-4-phenyl-benzamide
@<TRIPOS>ATOM
      1 C1         -4.1534    2.5117    2.5402 C.3       1 <0>        -0.1054
      2 C2         -2.6731    2.2466    2.4432 C.ar      1 <0>         0.1611
      3 C3         -2.1376    1.7979    1.2518 C.ar      1 <0>        -0.2044
      4 C4         -0.7726    1.5608    1.1668 C.ar      1 <0>        -0.0433
      5 C5          0.0058    1.7740    2.2910 C.ar      1 <0>        -0.2153
      6 C6         -0.6014    2.2212    3.4590 C.ar      1 <0>         0.3647
      7 N1         -1.9063    2.4411    3.4987 N.ar      1 <0>        -0.4780
      8 N2          0.1703    2.4394    4.5981 N.am      1 <0>        -0.6595
      9 C7         -0.3927    2.9693    5.7021 C.2       1 <0>         0.5499
     10 O1         -1.5911    3.1707    5.7364 O.2       1 <0>        -0.4634
     11 C8          0.4462    3.3052    6.8701 C.ar      1 <0>        -0.1378
     12 C9          1.8228    3.0686    6.8335 C.ar      1 <0>        -0.0826
     13 C10         2.6046    3.3875    7.9207 C.ar      1 <0>        -0.1189
     14 C11         2.0214    3.9363    9.0630 C.ar      1 <0>        -0.0131
     15 C12         0.6461    4.1672    9.1031 C.ar      1 <0>        -0.1185
     16 C13        -0.1369    3.8545    8.0150 C.ar      1 <0>        -0.0510
     17 C14         2.8638    4.2741   10.2356 C.ar      1 <0>        -0.0576
     18 C15         2.2850    4.8276   11.3767 C.ar      1 <0>        -0.1051
     19 C16         3.0734    5.1359   12.4666 C.ar      1 <0>        -0.1181
     20 C17         4.4368    4.9056   12.4247 C.ar      1 <0>        -0.1127
     21 C18         5.0174    4.3615   11.2931 C.ar      1 <0>        -0.1187
     22 C19         4.2383    4.0447   10.1989 C.ar      1 <0>        -0.1057
     23 H1         -4.3553    3.5486    2.2717 H         1 <0>         0.0800
     24 H2         -4.4892    2.3287    3.5610 H         1 <0>         0.0798
     25 H3         -4.6866    1.8494    1.8582 H         1 <0>         0.0765
     26 H4         -2.7738    1.6369    0.3940 H         1 <0>         0.1363
     27 H5         -0.3287    1.2137    0.2455 H         1 <0>         0.1394
     28 H6          1.0706    1.5958    2.2613 H         1 <0>         0.1357
     29 H7          1.1128    2.2101    4.5967 H         1 <0>         0.4162
     30 H8          2.2740    2.6399    5.9508 H         1 <0>         0.1274
     31 H9          3.6694    3.2089    7.8909 H         1 <0>         0.1340
     32 H10         0.1957    4.5918    9.9881 H         1 <0>         0.1352
     33 H11        -1.2015    4.0333    8.0463 H         1 <0>         0.1409
     34 H12         1.2213    5.0112   11.4091 H         1 <0>         0.1275
     35 H13         2.6256    5.5612   13.3525 H         1 <0>         0.1266
     36 H14         5.0504    5.1520   13.2786 H         1 <0>         0.1248
     37 H15         6.0824    4.1846   11.2657 H         1 <0>         0.1263
     38 H16         4.6927    3.6203    9.3159 H         1 <0>         0.1267
@<TRIPOS>BOND
     1    1    2 1
     2    1   23 1
     3    1   24 1
     4    1   25 1
     5    2    7 ar
     6    2    3 ar
     7    3    4 ar
     8    3   26 1
     9    4    5 ar
    10    4   27 1
    11    5    6 ar
    12    5   28 1
    13    6    7 ar
    14    6    8 1
    15    8    9 am
    16    8   29 1
    17    9   10 2
    18    9   11 1
    19   11   16 ar
    20   11   12 ar
    21   12   13 ar
    22   12   30 1
    23   13   14 ar
    24   13   31 1
    25   14   15 ar
    26   14   17 1
    27   15   16 ar
    28   15   32 1
    29   16   33 1
    30   17   22 ar
    31   17   18 ar
    32   18   19 ar
    33   18   34 1
    34   19   20 ar
    35   19   35 1
    36   20   21 ar
    37   20   36 1
    38   21   22 ar
    39   21   37 1
    40   22   38 1
