@<TRIPOS>MOLECULE
ZINC19632743
   20    19     0     0     0
SMALL
USER_CHARGES

@<TRIPOS>ATOM
      1 C1         -0.0187    1.5258    0.0104 C.3       1 <0>        -0.0985
      2 C2          0.0021   -0.0041    0.0020 C.3       1 <0>        -0.7423
      3 P1         -1.7082   -0.6351    0.0150 P.3       1 <0>         2.2529
      4 O1         -2.4691   -0.0359    1.2187 O.2       1 <0>        -1.0899
      5 O2         -2.4170   -0.2287   -1.2963 O.3       1 <0>        -1.0881
      6 O3         -1.6871   -2.2402    0.1384 O.3       1 <0>        -0.9064
      7 C3          1.4167    2.0553   -0.0004 C.3       1 <0>        -0.0481
      8 H1          1.9535    1.6326   -0.8497 H         1 <0>         0.1243
      9 C4          1.3970    3.5578   -0.1160 C.2       1 <0>         0.4947
     10 O4          1.7295    4.2467    0.8334 O.co2     1 <0>        -0.6823
     11 O5          1.0484    4.0844   -1.1589 O.co2     1 <0>        -0.6363
     12 N1          2.0906    1.6690    1.2464 N.4       1 <0>        -0.6104
     13 H2         -0.5459    1.8868   -0.8726 H         1 <0>         0.1162
     14 H3         -0.5289    1.8773    0.9072 H         1 <0>         0.0904
     15 H4          0.5123   -0.3556   -0.8948 H         1 <0>         0.0822
     16 H5          0.5293   -0.3651    0.8851 H         1 <0>         0.0600
     17 H6         -2.5651   -2.6452    0.1513 H         1 <0>         0.4152
     18 H7          2.1039    0.6630    1.3237 H         1 <0>         0.4110
     19 H8          3.0372    2.0182    1.2392 H         1 <0>         0.4240
     20 H9          1.5937    2.0603    2.0325 H         1 <0>         0.4313
@<TRIPOS>BOND
     1    1    2 1
     2    1    7 1
     3    1   13 1
     4    1   14 1
     5    2    3 1
     6    2   15 1
     7    2   16 1
     8    3    4 2
     9    3    5 1
    10    3    6 1
    11    6   17 1
    12    7    8 1
    13    7    9 1
    14    7   12 1
    15    9   10 2
    16    9   11 1
    17   12   18 1
    18   12   19 1
    19   12   20 1
@<TRIPOS>MOLECULE
ZINC32628523
   21    21     0     0     0
SMALL
USER_CHARGES

@<TRIPOS>ATOM
      1 C1         -0.0188    1.5384    0.0105 C.3       1 <0>        -0.0919
      2 C2          1.4663    1.9598   -0.0014 C.3       1 <0>        -0.0335
      3 H1          1.8178    2.1424    1.0141 H         1 <0>         0.1300
      4 N1          2.1797    0.8001   -0.5959 N.4       1 <0>        -0.4916
      5 C3          1.4981   -0.3849   -0.0143 C.3       1 <0>         0.0239
      6 C4          0.0021   -0.0041    0.0020 C.3       1 <0>         0.0225
      7 C5         -0.6618   -0.5434    1.2428 C.2       1 <0>         0.4803
      8 O1         -1.6413   -1.2630    1.1463 O.co2     1 <0>        -0.6786
      9 O2         -0.2195   -0.2601    2.3430 O.co2     1 <0>        -0.6799
     10 N2         -0.6681   -0.5168   -1.2004 N.3       1 <0>        -0.8234
     11 C6          1.6569    3.1894   -0.8516 C.2       1 <0>         0.4976
     12 O3          1.5676    4.2971   -0.3501 O.co2     1 <0>        -0.6493
     13 O4          1.9004    3.0764   -2.0409 O.co2     1 <0>        -0.6757
     14 H2         -0.5093    1.9054    0.9121 H         1 <0>         0.0978
     15 H3         -0.5264    1.9150   -0.8776 H         1 <0>         0.0886
     16 H4          2.0844    0.8044   -1.6004 H         1 <0>         0.4306
     17 H5          1.6602   -1.2621   -0.6406 H         1 <0>         0.1175
     18 H6          1.8545   -0.5691    0.9991 H         1 <0>         0.1306
     19 H7         -0.6603   -1.5257   -1.2164 H         1 <0>         0.3413
     20 H8         -1.6099   -0.1614   -1.2688 H         1 <0>         0.3508
     21 H9          3.1535    0.8119   -0.3321 H         1 <0>         0.4122
@<TRIPOS>BOND
     1    1    6 1
     2    1    2 1
     3    1   14 1
     4    1   15 1
     5    2    3 1
     6    2    4 1
     7    2   11 1
     8    4    5 1
     9    4   16 1
    10    4   21 1
    11    5    6 1
    12    5   17 1
    13    5   18 1
    14    6    7 1
    15    6   10 1
    16    7    8 2
    17    7    9 1
    18   10   19 1
    19   10   20 1
    20   11   12 2
    21   11   13 1
@<TRIPOS>MOLECULE
ZINC01482113
   18    17     0     0     0
SMALL
USER_CHARGES

@<TRIPOS>ATOM
      1 C1         -0.0187    1.5258    0.0104 C.3       1 <0>        -0.1000
      2 C2          0.0021   -0.0041    0.0020 C.3       1 <0>        -0.1962
      3 C3         -1.4117   -0.5257    0.0127 C.2       1 <0>         0.4893
      4 O1         -2.3491    0.2539    0.0259 O.co2     1 <0>        -0.6870
      5 O2         -1.6182   -1.7273    0.0082 O.co2     1 <0>        -0.7019
      6 C4          1.4167    2.0553   -0.0004 C.3       1 <0>        -0.0520
      7 H1          1.9535    1.6326   -0.8497 H         1 <0>         0.1269
      8 C5          1.3970    3.5578   -0.1160 C.2       1 <0>         0.4945
      9 O3          1.7295    4.2467    0.8334 O.co2     1 <0>        -0.6861
     10 O4          1.0484    4.0844   -1.1589 O.co2     1 <0>        -0.6413
     11 N1          2.0906    1.6690    1.2464 N.4       1 <0>        -0.6105
     12 H2         -0.5459    1.8868   -0.8726 H         1 <0>         0.1064
     13 H3         -0.5289    1.8773    0.9072 H         1 <0>         0.0773
     14 H4          0.5123   -0.3556   -0.8948 H         1 <0>         0.0672
     15 H5          0.5293   -0.3651    0.8851 H         1 <0>         0.0471
     16 H6          2.1039    0.6630    1.3237 H         1 <0>         0.4141
     17 H7          3.0372    2.0182    1.2392 H         1 <0>         0.4227
     18 H8          1.5937    2.0603    2.0325 H         1 <0>         0.4293
@<TRIPOS>BOND
     1    1    2 1
     2    1    6 1
     3    1   12 1
     4    1   13 1
     5    2    3 1
     6    2   14 1
     7    2   15 1
     8    3    4 2
     9    3    5 1
    10    6    7 1
    11    6    8 1
    12    6   11 1
    13    8    9 2
    14    8   10 1
    15   11   16 1
    16   11   17 1
    17   11   18 1
