@<TRIPOS>MOLECULE
ZINC02517049
   45    47     0     0     0
SMALL
USER_CHARGES
hydroxymethyl-isopropyl-methyl-BLAHone
@<TRIPOS>ATOM
      1 C1         -1.0840    0.1136    0.7982 C.3       1 <0>        -0.3027
      2 C2         -1.7402    0.5789    2.0996 C.3       1 <0>        -0.1010
      3 C3         -3.1416   -0.0254    2.2085 C.3       1 <0>        -0.1744
      4 C4         -0.8938    0.1220    3.2894 C.3       1 <0>         0.0624
      5 H1         -1.0222    0.8142    4.1215 H         1 <0>         0.1086
      6 C5         -1.3191   -1.2649    3.7123 C.2       1 <0>         0.5375
      7 O1         -1.5613   -1.4149    4.8912 O.2       1 <0>        -0.5647
      8 N1         -1.4593   -2.3406    2.9419 N.am      1 <0>        -0.6891
      9 C6         -1.0932   -2.2710    1.5349 C.3       1 <0>         0.0045
     10 H2         -1.1922   -1.2431    1.1860 H         1 <0>         0.2066
     11 C7          0.3413   -2.7342    1.3388 C.3       1 <0>        -0.0582
     12 C8          0.9409   -1.8006    0.3227 C.2       1 <0>        -0.1837
     13 C9          1.4594   -2.0701   -0.8734 C.2       1 <0>         0.0695
     14 N2          1.7338   -0.8949   -1.5287 N.pl3     1 <0>        -0.5914
     15 H3          2.1422   -0.8281   -2.4060 H         1 <0>         0.4195
     16 C10         1.3422    0.1751   -0.7541 C.ar      1 <0>         0.0897
     17 C11         0.9284   -0.3443    0.4863 C.ar      1 <0>        -0.0903
     18 C12         0.6409    0.5301    1.5410 C.ar      1 <0>         0.1655
     19 C13         0.5522    1.8874    1.3001 C.ar      1 <0>        -0.2082
     20 C14         0.8885    2.3913    0.0506 C.ar      1 <0>        -0.0839
     21 C15         1.3144    1.5512   -0.9560 C.ar      1 <0>        -0.1356
     22 N3          0.5523    0.0748    2.8911 N.pl3     1 <0>        -0.4847
     23 C16         1.3712    0.9073    3.7823 C.3       1 <0>         0.0192
     24 C17        -2.0235   -3.1744    0.7231 C.3       1 <0>         0.0693
     25 O2         -3.3584   -2.6693    0.7929 O.3       1 <0>        -0.5648
     26 H4         -1.8401   -0.3236    0.1461 H         1 <0>         0.0647
     27 H5         -0.6224    0.9656    0.2991 H         1 <0>         0.0976
     28 H6         -0.3218   -0.6328    1.0222 H         1 <0>         0.2102
     29 H7         -1.8124    1.6666    2.1014 H         1 <0>         0.0828
     30 H8         -3.0801   -1.1080    2.0977 H         1 <0>         0.0994
     31 H9         -3.5669    0.2165    3.1826 H         1 <0>         0.0528
     32 H10        -3.7763    0.3848    1.4230 H         1 <0>         0.0606
     33 H11        -1.8038   -3.1666    3.3158 H         1 <0>         0.4003
     34 H12         0.3611   -3.7586    0.9670 H         1 <0>         0.0763
     35 H13         0.8840   -2.6637    2.2815 H         1 <0>         0.0938
     36 H14         1.6362   -3.0599   -1.2678 H         1 <0>         0.1751
     37 H15         0.2262    2.5558    2.0832 H         1 <0>         0.1278
     38 H16         0.8160    3.4528   -0.1345 H         1 <0>         0.1285
     39 H17         1.6270    1.9627   -1.9043 H         1 <0>         0.1224
     40 H18         1.0687    1.9500    3.6851 H         1 <0>         0.0438
     41 H19         1.2308    0.5828    4.8134 H         1 <0>         0.0813
     42 H20         2.4218    0.8069    3.5097 H         1 <0>         0.0796
     43 H21        -1.6960   -3.1930   -0.3164 H         1 <0>         0.0578
     44 H22        -1.9956   -4.1849    1.1309 H         1 <0>         0.0470
     45 H23        -4.0038   -3.1940    0.2997 H         1 <0>         0.3786
@<TRIPOS>BOND
     1    1    2 1
     2    1   26 1
     3    1   27 1
     4    1   28 1
     5    2    3 1
     6    2    4 1
     7    2   29 1
     8    3   30 1
     9    3   31 1
    10    3   32 1
    11    4    5 1
    12    4   22 1
    13    4    6 1
    14    6    7 2
    15    6    8 am
    16    8    9 1
    17    8   33 1
    18    9   10 1
    19    9   11 1
    20    9   24 1
    21   11   12 1
    22   11   34 1
    23   11   35 1
    24   12   17 1
    25   12   13 2
    26   13   14 1
    27   13   36 1
    28   14   15 1
    29   14   16 1
    30   16   21 ar
    31   16   17 ar
    32   17   18 ar
    33   18   19 ar
    34   18   22 1
    35   19   20 ar
    36   19   37 1
    37   20   21 ar
    38   20   38 1
    39   21   39 1
    40   22   23 1
    41   23   40 1
    42   23   41 1
    43   23   42 1
    44   24   25 1
    45   24   43 1
    46   24   44 1
    47   25   45 1
