@<TRIPOS>MOLECULE
ZINC03917574
   55    62     0     0     0
SMALL
USER_CHARGES
hexahydroxy-(hydroxymethyl)-methyl-BLAHdione
@<TRIPOS>ATOM
      1 C1         -5.7735   -1.7717   -2.2159 C.3       1 <0>        -0.1300
      2 C2         -5.9125   -0.5142   -1.3940 C.ar      1 <0>        -0.0167
      3 C3         -7.1725    0.0345   -1.2759 C.ar      1 <0>        -0.1568
      4 C4         -7.3577    1.3055   -0.7398 C.ar      1 <0>         0.1923
      5 C5         -6.2390    2.0897   -0.4435 C.ar      1 <0>        -0.1815
      6 C6         -4.9575    1.5302   -0.6135 C.ar      1 <0>         0.0125
      7 C7         -4.8010    0.1447   -0.8657 C.ar      1 <0>        -0.0401
      8 C8         -3.4760   -0.4472   -0.6947 C.ar      1 <0>        -0.0320
      9 C9         -3.2187   -1.7632   -0.3225 C.ar      1 <0>        -0.0220
     10 C10        -1.9618   -2.3072   -0.4708 C.ar      1 <0>        -0.1300
     11 C11        -0.8819   -1.5257   -0.8705 C.ar      1 <0>         0.1883
     12 C12        -1.0591   -0.1497   -1.0404 C.ar      1 <0>        -0.1771
     13 C13        -2.3483    0.3978   -0.8808 C.ar      1 <0>         0.0075
     14 C14        -2.5163    1.8480   -0.8426 C.ar      1 <0>        -0.0089
     15 C15        -3.7815    2.3941   -0.5935 C.ar      1 <0>        -0.0146
     16 C16        -3.9166    3.8182   -0.3063 C.ar      1 <0>         0.0255
     17 C17        -2.7771    4.6503   -0.3479 C.ar      1 <0>        -0.0719
     18 C18        -2.8810    5.9379    0.2062 C.ar      1 <0>         0.2000
     19 C19        -4.1259    6.4717    0.4927 C.ar      1 <0>        -0.1896
     20 C20        -5.2766    5.6981    0.4013 C.ar      1 <0>         0.2092
     21 C21        -5.1829    4.3509    0.0281 C.ar      1 <0>        -0.1951
     22 C22        -6.3727    3.4936   -0.0308 C.2       1 <0>         0.4386
     23 O1         -7.4649    3.9430    0.2655 O.2       1 <0>        -0.4191
     24 O2         -6.4800    6.2579    0.6679 O.3       1 <0>        -0.4729
     25 O3         -1.7827    6.6770    0.4947 O.3       1 <0>        -0.4692
     26 C23        -1.5385    4.1333   -0.9291 C.ar      1 <0>        -0.0717
     27 C24        -1.3728    2.7322   -1.0380 C.ar      1 <0>         0.0239
     28 C25        -0.1082    2.1856   -1.3536 C.ar      1 <0>        -0.1941
     29 C26         0.0722    0.7295   -1.3683 C.2       1 <0>         0.4368
     30 O4          1.1556    0.2504   -1.6513 O.2       1 <0>        -0.4161
     31 C27         0.9573    3.0490   -1.6390 C.ar      1 <0>         0.2086
     32 C28         0.7448    4.4216   -1.6687 C.ar      1 <0>        -0.1883
     33 C29        -0.5055    4.9551   -1.4061 C.ar      1 <0>         0.2001
     34 O5         -0.7031    6.2751   -1.6453 O.3       1 <0>        -0.4701
     35 O6          2.1959    2.5602   -1.8836 O.3       1 <0>        -0.4728
     36 O7          0.3301   -2.0989   -1.0608 O.3       1 <0>        -0.4728
     37 C30        -4.2608   -2.6058    0.3755 C.3       1 <0>         0.0997
     38 O8         -3.7255   -3.9044    0.6383 O.3       1 <0>        -0.5664
     39 O9         -8.6102    1.7640   -0.5083 O.3       1 <0>        -0.4727
     40 H1         -5.9346   -2.6416   -1.5791 H         1 <0>         0.0859
     41 H2         -6.5128   -1.7659   -3.0168 H         1 <0>         0.0846
     42 H3         -4.7727   -1.8163   -2.6455 H         1 <0>         0.0778
     43 H4         -8.0308   -0.5498   -1.5717 H         1 <0>         0.1473
     44 H5         -1.8140   -3.3592   -0.2732 H         1 <0>         0.1587
     45 H6         -4.1995    7.4943    0.8323 H         1 <0>         0.1526
     46 H7         -6.7484    6.1909    1.5945 H         1 <0>         0.4038
     47 H8         -1.4216    6.5168    1.3773 H         1 <0>         0.3999
     48 H9          1.5555    5.0791   -1.9433 H         1 <0>         0.1529
     49 H10        -1.0345    6.4687   -2.5329 H         1 <0>         0.3999
     50 H11         2.3658    2.3679   -2.8159 H         1 <0>         0.4040
     51 H12         0.8775   -2.1351   -0.2645 H         1 <0>         0.4010
     52 H13        -4.5414   -2.1314    1.3158 H         1 <0>         0.0729
     53 H14        -5.1403   -2.6975   -0.2618 H         1 <0>         0.0780
     54 H15        -4.3413   -4.5005    1.0860 H         1 <0>         0.3899
     55 H16        -8.9989    2.2401   -1.2548 H         1 <0>         0.4006
@<TRIPOS>BOND
     1    1    2 1
     2    1   40 1
     3    1   41 1
     4    1   42 1
     5    2    7 ar
     6    2    3 ar
     7    3    4 ar
     8    3   43 1
     9    4    5 ar
    10    4   39 1
    11    5   22 1
    12    5    6 ar
    13    6   15 ar
    14    6    7 ar
    15    7    8 ar
    16    8   13 ar
    17    8    9 ar
    18    9   10 ar
    19    9   37 1
    20   10   11 ar
    21   10   44 1
    22   11   12 ar
    23   11   36 1
    24   12   29 1
    25   12   13 ar
    26   13   14 ar
    27   14   27 ar
    28   14   15 ar
    29   15   16 ar
    30   16   21 ar
    31   16   17 ar
    32   17   18 ar
    33   17   26 ar
    34   18   19 ar
    35   18   25 1
    36   19   20 ar
    37   19   45 1
    38   20   21 ar
    39   20   24 1
    40   21   22 1
    41   22   23 2
    42   24   46 1
    43   25   47 1
    44   26   33 ar
    45   26   27 ar
    46   27   28 ar
    47   28   29 1
    48   28   31 ar
    49   29   30 2
    50   31   32 ar
    51   31   35 1
    52   32   33 ar
    53   32   48 1
    54   33   34 1
    55   34   49 1
    56   35   50 1
    57   36   51 1
    58   37   38 1
    59   37   52 1
    60   37   53 1
    61   38   54 1
    62   39   55 1
@<TRIPOS>MOLECULE
ZINC03780340
   54    61     0     0     0
SMALL
USER_CHARGES

@<TRIPOS>ATOM
      1 C1         -0.0183    1.5018    0.0103 C.3       1 <0>        -0.1343
      2 C2          0.0021   -0.0041    0.0020 C.ar      1 <0>        -0.0117
      3 C3         -0.0548   -0.6265   -1.2322 C.ar      1 <0>        -0.1561
      4 C4          0.0423   -2.0081   -1.3580 C.ar      1 <0>         0.1912
      5 C5          0.2687   -2.7865   -0.2197 C.ar      1 <0>        -0.1794
      6 C6          0.3275   -2.1471    1.0349 C.ar      1 <0>         0.0101
      7 C7          0.0235   -0.7668    1.1650 C.ar      1 <0>        -0.0358
      8 C8         -0.3007   -0.2785    2.5070 C.ar      1 <0>        -0.0338
      9 C9         -1.2665    0.6752    2.8209 C.ar      1 <0>        -0.0142
     10 C10        -1.2867    1.2661    4.0674 C.ar      1 <0>        -0.1580
     11 C11        -0.4714    0.8089    5.0987 C.ar      1 <0>         0.1913
     12 C12         0.3146   -0.3273    4.8901 C.ar      1 <0>        -0.1827
     13 C13         0.3125   -0.9218    3.6120 C.ar      1 <0>         0.0070
     14 C14         0.8801   -2.2552    3.4413 C.ar      1 <0>        -0.0121
     15 C15         0.7605   -2.9018    2.2059 C.ar      1 <0>        -0.0145
     16 C16         1.0580   -4.3257    2.1086 C.ar      1 <0>         0.0248
     17 C17         1.5790   -5.0116    3.2284 C.ar      1 <0>        -0.0698
     18 C18         1.6198   -6.4153    3.1802 C.ar      1 <0>         0.1999
     19 C19         1.3943   -7.0793    1.9870 C.ar      1 <0>        -0.1918
     20 C20         1.0304   -6.3896    0.8372 C.ar      1 <0>         0.2090
     21 C21         0.8451   -5.0024    0.8857 C.ar      1 <0>        -0.1930
     22 C22         0.4370   -4.2442   -0.3027 C.2       1 <0>         0.4375
     23 O1          0.2360   -4.8224   -1.3562 O.2       1 <0>        -0.4172
     24 O2          0.8589   -7.0699   -0.3219 O.3       1 <0>        -0.4734
     25 O3          1.8092   -7.1545    4.3012 O.3       1 <0>        -0.4693
     26 C23         2.0419   -4.2390    4.3823 C.ar      1 <0>        -0.0675
     27 C24         1.5760   -2.9127    4.5400 C.ar      1 <0>         0.0229
     28 C25         1.7638   -2.2242    5.7609 C.ar      1 <0>        -0.1924
     29 C26         1.1439   -0.9082    5.9559 C.2       1 <0>         0.4375
     30 O4          1.3190   -0.2963    6.9945 O.2       1 <0>        -0.4154
     31 C27         2.5510   -2.8139    6.7570 C.ar      1 <0>         0.2093
     32 C28         3.1465   -4.0483    6.5262 C.ar      1 <0>        -0.1937
     33 C29         2.9414   -4.7327    5.3400 C.ar      1 <0>         0.1998
     34 O5          3.6804   -5.8458    5.1072 O.3       1 <0>        -0.4711
     35 O6          2.7393   -2.1950    7.9469 O.3       1 <0>        -0.4738
     36 O7         -0.4506    1.4619    6.2838 O.3       1 <0>        -0.4725
     37 C30        -2.4068    0.9973    1.8857 C.3       1 <0>        -0.1315
     38 O8         -0.0840   -2.5835   -2.5775 O.3       1 <0>        -0.4742
     39 H1          1.0042    1.8791    0.0026 H         1 <0>         0.0854
     40 H2         -0.5455    1.8629   -0.8728 H         1 <0>         0.0810
     41 H3         -0.5285    1.8533    0.9071 H         1 <0>         0.0822
     42 H4         -0.1792   -0.0181   -2.1166 H         1 <0>         0.1459
     43 H5         -1.9456    2.1046    4.2421 H         1 <0>         0.1467
     44 H6          1.5080   -8.1534    1.9505 H         1 <0>         0.1529
     45 H7         -0.0435   -7.3884   -0.4612 H         1 <0>         0.4037
     46 H8          0.9905   -7.3986    4.7543 H         1 <0>         0.3985
     47 H9          3.7779   -4.4856    7.2860 H         1 <0>         0.1529
     48 H10         4.5367   -5.6700    4.6938 H         1 <0>         0.4000
     49 H11         2.0795   -2.4213    8.6167 H         1 <0>         0.4029
     50 H12        -1.1024    1.1403    6.9216 H         1 <0>         0.3992
     51 H13        -3.2535    0.3479    2.1081 H         1 <0>         0.0863
     52 H14        -2.7024    2.0380    2.0182 H         1 <0>         0.0808
     53 H15        -2.0878    0.8384    0.8556 H         1 <0>         0.0794
     54 H16         0.7509   -2.6780   -3.0562 H         1 <0>         0.4010
@<TRIPOS>BOND
     1    1    2 1
     2    1   39 1
     3    1   40 1
     4    1   41 1
     5    2    7 ar
     6    2    3 ar
     7    3    4 ar
     8    3   42 1
     9    4    5 ar
    10    4   38 1
    11    5   22 1
    12    5    6 ar
    13    6   15 ar
    14    6    7 ar
    15    7    8 ar
    16    8   13 ar
    17    8    9 ar
    18    9   10 ar
    19    9   37 1
    20   10   11 ar
    21   10   43 1
    22   11   12 ar
    23   11   36 1
    24   12   29 1
    25   12   13 ar
    26   13   14 ar
    27   14   27 ar
    28   14   15 ar
    29   15   16 ar
    30   16   21 ar
    31   16   17 ar
    32   17   18 ar
    33   17   26 ar
    34   18   19 ar
    35   18   25 1
    36   19   20 ar
    37   19   44 1
    38   20   21 ar
    39   20   24 1
    40   21   22 1
    41   22   23 2
    42   24   45 1
    43   25   46 1
    44   26   33 ar
    45   26   27 ar
    46   27   28 ar
    47   28   29 1
    48   28   31 ar
    49   29   30 2
    50   31   32 ar
    51   31   35 1
    52   32   33 ar
    53   32   47 1
    54   33   34 1
    55   34   48 1
    56   35   49 1
    57   36   50 1
    58   37   51 1
    59   37   52 1
    60   37   53 1
    61   38   54 1
