@<TRIPOS>MOLECULE
ZINC08337100
   33    33     0     0     0
SMALL
USER_CHARGES
2-[(4-nitrophenyl)methylamino]butan-1-ol
@<TRIPOS>ATOM
      1 C1          0.9298    3.1992   -2.5010 C.3       1 <0>        -0.1555
      2 C2          0.1814    3.4045   -1.1824 C.3       1 <0>        -0.1432
      3 C3          1.1260    3.1266   -0.0113 C.3       1 <0>         0.0322
      4 H1          2.0211    3.7403   -0.1129 H         1 <0>         0.1513
      5 C4          1.5187    1.6479   -0.0126 C.3       1 <0>         0.0490
      6 O1          0.3389    0.8417    0.0033 O.3       1 <0>        -0.5767
      7 C5          0.6078    4.8752    1.5814 C.3       1 <0>         0.0427
      8 C6         -0.2004    5.1984    2.8116 C.ar      1 <0>        -0.1193
      9 C7         -1.5120    5.6165    2.6868 C.ar      1 <0>        -0.0893
     10 C8         -2.2547    5.9087    3.8156 C.ar      1 <0>        -0.0513
     11 C9         -1.6827    5.7920    5.0686 C.ar      1 <0>        -0.0098
     12 C10        -0.3695    5.3784    5.1932 C.ar      1 <0>        -0.0518
     13 C11         0.3717    5.0820    4.0646 C.ar      1 <0>        -0.0899
     14 N1         -2.4764    6.1093    6.2770 N.pl3     1 <0>         0.0117
     15 O2         -1.9726    6.0060    7.3811 O.2       1 <0>        -0.1351
     16 O3         -3.6335    6.4737    6.1673 O.3       1 <0>        -0.1349
     17 H2          1.8334    3.8088   -2.5046 H         1 <0>         0.0655
     18 H3          1.1999    2.1484   -2.6056 H         1 <0>         0.0679
     19 H4          0.2892    3.4942   -3.3320 H         1 <0>         0.0786
     20 H5         -0.6663    2.7210   -1.1355 H         1 <0>         0.0995
     21 H6         -0.1769    4.4323   -1.1241 H         1 <0>         0.0837
     22 H7          2.1191    1.4306    0.8708 H         1 <0>         0.0727
     23 H8          2.0979    1.4266   -0.9090 H         1 <0>         0.0979
     24 H9          0.5125   -0.1096    0.0034 H         1 <0>         0.4094
     25 H10         1.6595    5.0895    1.7709 H         1 <0>         0.1465
     26 H11         0.2578    5.4828    0.7468 H         1 <0>         0.1456
     27 H12        -1.9577    5.7116    1.7077 H         1 <0>         0.1571
     28 H13        -3.2807    6.2315    3.7183 H         1 <0>         0.1675
     29 H14         0.0773    5.2872    6.1721 H         1 <0>         0.1673
     30 H15         1.3978    4.7592    4.1619 H         1 <0>         0.1569
     31 N2          0.4442    3.4454    1.2574 N.4       1 <0>        -0.5152
     32 H16         0.8497    2.8787    2.0115 H         1 <0>         0.4321
     33 H17        -0.5558    3.2307    1.1678 H         1 <0>         0.4368
@<TRIPOS>BOND
     1    1    2 1
     2    1   17 1
     3    1   18 1
     4    1   19 1
     5    2    3 1
     6    2   20 1
     7    2   21 1
     8    3    4 1
     9    3    5 1
    10    3   31 1
    11    5    6 1
    12    5   22 1
    13    5   23 1
    14    6   24 1
    15    7    8 1
    16    7   25 1
    17    7   26 1
    18    7   31 1
    19    8   13 ar
    20    8    9 ar
    21    9   10 ar
    22    9   27 1
    23   10   11 ar
    24   10   28 1
    25   11   12 ar
    26   11   14 1
    27   12   13 ar
    28   12   29 1
    29   13   30 1
    30   14   15 2
    31   14   16 1
    32   31   32 1
    33   31   33 1
@<TRIPOS>MOLECULE
ZINC01758360
   31    31     0     0     0
SMALL
USER_CHARGES
2-(4-nitrobenzoyl)aminopentanedioic acid
@<TRIPOS>ATOM
      1 C1          0.0047   -2.8574   -0.0314 C.ar      1 <0>        -0.0875
      2 C2          0.0328   -4.2367   -0.0403 C.ar      1 <0>        -0.0573
      3 C3          1.0312   -4.9157    0.6353 C.ar      1 <0>        -0.0412
      4 C4          2.0113   -4.2173    1.3180 C.ar      1 <0>        -0.0623
      5 C5          1.9983   -2.8379    1.3296 C.ar      1 <0>        -0.0670
      6 C6          0.9936   -2.1468    0.6506 C.ar      1 <0>        -0.0514
      7 C7          0.9736   -0.6685    0.6587 C.2       1 <0>         0.5456
      8 O1          1.8333   -0.0523    1.2576 O.2       1 <0>        -0.5352
      9 N1          0.0021   -0.0041    0.0020 N.am      1 <0>        -0.6744
     10 C8         -0.0178    1.4608    0.0101 C.3       1 <0>         0.0978
     11 H1          1.0048    1.8381    0.0023 H         1 <0>         0.0901
     12 C9         -0.7578    1.9676   -1.2295 C.3       1 <0>        -0.0875
     13 C10         0.0259    1.5803   -2.4852 C.3       1 <0>        -0.1540
     14 C11        -0.7030    2.0796   -3.7061 C.2       1 <0>         0.4609
     15 O2         -1.7426    2.6832   -3.5843 O.co2     1 <0>        -0.6375
     16 C12        -0.7232    1.9468    1.2500 C.2       1 <0>         0.4653
     17 O3         -1.1640    1.1512    2.0453 O.co2     1 <0>        -0.6399
     18 N2          1.0513   -6.3956    0.6271 N.pl3     1 <0>         0.0333
     19 O4          1.9293   -6.9961    1.2205 O.2       1 <0>        -0.1683
     20 O5          0.1899   -7.0131    0.0269 O.3       1 <0>        -0.1647
     21 H2         -0.7782   -2.3286   -0.5548 H         1 <0>         0.1548
     22 H3         -0.7291   -4.7877   -0.5716 H         1 <0>         0.1577
     23 H4          2.7879   -4.7533    1.8433 H         1 <0>         0.1559
     24 H5          2.7641   -2.2939    1.8626 H         1 <0>         0.1605
     25 H6         -0.6840   -0.4958   -0.4759 H         1 <0>         0.3933
     26 H7         -1.7507    1.5197   -1.2683 H         1 <0>         0.0592
     27 H8         -0.8503    3.0525   -1.1791 H         1 <0>         0.0881
     28 H9          1.0188    2.0283   -2.4463 H         1 <0>         0.0618
     29 H10         0.1184    0.4954   -2.5355 H         1 <0>         0.0563
     30 O6         -0.1973    1.8537   -4.9287 O.co2     1 <0>        -0.7890
     31 O7         -0.8617    3.2635    1.4708 O.co2     1 <0>        -0.7631
@<TRIPOS>BOND
     1    1    6 ar
     2    1    2 ar
     3    1   21 1
     4    2    3 ar
     5    2   22 1
     6    3    4 ar
     7    3   18 1
     8    4    5 ar
     9    4   23 1
    10    5    6 ar
    11    5   24 1
    12    6    7 1
    13    7    8 2
    14    7    9 am
    15    9   10 1
    16    9   25 1
    17   10   11 1
    18   10   12 1
    19   10   16 1
    20   12   13 1
    21   12   26 1
    22   12   27 1
    23   13   14 1
    24   13   28 1
    25   13   29 1
    26   14   15 2
    27   14   30 1
    28   16   17 2
    29   16   31 1
    30   18   19 2
    31   18   20 1
