@<TRIPOS>MOLECULE
ZINC00001382
   30    30     0     0     0
SMALL
USER_CHARGES

@<TRIPOS>ATOM
      1 C1         -1.1455   -3.1489   -0.7675 C.3       1 <0>        -0.1484
      2 C2         -0.6394   -3.1096   -2.2108 C.3       1 <0>        -0.0870
      3 C3          0.3933   -2.0212   -2.3516 C.2       1 <0>        -0.1875
      4 C4          1.6878   -2.3135   -2.2429 C.2       1 <0>        -0.1000
      5 C5         -0.0285   -0.6364   -2.6089 C.2       1 <0>         0.4499
      6 O1          0.8062    0.2320   -2.7799 O.2       1 <0>        -0.4403
      7 C6         -1.4639   -0.3000   -2.6598 C.ar      1 <0>        -0.1855
      8 C7         -2.0702    0.3520   -1.5812 C.ar      1 <0>        -0.0268
      9 C8         -3.4096    0.6642   -1.6322 C.ar      1 <0>        -0.2031
     10 C9         -4.1618    0.3324   -2.7539 C.ar      1 <0>         0.1798
     11 C10        -3.5652   -0.3162   -3.8293 C.ar      1 <0>        -0.0784
     12 C11        -2.2218   -0.6271   -3.7898 C.ar      1 <0>         0.0345
     13 Cl1        -1.4748   -1.4300   -5.1356 Cl        1 <0>        -0.0397
     14 Cl2        -4.5100   -0.7281   -5.2262 Cl        1 <0>        -0.0266
     15 O2         -5.4824    0.6423   -2.7987 O.3       1 <0>        -0.2562
     16 C12        -6.0316    1.3080   -1.6597 C.3       1 <0>        -0.0139
     17 C13        -7.4980    1.5688   -1.8890 C.2       1 <0>         0.5023
     18 O3         -8.0240    1.2172   -2.9312 O.co2     1 <0>        -0.6644
     19 O4         -8.1584    2.1314   -1.0324 O.co2     1 <0>        -0.6836
     20 H1         -0.3113   -3.3503   -0.0953 H         1 <0>         0.0542
     21 H2         -1.5932   -2.1882   -0.5132 H         1 <0>         0.0575
     22 H3         -1.8924   -3.9362   -0.6657 H         1 <0>         0.0607
     23 H4         -0.1916   -4.0703   -2.4651 H         1 <0>         0.0743
     24 H5         -1.4735   -2.9082   -2.8830 H         1 <0>         0.0766
     25 H6          2.4278   -1.5334   -2.3438 H         1 <0>         0.1132
     26 H7          1.9976   -3.3307   -2.0539 H         1 <0>         0.1158
     27 H8         -1.4879    0.6099   -0.7090 H         1 <0>         0.1402
     28 H9         -3.8776    1.1677   -0.7993 H         1 <0>         0.1503
     29 H10        -5.9078    0.6802   -0.7773 H         1 <0>         0.0663
     30 H11        -5.5136    2.2549   -1.5075 H         1 <0>         0.0661
@<TRIPOS>BOND
     1    1    2 1
     2    1   20 1
     3    1   21 1
     4    1   22 1
     5    2    3 1
     6    2   23 1
     7    2   24 1
     8    3    4 2
     9    3    5 1
    10    4   25 1
    11    4   26 1
    12    5    6 2
    13    5    7 1
    14    7   12 ar
    15    7    8 ar
    16    8    9 ar
    17    8   27 1
    18    9   10 ar
    19    9   28 1
    20   10   11 ar
    21   10   15 1
    22   11   12 ar
    23   11   14 1
    24   12   13 1
    25   15   16 1
    26   16   17 1
    27   16   29 1
    28   16   30 1
    29   17   18 2
    30   17   19 1
@<TRIPOS>MOLECULE
ZINC03874923
   54    53     0     0     0
SMALL
USER_CHARGES
2-amino-5-[1-(carboxymethylcarbamoyl)-2-hexylsulfanyl-ethyl]amino-5-oxo-pentanoic acid
@<TRIPOS>ATOM
      1 C1          6.3509   10.1337    5.2078 C.3       1 <0>        -0.1538
      2 C2          4.8502   10.0226    4.9311 C.3       1 <0>        -0.1260
      3 C3          4.4989    8.5708    4.5997 C.3       1 <0>        -0.1199
      4 C4          2.9982    8.4596    4.3230 C.3       1 <0>        -0.1158
      5 C5          2.6469    7.0078    3.9916 C.3       1 <0>        -0.1018
      6 C6          1.1463    6.8966    3.7149 C.3       1 <0>        -0.0906
      7 S1          0.7298    5.1754    3.3220 S.3       1 <0>        -0.2402
      8 C7         -1.0592    5.2138    3.0241 C.3       1 <0>        -0.0981
      9 C8         -1.5488    3.8063    2.6774 C.3       1 <0>         0.1490
     10 H1         -1.3329    3.1321    3.5061 H         1 <0>         0.1245
     11 C9         -3.0350    3.8382    2.4299 C.2       1 <0>         0.5012
     12 O1         -3.4778    3.4997    1.3528 O.2       1 <0>        -0.5448
     13 N1         -3.8721    4.2430    3.4056 N.am      1 <0>        -0.6978
     14 C10        -5.3169    4.2740    3.1650 C.3       1 <0>         0.0764
     15 C11        -6.0222    4.7600    4.4049 C.2       1 <0>         0.4591
     16 O2         -5.3836    5.0507    5.3886 O.co2     1 <0>        -0.6346
     17 N2         -0.8631    3.3339    1.4720 N.am      1 <0>        -0.7010
     18 C12        -0.7240    2.0118    1.2503 C.2       1 <0>         0.5208
     19 O3         -1.1666    1.2132    2.0486 O.2       1 <0>        -0.5228
     20 C13        -0.0187    1.5258    0.0104 C.3       1 <0>        -0.1487
     21 C14         0.0021   -0.0041    0.0020 C.3       1 <0>        -0.1120
     22 C15         0.7182   -0.4975   -1.2568 C.3       1 <0>        -0.0158
     23 H2          1.7103   -0.0491   -1.3098 H         1 <0>         0.1395
     24 C16         0.8473   -1.9981   -1.2057 C.2       1 <0>         0.4563
     25 O4          0.0764   -2.6922   -1.8252 O.co2     1 <0>        -0.6178
     26 H3          6.6011   11.1680    5.4439 H         1 <0>         0.0527
     27 H4          6.6132    9.4948    6.0511 H         1 <0>         0.0538
     28 H5          6.9074    9.8176    4.3256 H         1 <0>         0.0530
     29 H6          4.5879   10.6615    4.0879 H         1 <0>         0.0603
     30 H7          4.2937   10.3387    5.8134 H         1 <0>         0.0614
     31 H8          4.7612    7.9319    5.4430 H         1 <0>         0.0631
     32 H9          5.0554    8.2546    3.7174 H         1 <0>         0.0618
     33 H10         2.7359    9.0985    3.4798 H         1 <0>         0.0631
     34 H11         2.4417    8.7758    5.2053 H         1 <0>         0.0650
     35 H12         2.9092    6.3689    4.8349 H         1 <0>         0.0730
     36 H13         3.2035    6.6917    3.1093 H         1 <0>         0.0707
     37 H14         0.8840    7.5355    2.8716 H         1 <0>         0.0809
     38 H15         0.5897    7.2128    4.5972 H         1 <0>         0.0844
     39 H16        -1.2751    5.8881    2.1953 H         1 <0>         0.0931
     40 H17        -1.5694    5.5653    3.9209 H         1 <0>         0.1081
     41 H18        -3.5179    4.5138    4.2670 H         1 <0>         0.4078
     42 H19        -5.5328    4.9483    2.3362 H         1 <0>         0.0737
     43 H20        -5.6657    3.2713    2.9180 H         1 <0>         0.0746
     44 H21        -0.5092    3.9726    0.8335 H         1 <0>         0.4046
     45 H22         1.0039    1.9031    0.0027 H         1 <0>         0.1068
     46 H23        -0.5459    1.8868   -0.8726 H         1 <0>         0.0855
     47 H24         0.5293   -0.3651    0.8851 H         1 <0>         0.1202
     48 H25        -1.0205   -0.3814    0.0098 H         1 <0>         0.0925
     49 H26        -0.9815   -0.5164   -2.4183 H         1 <0>         0.4363
     50 H27        -0.1031    0.8909   -2.5359 H         1 <0>         0.4181
     51 O5         -7.3600    4.8700    4.4165 O.co2     1 <0>        -0.7543
     52 O6          1.8187   -2.5636   -0.4720 O.co2     1 <0>        -0.7028
     53 N3         -0.0427   -0.1233   -2.4619 N.4       1 <0>        -0.6271
     54 H28         0.4366   -0.4918   -3.2917 H         1 <0>         0.4347
@<TRIPOS>BOND
     1    1    2 1
     2    1   26 1
     3    1   27 1
     4    1   28 1
     5    2    3 1
     6    2   29 1
     7    2   30 1
     8    3    4 1
     9    3   31 1
    10    3   32 1
    11    4    5 1
    12    4   33 1
    13    4   34 1
    14    5    6 1
    15    5   35 1
    16    5   36 1
    17    6    7 1
    18    6   37 1
    19    6   38 1
    20    7    8 1
    21    8    9 1
    22    8   39 1
    23    8   40 1
    24    9   10 1
    25    9   11 1
    26    9   17 1
    27   11   12 2
    28   11   13 am
    29   13   14 1
    30   13   41 1
    31   14   15 1
    32   14   42 1
    33   14   43 1
    34   15   16 2
    35   15   51 1
    36   17   18 am
    37   17   44 1
    38   18   19 2
    39   18   20 1
    40   20   21 1
    41   20   45 1
    42   20   46 1
    43   21   22 1
    44   21   47 1
    45   21   48 1
    46   22   23 1
    47   22   24 1
    48   22   53 1
    49   24   25 2
    50   24   52 1
    51   49   53 1
    52   50   53 1
    53   53   54 1
