@<TRIPOS>MOLECULE
ZINC01532986
   27    28     0     0     0
SMALL
USER_CHARGES
N-[4-(isothiocyanatomethyl)thiazol-2-yl]benzamide
@<TRIPOS>ATOM
      1 C1         -0.0167    1.3794    0.0096 C.ar      1 <0>        -0.0825
      2 C2          1.1683    2.0936    0.0021 C.ar      1 <0>        -0.1243
      3 C3          2.3774    1.4296   -0.0129 C.ar      1 <0>        -0.0825
      4 C4          2.4035    0.0338   -0.0211 C.ar      1 <0>        -0.1392
      5 C5          1.2042   -0.6806   -0.0135 C.ar      1 <0>        -0.0503
      6 C6          0.0021   -0.0041    0.0020 C.ar      1 <0>        -0.1253
      7 C7          3.6952   -0.6843   -0.0383 C.2       1 <0>         0.5649
      8 O1          3.7148   -1.8997   -0.0458 O.2       1 <0>        -0.4938
      9 N1          4.8513    0.0084   -0.0456 N.am      1 <0>        -0.6071
     10 C8          6.0652   -0.6665   -0.0617 C.2       1 <0>         0.2849
     11 N2          7.2880   -0.1723   -0.0762 N.2       1 <0>        -0.5418
     12 C9          8.3439   -0.9620   -0.0857 C.2       1 <0>         0.0653
     13 C10         8.1474   -2.3032   -0.0924 C.2       1 <0>        -0.2320
     14 S1          6.3622   -2.3773   -0.0755 S.3       1 <0>         0.1833
     15 C11         9.7368   -0.3869   -0.0950 C.3       1 <0>         0.1773
     16 N3         10.1293   -0.0805   -1.4728 N.2       1 <0>        -0.5050
     17 C12        10.4205    1.0920   -1.7937 C.1       1 <0>         0.2356
     18 S2         10.7824    2.5493   -2.1924 S.2       1 <0>        -0.0284
     19 H1         -0.9606    1.9042    0.0169 H         1 <0>         0.1328
     20 H2          1.1467    3.1734    0.0078 H         1 <0>         0.1347
     21 H3          3.3017    1.9882   -0.0191 H         1 <0>         0.1275
     22 H4          1.2175   -1.7605   -0.0202 H         1 <0>         0.1409
     23 H5         -0.9265   -0.5555    0.0079 H         1 <0>         0.1359
     24 H6          4.8356    0.9783   -0.0396 H         1 <0>         0.4257
     25 H7          8.8703   -3.1055   -0.1045 H         1 <0>         0.2017
     26 H8          9.7568    0.5261    0.5001 H         1 <0>         0.0833
     27 H9         10.4321   -1.1118    0.3282 H         1 <0>         0.1186
@<TRIPOS>BOND
     1    1    6 ar
     2    1    2 ar
     3    1   19 1
     4    2    3 ar
     5    2   20 1
     6    3    4 ar
     7    3   21 1
     8    4    5 ar
     9    4    7 1
    10    5    6 ar
    11    5   22 1
    12    6   23 1
    13    7    8 2
    14    7    9 am
    15    9   10 1
    16    9   24 1
    17   10   14 1
    18   10   11 2
    19   11   12 1
    20   12   13 2
    21   12   15 1
    22   13   14 1
    23   13   25 1
    24   15   16 1
    25   15   26 1
    26   15   27 1
    27   16   17 2
    28   17   18 2
