@<TRIPOS>MOLECULE
ZINC14879999
   79    82     0     0     0
SMALL
USER_CHARGES

@<TRIPOS>ATOM
      1 C1         -2.5990    3.4347    0.9516 C.3       1 <0>        -0.0915
      2 C2         -2.5835    1.9554    1.2386 C.ar      1 <0>        -0.1482
      3 C3         -2.5853    1.0451    0.1942 C.ar      1 <0>         0.1625
      4 C4         -2.5710   -0.3237    0.4491 C.ar      1 <0>        -0.2230
      5 C5         -2.5546   -0.7872    1.7337 C.ar      1 <0>        -0.0084
      6 C6         -2.5522    0.1177    2.7989 C.ar      1 <0>        -0.1886
      7 C7         -2.5616    1.5013    2.5489 C.ar      1 <0>         0.1904
      8 O1         -2.5544    2.3744    3.5790 O.3       1 <0>        -0.2882
      9 C8         -2.5333    1.9630    4.8565 C.2       1 <0>         0.5206
     10 O2         -2.5278    2.7945    5.7476 O.2       1 <0>        -0.5150
     11 C9         -2.5179    0.5962    5.1943 C.2       1 <0>        -0.2615
     12 C10        -2.5346   -0.3531    4.1902 C.2       1 <0>         0.3438
     13 O3         -2.5208   -1.6760    4.4796 O.3       1 <0>        -0.6528
     14 N1         -2.4964    0.2004    6.5422 N.am      1 <0>        -0.5959
     15 C11        -1.4825    0.5865    7.3417 C.2       1 <0>         0.5448
     16 O4         -0.6300    1.3445    6.9198 O.2       1 <0>        -0.5324
     17 C12        -1.4065    0.0894    8.7293 C.ar      1 <0>        -0.1159
     18 C13        -2.3819   -0.7862    9.2143 C.ar      1 <0>        -0.0758
     19 C14        -2.3075   -1.2476   10.5093 C.ar      1 <0>        -0.1499
     20 C15        -1.2640   -0.8437   11.3343 C.ar      1 <0>         0.1180
     21 C16        -0.2921    0.0269   10.8559 C.ar      1 <0>        -0.1114
     22 C17        -0.3562    0.4884    9.5598 C.ar      1 <0>        -0.0456
     23 C18         0.8369    0.4615   11.7545 C.3       1 <0>        -0.0454
     24 C19         0.3570    1.5589   12.6690 C.2       1 <0>        -0.1485
     25 C20         1.0084    2.6939   12.7281 C.2       1 <0>        -0.1393
     26 C21         2.3180    2.8500   11.9989 C.3       1 <0>        -0.1224
     27 C22         0.4482    3.8436   13.5252 C.3       1 <0>        -0.1144
     28 O5         -1.1945   -1.3004   12.6104 O.3       1 <0>        -0.4945
     29 O6         -2.6015    1.4914   -1.0881 O.3       1 <0>        -0.2919
     30 C23        -2.6025    0.5021   -2.1193 C.3       1 <0>         0.2279
     31 H1         -3.4367   -0.1824   -1.9656 H         1 <0>         0.0794
     32 C24        -2.7468    1.1850   -3.4819 C.3       1 <0>         0.0809
     33 H2         -1.9352    1.8996   -3.6190 H         1 <0>         0.0956
     34 C25        -2.6865    0.1240   -4.5850 C.3       1 <0>         0.0959
     35 H3         -2.7325    0.6089   -5.5602 H         1 <0>         0.1059
     36 C26        -1.3720   -0.6523   -4.4602 C.3       1 <0>         0.0704
     37 H4         -1.3453   -1.4459   -5.2070 H         1 <0>         0.0913
     38 C27        -1.2807   -1.2643   -3.0599 C.3       1 <0>         0.1298
     39 O7         -1.3742   -0.2273   -2.0811 O.3       1 <0>        -0.3675
     40 C28         0.0568   -1.9912   -2.9069 C.3       1 <0>        -0.1376
     41 C29        -2.4273   -2.2577   -2.8615 C.3       1 <0>        -0.1856
     42 O8         -0.2716    0.2355   -4.6673 O.3       1 <0>        -0.3530
     43 C30         0.1444    0.3374   -6.0307 C.3       1 <0>         0.0206
     44 O9         -3.7892   -0.7741   -4.4452 O.3       1 <0>        -0.3470
     45 C31        -4.9233   -0.4557   -5.0973 C.2       1 <0>         0.6492
     46 O10        -4.9753    0.5570   -5.7668 O.2       1 <0>        -0.5532
     47 N2         -6.0008   -1.2603   -5.0076 N.am      1 <0>        -0.8278
     48 O11        -4.0002    1.8686   -3.5430 O.3       1 <0>        -0.5421
     49 H5         -1.5752    3.7994    0.8681 H         1 <0>         0.0651
     50 H6         -3.1274    3.6179    0.0160 H         1 <0>         0.0642
     51 H7         -3.1056    3.9570    1.7633 H         1 <0>         0.0698
     52 H8         -2.5733   -1.0230   -0.3740 H         1 <0>         0.1307
     53 H9         -2.5440   -1.8499    1.9259 H         1 <0>         0.1380
     54 H10        -3.2113   -0.3506    6.8973 H         1 <0>         0.3888
     55 H11        -3.1931   -1.1002    8.5741 H         1 <0>         0.1317
     56 H12        -3.0611   -1.9240   10.8850 H         1 <0>         0.1313
     57 H13         0.4019    1.1614    9.1874 H         1 <0>         0.1373
     58 H14         1.1740   -0.3867   12.3504 H         1 <0>         0.0770
     59 H15         1.6634    0.8302   11.1470 H         1 <0>         0.0814
     60 H16        -0.5239    1.4097   13.2757 H         1 <0>         0.1105
     61 H17         2.1296    3.2033   10.9851 H         1 <0>         0.0687
     62 H18         2.9430    3.5716   12.5249 H         1 <0>         0.0598
     63 H19         2.8287    1.8878   11.9593 H         1 <0>         0.0655
     64 H20        -0.4975    3.5453   13.9777 H         1 <0>         0.0591
     65 H21         1.1541    4.1211   14.3081 H         1 <0>         0.0602
     66 H22         0.2828    4.6961   12.8663 H         1 <0>         0.0661
     67 H23        -0.6924   -2.1211   12.7076 H         1 <0>         0.3863
     68 H24         0.8734   -1.2831   -3.0478 H         1 <0>         0.0753
     69 H25         0.1216   -2.4269   -1.9099 H         1 <0>         0.0724
     70 H26         0.1283   -2.7816   -3.6541 H         1 <0>         0.0712
     71 H27        -2.4698   -2.9381   -3.7121 H         1 <0>         0.0728
     72 H28        -2.2598   -2.8282   -1.9479 H         1 <0>         0.0757
     73 H29        -3.3691   -1.7147   -2.7833 H         1 <0>         0.0815
     74 H30        -0.6838    0.7048   -6.6367 H         1 <0>         0.0438
     75 H31         0.9832    1.0296   -6.1038 H         1 <0>         0.0943
     76 H32         0.4510   -0.6444   -6.3914 H         1 <0>         0.0471
     77 H33        -5.9593   -2.0687   -4.4731 H         1 <0>         0.4070
     78 H34        -6.8179   -1.0309   -5.4774 H         1 <0>         0.4255
     79 H35        -4.1084    2.5530   -2.8685 H         1 <0>         0.3890
@<TRIPOS>BOND
     1    1    2 1
     2    1   49 1
     3    1   50 1
     4    1   51 1
     5    2    7 ar
     6    2    3 ar
     7    3    4 ar
     8    3   29 1
     9    4    5 ar
    10    4   52 1
    11    5    6 ar
    12    5   53 1
    13    6   12 1
    14    6    7 ar
    15    7    8 1
    16    8    9 1
    17    9   10 2
    18    9   11 1
    19   11   12 2
    20   11   14 1
    21   12   13 1
    22   14   15 am
    23   14   54 1
    24   15   16 2
    25   15   17 1
    26   17   22 ar
    27   17   18 ar
    28   18   19 ar
    29   18   55 1
    30   19   20 ar
    31   19   56 1
    32   20   21 ar
    33   20   28 1
    34   21   22 ar
    35   21   23 1
    36   22   57 1
    37   23   24 1
    38   23   58 1
    39   23   59 1
    40   24   25 2
    41   24   60 1
    42   25   26 1
    43   25   27 1
    44   26   61 1
    45   26   62 1
    46   26   63 1
    47   27   64 1
    48   27   65 1
    49   27   66 1
    50   28   67 1
    51   29   30 1
    52   30   31 1
    53   30   39 1
    54   30   32 1
    55   32   33 1
    56   32   34 1
    57   32   48 1
    58   34   35 1
    59   34   36 1
    60   34   44 1
    61   36   37 1
    62   36   38 1
    63   36   42 1
    64   38   39 1
    65   38   40 1
    66   38   41 1
    67   40   68 1
    68   40   69 1
    69   40   70 1
    70   41   71 1
    71   41   72 1
    72   41   73 1
    73   42   43 1
    74   43   74 1
    75   43   75 1
    76   43   76 1
    77   44   45 1
    78   45   46 2
    79   45   47 am
    80   47   77 1
    81   47   78 1
    82   48   79 1
