@<TRIPOS>MOLECULE
ZINC00000010
   25    26     0     0     0
SMALL
USER_CHARGES
(5S)-5-methyl-4-oxo-5-phenyl-furan-2-carboxylic acid
@<TRIPOS>ATOM
      1 C1         -0.6691   -0.5536    1.2623 C.3       1 <0>        -0.1307
      2 C2          0.0021   -0.0041    0.0020 C.3       1 <0>         0.0623
      3 C3          1.4734   -0.3667   -0.0140 C.2       1 <0>         0.3857
      4 O1          1.9621   -1.4776   -0.0250 O.2       1 <0>        -0.4576
      5 C4          2.1543    0.8786   -0.0138 C.2       1 <0>        -0.3661
      6 C5          1.2506    1.8797    0.0002 C.2       1 <0>         0.1547
      7 O2         -0.0174    1.4292    0.0099 O.3       1 <0>        -0.2528
      8 C6          1.6138    3.3169    0.0045 C.2       1 <0>         0.5097
      9 O3          0.7433    4.1629    0.0173 O.co2     1 <0>        -0.5921
     10 C7         -0.6852   -0.5321   -1.2308 C.ar      1 <0>        -0.0825
     11 C8         -0.2648   -1.7187   -1.8018 C.ar      1 <0>        -0.1089
     12 C9         -0.8977   -2.2051   -2.9304 C.ar      1 <0>        -0.1229
     13 C10        -1.9458   -1.5007   -3.4928 C.ar      1 <0>        -0.1170
     14 C11        -2.3628   -0.3114   -2.9248 C.ar      1 <0>        -0.1240
     15 C12        -1.7323    0.1730   -1.7940 C.ar      1 <0>        -0.0893
     16 H1         -1.7073   -0.2232    1.2946 H         1 <0>         0.0775
     17 H2         -0.6349   -1.6430    1.2466 H         1 <0>         0.0813
     18 H3         -0.1433   -0.1862    2.1436 H         1 <0>         0.0712
     19 H4          3.2268    1.0047   -0.0234 H         1 <0>         0.1666
     20 H5          0.5563   -2.2674   -1.3644 H         1 <0>         0.1391
     21 H6         -0.5717   -3.1341   -3.3743 H         1 <0>         0.1236
     22 H7         -2.4386   -1.8793   -4.3761 H         1 <0>         0.1214
     23 H8         -3.1814    0.2392   -3.3644 H         1 <0>         0.1246
     24 H9         -2.0581    1.1022   -1.3502 H         1 <0>         0.1322
     25 O4          2.9097    3.6841   -0.0059 O.co2     1 <0>        -0.7061
@<TRIPOS>BOND
     1    1    2 1
     2    1   16 1
     3    1   17 1
     4    1   18 1
     5    2    7 1
     6    2    3 1
     7    2   10 1
     8    3    4 2
     9    3    5 1
    10    5    6 2
    11    5   19 1
    12    6    7 1
    13    6    8 1
    14    8    9 2
    15    8   25 1
    16   10   15 ar
    17   10   11 ar
    18   11   12 ar
    19   11   20 1
    20   12   13 ar
    21   12   21 1
    22   13   14 ar
    23   13   22 1
    24   14   15 ar
    25   14   23 1
    26   15   24 1
@<TRIPOS>MOLECULE
ZINC01841718
   25    26     0     0     0
SMALL
USER_CHARGES

@<TRIPOS>ATOM
      1 C1         -0.0187    1.5258    0.0104 C.3       1 <0>        -0.1309
      2 C2          0.0021   -0.0041    0.0020 C.3       1 <0>         0.0647
      3 C3          0.7906   -0.5146   -1.1881 C.2       1 <0>         0.3828
      4 O1          0.5601   -0.3373   -2.3661 O.2       1 <0>        -0.4554
      5 C4          1.8958   -1.2713   -0.5904 C.2       1 <0>        -0.3739
      6 C5          1.7734   -1.2130    0.7515 C.2       1 <0>         0.1276
      7 O2          0.7052   -0.4993    1.1471 O.3       1 <0>        -0.2524
      8 C6          2.7159   -1.8673    1.6902 C.2       1 <0>         0.5432
      9 O3          3.6669   -2.5017    1.2581 O.co2     1 <0>        -0.6435
     10 O4          2.5420   -1.7722    2.8961 O.co2     1 <0>        -0.6490
     11 C7         -1.4036   -0.5466   -0.0254 C.ar      1 <0>        -0.0822
     12 C8         -2.0203   -0.8075   -1.2348 C.ar      1 <0>        -0.1108
     13 C9         -3.3097   -1.3051   -1.2600 C.ar      1 <0>        -0.1232
     14 C10        -3.9823   -1.5422   -0.0758 C.ar      1 <0>        -0.1174
     15 C11        -3.3653   -1.2822    1.1336 C.ar      1 <0>        -0.1240
     16 C12        -2.0743   -0.7886    1.1588 C.ar      1 <0>        -0.0879
     17 H1          1.0039    1.9031    0.0027 H         1 <0>         0.0707
     18 H2         -0.5459    1.8868   -0.8726 H         1 <0>         0.0797
     19 H3         -0.5289    1.8773    0.9072 H         1 <0>         0.0778
     20 H4          2.6746   -1.7874   -1.1323 H         1 <0>         0.1639
     21 H5         -1.4948   -0.6222   -2.1600 H         1 <0>         0.1381
     22 H6         -3.7917   -1.5083   -2.2048 H         1 <0>         0.1232
     23 H7         -4.9900   -1.9303   -0.0955 H         1 <0>         0.1212
     24 H8         -3.8909   -1.4671    2.0587 H         1 <0>         0.1246
     25 H9         -1.5909   -0.5889    2.1037 H         1 <0>         0.1328
@<TRIPOS>BOND
     1    1    2 1
     2    1   17 1
     3    1   18 1
     4    1   19 1
     5    2    7 1
     6    2    3 1
     7    2   11 1
     8    3    4 2
     9    3    5 1
    10    5    6 2
    11    5   20 1
    12    6    7 1
    13    6    8 1
    14    8    9 2
    15    8   10 1
    16   11   16 ar
    17   11   12 ar
    18   12   13 ar
    19   12   21 1
    20   13   14 ar
    21   13   22 1
    22   14   15 ar
    23   14   23 1
    24   15   16 ar
    25   15   24 1
    26   16   25 1
