@<TRIPOS>MOLECULE
ZINC08996233
   18    19     0     0     0
SMALL
USER_CHARGES
2,4,5,6-tetrahydrocyclopenta[d]pyrazole-3-carboxylic acid
@<TRIPOS>ATOM
      1 C1         -0.0189    1.5395    0.0105 C.3       1 <0>        -0.1167
      2 C2          1.4834    1.8971   -0.0019 C.3       1 <0>        -0.0347
      3 C3          2.1757    0.7148    0.6292 C.2       1 <0>        -0.2030
      4 C4          1.3216   -0.3882    0.6343 C.2       1 <0>        -0.0188
      5 N1          1.9650   -1.3855    1.1908 N.2       1 <0>        -0.2923
      6 N2          3.1481   -1.0305    1.5428 N.pl3     1 <0>        -0.3762
      7 H1          3.8200   -1.6237    1.9863 H         1 <0>         0.4549
      8 C5          3.3484    0.2824    1.2185 C.2       1 <0>         0.0200
      9 C6          4.5654    1.0740    1.4494 C.2       1 <0>         0.5184
     10 O1          4.6061    2.2398    1.1076 O.co2     1 <0>        -0.6103
     11 C7          0.0021   -0.0041    0.0020 C.3       1 <0>        -0.0177
     12 H2         -0.5154    1.9245   -0.8802 H         1 <0>         0.0757
     13 H3         -0.4983    1.9149    0.9146 H         1 <0>         0.0697
     14 H4          1.8305    2.0365   -1.0257 H         1 <0>         0.0703
     15 H5          1.6626    2.7979    0.5850 H         1 <0>         0.0721
     16 H6         -0.8273   -0.3965    0.5905 H         1 <0>         0.0697
     17 H7         -0.0513   -0.3771   -1.0208 H         1 <0>         0.0762
     18 O2          5.6363    0.5070    2.0403 O.co2     1 <0>        -0.7575
@<TRIPOS>BOND
     1    1   11 1
     2    1    2 1
     3    1   12 1
     4    1   13 1
     5    2    3 1
     6    2   14 1
     7    2   15 1
     8    3    8 2
     9    3    4 1
    10    4    5 2
    11    4   11 1
    12    5    6 1
    13    6    7 1
    14    6    8 1
    15    8    9 1
    16    9   10 2
    17    9   18 1
    18   11   16 1
    19   11   17 1
@<TRIPOS>MOLECULE
ZINC03861006
   17    16     0     0     0
SMALL
USER_CHARGES
(E)-4-ethoxy-4-oxo-but-2-enoic acid
@<TRIPOS>ATOM
      1 C1         -7.3306    1.1000    0.0428 C.3       1 <0>        -0.1511
      2 C2         -6.1300    2.0484    0.0423 C.3       1 <0>         0.0598
      3 O1         -4.9017    1.2742    0.0322 O.3       1 <0>        -0.3560
      4 C3         -3.7440    1.9638    0.0305 C.2       1 <0>         0.4994
      5 O2         -3.7604    3.1781    0.0372 O.2       1 <0>        -0.5217
      6 C4         -2.4561    1.2434    0.0205 C.2       1 <0>        -0.1916
      7 C5         -1.3022    1.9307    0.0187 C.2       1 <0>        -0.0586
      8 C6         -0.0144    1.2103    0.0087 C.2       1 <0>         0.4732
      9 O3          0.0021   -0.0041    0.0020 O.co2     1 <0>        -0.6190
     10 H1         -7.3015    0.4764   -0.8507 H         1 <0>         0.0660
     11 H2         -7.2930    0.4668    0.9292 H         1 <0>         0.0660
     12 H3         -8.2527    1.6812    0.0503 H         1 <0>         0.0761
     13 H4         -6.1592    2.6720    0.9358 H         1 <0>         0.0671
     14 H5         -6.1676    2.6817   -0.8441 H         1 <0>         0.0671
     15 H6         -2.4414    0.1635    0.0145 H         1 <0>         0.1458
     16 H7         -1.3169    3.0105    0.0247 H         1 <0>         0.1219
     17 O4          1.1433    1.8998    0.0013 O.co2     1 <0>        -0.7443
@<TRIPOS>BOND
     1    1    2 1
     2    1   10 1
     3    1   11 1
     4    1   12 1
     5    2    3 1
     6    2   13 1
     7    2   14 1
     8    3    4 1
     9    4    5 2
    10    4    6 1
    11    6    7 2
    12    6   15 1
    13    7    8 1
    14    7   16 1
    15    8    9 2
    16    8   17 1
@<TRIPOS>MOLECULE
ZINC04975832
   20    19     0     0     0
SMALL
USER_CHARGES
4-isopropoxy-4-oxo-but-2-enoic acid
@<TRIPOS>ATOM
      1 C1          3.6632    7.7480    1.4513 C.3       1 <0>        -0.1691
      2 C2          3.6563    7.2458    0.0061 C.3       1 <0>         0.0765
      3 C3          4.8916    7.7766   -0.7242 C.3       1 <0>        -0.1480
      4 O1          3.6760    5.7939   -0.0019 O.3       1 <0>        -0.3504
      5 C4          2.4838    5.1659    0.0061 C.2       1 <0>         0.4992
      6 O2          1.4565    5.8134    0.0194 O.2       1 <0>        -0.5211
      7 C5          2.4266    3.6914   -0.0013 C.2       1 <0>        -0.1917
      8 C6          1.2384    3.0654    0.0067 C.2       1 <0>        -0.0590
      9 C7          1.1812    1.5909   -0.0007 C.2       1 <0>         0.4732
     10 O3          2.2085    0.9434   -0.0140 O.co2     1 <0>        -0.6190
     11 H1          3.6484    8.8379    1.4573 H         1 <0>         0.0711
     12 H2          2.7832    7.3698    1.9715 H         1 <0>         0.0620
     13 H3          4.5629    7.3940    1.9546 H         1 <0>         0.0653
     14 H4          2.7566    7.5997   -0.4973 H         1 <0>         0.0831
     15 H5          4.8867    7.4188   -1.7538 H         1 <0>         0.0641
     16 H6          4.8768    8.8665   -0.7182 H         1 <0>         0.0746
     17 H7          5.7913    7.4227   -0.2208 H         1 <0>         0.0668
     18 H8          3.3402    3.1155   -0.0131 H         1 <0>         0.1453
     19 H9          0.3248    3.6412    0.0185 H         1 <0>         0.1217
     20 O4         -0.0110    0.9628    0.0073 O.co2     1 <0>        -0.7445
@<TRIPOS>BOND
     1    1    2 1
     2    1   11 1
     3    1   12 1
     4    1   13 1
     5    2    3 1
     6    2    4 1
     7    2   14 1
     8    3   15 1
     9    3   16 1
    10    3   17 1
    11    4    5 1
    12    5    6 2
    13    5    7 1
    14    7    8 2
    15    7   18 1
    16    8    9 1
    17    8   19 1
    18    9   10 2
    19    9   20 1
@<TRIPOS>MOLECULE
ZINC04975830
   23    22     0     0     0
SMALL
USER_CHARGES
4-butoxy-4-oxo-but-2-enoic acid
@<TRIPOS>ATOM
      1 C1         -9.8256    0.9674    0.0539 C.3       1 <0>        -0.1509
      2 C2         -8.6250    1.9158    0.0534 C.3       1 <0>        -0.1222
      3 C3         -7.3306    1.1000    0.0428 C.3       1 <0>        -0.1204
      4 C4         -6.1300    2.0484    0.0423 C.3       1 <0>         0.0645
      5 O1         -4.9017    1.2742    0.0322 O.3       1 <0>        -0.3553
      6 C5         -3.7440    1.9638    0.0305 C.2       1 <0>         0.4996
      7 O2         -3.7604    3.1781    0.0372 O.2       1 <0>        -0.5213
      8 C6         -2.4561    1.2434    0.0205 C.2       1 <0>        -0.1914
      9 C7         -1.3022    1.9307    0.0187 C.2       1 <0>        -0.0586
     10 C8         -0.0144    1.2103    0.0087 C.2       1 <0>         0.4733
     11 O3          0.0021   -0.0041    0.0020 O.co2     1 <0>        -0.6190
     12 H1         -9.7964    0.3438   -0.8396 H         1 <0>         0.0556
     13 H2         -9.7879    0.3341    0.9403 H         1 <0>         0.0556
     14 H3        -10.7477    1.5485    0.0614 H         1 <0>         0.0550
     15 H4         -8.6541    2.5394    0.9469 H         1 <0>         0.0647
     16 H5         -8.6626    2.5490   -0.8330 H         1 <0>         0.0647
     17 H6         -7.3015    0.4764   -0.8507 H         1 <0>         0.0742
     18 H7         -7.2930    0.4668    0.9292 H         1 <0>         0.0742
     19 H8         -6.1592    2.6720    0.9358 H         1 <0>         0.0673
     20 H9         -6.1676    2.6817   -0.8441 H         1 <0>         0.0673
     21 H10        -2.4414    0.1635    0.0145 H         1 <0>         0.1458
     22 H11        -1.3169    3.0105    0.0247 H         1 <0>         0.1218
     23 O4          1.1433    1.8998    0.0013 O.co2     1 <0>        -0.7443
@<TRIPOS>BOND
     1    1    2 1
     2    1   12 1
     3    1   13 1
     4    1   14 1
     5    2    3 1
     6    2   15 1
     7    2   16 1
     8    3    4 1
     9    3   17 1
    10    3   18 1
    11    4    5 1
    12    4   19 1
    13    4   20 1
    14    5    6 1
    15    6    7 2
    16    6    8 1
    17    8    9 2
    18    8   21 1
    19    9   10 1
    20    9   22 1
    21   10   11 2
    22   10   23 1
@<TRIPOS>MOLECULE
ZINC34662381
   26    25     0     0     0
SMALL
USER_CHARGES

@<TRIPOS>ATOM
      1 C1         -0.0187    1.5258    0.0104 C.3       1 <0>        -0.1532
      2 C2          0.0021   -0.0041    0.0020 C.3       1 <0>        -0.1239
      3 C3          0.7182   -0.4975   -1.2568 C.3       1 <0>        -0.1178
      4 C4          0.7390   -2.0273   -1.2652 C.3       1 <0>        -0.1194
      5 C5          1.4551   -2.5207   -2.5240 C.3       1 <0>         0.0635
      6 O1          1.4745   -3.9496   -2.5319 O.3       1 <0>        -0.3509
      7 C6          2.0730   -4.5474   -3.5805 C.2       1 <0>         0.4972
      8 O2          2.5647   -3.8745   -4.4635 O.2       1 <0>        -0.5231
      9 C7          2.1310   -6.0221   -3.6559 C.2       1 <0>        -0.1921
     10 C8          2.7276   -6.6180   -4.7012 C.2       1 <0>        -0.0839
     11 C9          2.7856   -8.0899   -4.7765 C.2       1 <0>         0.5058
     12 O3          2.2904   -8.7675   -3.8872 O.co2     1 <0>        -0.6761
     13 O4          3.3287   -8.6325   -5.7282 O.co2     1 <0>        -0.6778
     14 H1          1.0039    1.9031    0.0027 H         1 <0>         0.0535
     15 H2         -0.5459    1.8868   -0.8726 H         1 <0>         0.0535
     16 H3         -0.5289    1.8773    0.9072 H         1 <0>         0.0532
     17 H4          0.5293   -0.3651    0.8851 H         1 <0>         0.0630
     18 H5         -1.0205   -0.3814    0.0098 H         1 <0>         0.0630
     19 H6          0.1910   -0.1364   -2.1398 H         1 <0>         0.0648
     20 H7          1.7408   -0.1202   -1.2645 H         1 <0>         0.0648
     21 H8          1.2661   -2.3884   -0.3821 H         1 <0>         0.0739
     22 H9         -0.2836   -2.4046   -1.2575 H         1 <0>         0.0739
     23 H10         0.9279   -2.1597   -3.4071 H         1 <0>         0.0638
     24 H11         2.4777   -2.1435   -2.5317 H         1 <0>         0.0637
     25 H12         1.6937   -6.6206   -2.8705 H         1 <0>         0.1456
     26 H13         3.1650   -6.0195   -5.4866 H         1 <0>         0.1150
@<TRIPOS>BOND
     1    1    2 1
     2    1   14 1
     3    1   15 1
     4    1   16 1
     5    2    3 1
     6    2   17 1
     7    2   18 1
     8    3    4 1
     9    3   19 1
    10    3   20 1
    11    4    5 1
    12    4   21 1
    13    4   22 1
    14    5    6 1
    15    5   23 1
    16    5   24 1
    17    6    7 1
    18    7    8 2
    19    7    9 1
    20    9   10 2
    21    9   25 1
    22   10   11 1
    23   10   26 1
    24   11   12 2
    25   11   13 1
@<TRIPOS>MOLECULE
ZINC05297632
   29    28     0     0     0
SMALL
USER_CHARGES
4-hexoxy-4-oxo-but-2-enoic acid
@<TRIPOS>ATOM
      1 C1        -12.3205    0.8347    0.0650 C.3       1 <0>        -0.1534
      2 C2        -11.1199    1.7831    0.0645 C.3       1 <0>        -0.1260
      3 C3         -9.8256    0.9674    0.0539 C.3       1 <0>        -0.1193
      4 C4         -8.6250    1.9158    0.0534 C.3       1 <0>        -0.1177
      5 C5         -7.3306    1.1000    0.0428 C.3       1 <0>        -0.1197
      6 C6         -6.1300    2.0484    0.0423 C.3       1 <0>         0.0649
      7 O1         -4.9017    1.2742    0.0322 O.3       1 <0>        -0.3552
      8 C7         -3.7440    1.9638    0.0305 C.2       1 <0>         0.4996
      9 O2         -3.7604    3.1781    0.0372 O.2       1 <0>        -0.5213
     10 C8         -2.4561    1.2434    0.0205 C.2       1 <0>        -0.1914
     11 C9         -1.3022    1.9307    0.0187 C.2       1 <0>        -0.0586
     12 C10        -0.0144    1.2103    0.0087 C.2       1 <0>         0.4733
     13 O3          0.0021   -0.0041    0.0020 O.co2     1 <0>        -0.6190
     14 H1        -12.2913    0.2112   -0.8285 H         1 <0>         0.0535
     15 H2        -12.2829    0.2015    0.9514 H         1 <0>         0.0535
     16 H3        -13.2426    1.4159    0.0726 H         1 <0>         0.0522
     17 H4        -11.1491    2.4067    0.9580 H         1 <0>         0.0609
     18 H5        -11.1575    2.4164   -0.8219 H         1 <0>         0.0609
     19 H6         -9.7964    0.3438   -0.8396 H         1 <0>         0.0634
     20 H7         -9.7879    0.3341    0.9403 H         1 <0>         0.0634
     21 H8         -8.6541    2.5394    0.9469 H         1 <0>         0.0651
     22 H9         -8.6626    2.5490   -0.8330 H         1 <0>         0.0651
     23 H10        -7.3015    0.4764   -0.8507 H         1 <0>         0.0742
     24 H11        -7.2930    0.4668    0.9292 H         1 <0>         0.0742
     25 H12        -6.1592    2.6720    0.9358 H         1 <0>         0.0672
     26 H13        -6.1676    2.6817   -0.8441 H         1 <0>         0.0672
     27 H14        -2.4414    0.1635    0.0145 H         1 <0>         0.1457
     28 H15        -1.3169    3.0105    0.0247 H         1 <0>         0.1218
     29 O4          1.1433    1.8998    0.0013 O.co2     1 <0>        -0.7443
@<TRIPOS>BOND
     1    1    2 1
     2    1   14 1
     3    1   15 1
     4    1   16 1
     5    2    3 1
     6    2   17 1
     7    2   18 1
     8    3    4 1
     9    3   19 1
    10    3   20 1
    11    4    5 1
    12    4   21 1
    13    4   22 1
    14    5    6 1
    15    5   23 1
    16    5   24 1
    17    6    7 1
    18    6   25 1
    19    6   26 1
    20    7    8 1
    21    8    9 2
    22    8   10 1
    23   10   11 2
    24   10   27 1
    25   11   12 1
    26   11   28 1
    27   12   13 2
    28   12   29 1
@<TRIPOS>MOLECULE
ZINC00266073
   15    15     0     0     0
SMALL
USER_CHARGES
(E)-3-(2-furyl)prop-2-enoic acid
@<TRIPOS>ATOM
      1 C1         -5.8270    2.3784    0.0421 C.2       1 <0>        -0.2111
      2 C2         -4.9031    1.3229    0.0269 C.2       1 <0>        -0.2138
      3 C3         -3.6490    1.8989    0.0297 C.2       1 <0>         0.0449
      4 O1         -3.8108    3.2386    0.0373 O.3       1 <0>        -0.1693
      5 C4         -5.1188    3.5298    0.0447 C.2       1 <0>        -0.0569
      6 C5         -2.4139    1.2080    0.0201 C.2       1 <0>        -0.1014
      7 C6         -1.2475    1.9027    0.0183 C.2       1 <0>        -0.1208
      8 C7         -0.0144    1.2129    0.0087 C.2       1 <0>         0.4672
      9 O2          0.0021   -0.0041    0.0020 O.co2     1 <0>        -0.6340
     10 H1         -6.9032    2.2880    0.0465 H         1 <0>         0.1451
     11 H2         -5.1289    0.2668    0.0169 H         1 <0>         0.1493
     12 H3         -5.5395    4.5245    0.0512 H         1 <0>         0.1981
     13 H4         -2.3992    0.1281    0.0141 H         1 <0>         0.1533
     14 H5         -1.2622    2.9825    0.0242 H         1 <0>         0.1097
     15 O3          1.1454    1.9037    0.0013 O.co2     1 <0>        -0.7603
@<TRIPOS>BOND
     1    1    5 2
     2    1    2 1
     3    1   10 1
     4    2    3 2
     5    2   11 1
     6    3    4 1
     7    3    6 1
     8    4    5 1
     9    5   12 1
    10    6    7 2
    11    6   13 1
    12    7    8 1
    13    7   14 1
    14    8    9 2
    15    8   15 1
@<TRIPOS>MOLECULE
ZINC00154897
   15    15     0     0     0
SMALL
USER_CHARGES
(E)-3-(2-thienyl)prop-2-enoic acid
@<TRIPOS>ATOM
      1 C1         -4.7243    0.5601    0.0275 C.2       1 <0>        -0.1515
      2 C2         -3.7187    1.4933    0.0278 C.2       1 <0>        -0.1745
      3 C3         -2.4133    1.0146    0.0190 C.2       1 <0>        -0.0940
      4 S1         -2.6710   -0.7507    0.0028 S.3       1 <0>         0.1028
      5 C4         -4.4045   -0.7613    0.0188 C.2       1 <0>        -0.2401
      6 C5         -1.1976    1.7387    0.0172 C.2       1 <0>        -0.0851
      7 C6         -0.0126    1.0758    0.0080 C.2       1 <0>        -0.1231
      8 C7          1.2006    1.7984    0.0003 C.2       1 <0>         0.4682
      9 O1          1.1841    3.0155    0.0069 O.co2     1 <0>        -0.6335
     10 H1         -5.7584    0.8716    0.0345 H         1 <0>         0.1259
     11 H2         -3.9314    2.5521    0.0349 H         1 <0>         0.1363
     12 H3         -5.0697   -1.6121    0.0168 H         1 <0>         0.1781
     13 H4         -1.2122    2.8186    0.0231 H         1 <0>         0.1445
     14 H5          0.0021   -0.0041    0.0020 H         1 <0>         0.1061
     15 O2          2.3788    1.1394   -0.0145 O.co2     1 <0>        -0.7601
@<TRIPOS>BOND
     1    1    5 2
     2    1    2 1
     3    1   10 1
     4    2    3 2
     5    2   11 1
     6    3    4 1
     7    3    6 1
     8    4    5 1
     9    5   12 1
    10    6    7 2
    11    6   13 1
    12    7    8 1
    13    7   14 1
    14    8    9 2
    15    8   15 1
@<TRIPOS>MOLECULE
ZINC00454138
   36    37     0     0     0
SMALL
USER_CHARGES
2-[2-(4-methoxyphenoxy)acetyl]aminobenzoic acid
@<TRIPOS>ATOM
      1 C1          6.0211    3.1269   -0.1538 C.3       1 <0>         0.0276
      2 O1          4.8566    3.9546   -0.1227 O.3       1 <0>        -0.3198
      3 C2          3.6518    3.3245   -0.0981 C.ar      1 <0>         0.0850
      4 C3          2.4811    4.0675   -0.0673 C.ar      1 <0>        -0.1111
      5 C4          1.2573    3.4274   -0.0423 C.ar      1 <0>        -0.1093
      6 C5          1.1992    2.0417   -0.0490 C.ar      1 <0>         0.0994
      7 C6          2.3700    1.2986   -0.0750 C.ar      1 <0>        -0.1706
      8 C7          3.5937    1.9387   -0.1044 C.ar      1 <0>        -0.1658
      9 O2         -0.0056    1.4116   -0.0245 O.3       1 <0>        -0.2885
     10 C8          0.0093   -0.0173   -0.0332 C.3       1 <0>         0.0447
     11 C9         -1.4058   -0.5347   -0.0031 C.2       1 <0>         0.5136
     12 O3         -2.3355    0.2436    0.0231 O.2       1 <0>        -0.5169
     13 N1         -1.6381   -1.8622   -0.0054 N.am      1 <0>        -0.6393
     14 C10        -2.9400   -2.3415    0.1161 C.ar      1 <0>         0.1711
     15 C11        -3.9956   -1.6477   -0.4605 C.ar      1 <0>        -0.1398
     16 C12        -5.2845   -2.1273   -0.3433 C.ar      1 <0>        -0.1065
     17 C13        -5.5373   -3.2958    0.3574 C.ar      1 <0>        -0.1534
     18 C14        -4.5035   -3.9948    0.9411 C.ar      1 <0>        -0.0616
     19 C15        -3.1924   -3.5248    0.8268 C.ar      1 <0>        -0.1425
     20 C16        -2.0816   -4.2672    1.4491 C.2       1 <0>         0.4960
     21 O4         -0.9576   -3.8060    1.4320 O.co2     1 <0>        -0.6365
     22 H1          6.0401    2.4931    0.7327 H         1 <0>         0.0545
     23 H2          5.9991    2.5022   -1.0467 H         1 <0>         0.0540
     24 H3          6.9123    3.7542   -0.1711 H         1 <0>         0.0979
     25 H4          2.5263    5.1466   -0.0624 H         1 <0>         0.1374
     26 H5          0.3457    4.0060   -0.0180 H         1 <0>         0.1403
     27 H6          2.3249    0.2196   -0.0758 H         1 <0>         0.1346
     28 H7          4.5053    1.3601   -0.1287 H         1 <0>         0.1309
     29 H8          0.5060   -0.3700   -0.9371 H         1 <0>         0.0933
     30 H9          0.5476   -0.3804    0.8423 H         1 <0>         0.0998
     31 H10        -0.8986   -2.4839   -0.0917 H         1 <0>         0.4243
     32 H11        -3.8073   -0.7341   -1.0047 H         1 <0>         0.1344
     33 H12        -6.1016   -1.5860   -0.7968 H         1 <0>         0.1180
     34 H13        -6.5501   -3.6603    0.4466 H         1 <0>         0.1175
     35 H14        -4.7061   -4.9046    1.4867 H         1 <0>         0.1334
     36 O5         -2.3126   -5.4575    2.0371 O.co2     1 <0>        -0.7459
@<TRIPOS>BOND
     1    1    2 1
     2    1   22 1
     3    1   23 1
     4    1   24 1
     5    2    3 1
     6    3    8 ar
     7    3    4 ar
     8    4    5 ar
     9    4   25 1
    10    5    6 ar
    11    5   26 1
    12    6    7 ar
    13    6    9 1
    14    7    8 ar
    15    7   27 1
    16    8   28 1
    17    9   10 1
    18   10   11 1
    19   10   29 1
    20   10   30 1
    21   11   12 2
    22   11   13 am
    23   13   14 1
    24   13   31 1
    25   14   19 ar
    26   14   15 ar
    27   15   16 ar
    28   15   32 1
    29   16   17 ar
    30   16   33 1
    31   17   18 ar
    32   17   34 1
    33   18   19 ar
    34   18   35 1
    35   19   20 1
    36   20   21 2
    37   20   36 1
@<TRIPOS>MOLECULE
ZINC28824279
   26    26     0     0     0
SMALL
USER_CHARGES
5-pentyl-1H-pyrazole-3-carboxylic acid
@<TRIPOS>ATOM
      1 C1         -0.7556    3.5490    1.2776 C.3       1 <0>        -0.1530
      2 C2         -0.7348    2.0192    1.2692 C.3       1 <0>        -0.1270
      3 C3         -0.0187    1.5258    0.0104 C.3       1 <0>        -0.1190
      4 C4          0.0021   -0.0041    0.0020 C.3       1 <0>        -0.1139
      5 C5          0.7182   -0.4975   -1.2568 C.3       1 <0>        -0.0255
      6 C6          0.7387   -2.0043   -1.2651 C.2       1 <0>         0.0077
      7 C7          1.6531   -2.7981   -0.6604 C.2       1 <0>        -0.2139
      8 C8          1.2535   -4.1246   -0.9508 C.2       1 <0>        -0.0182
      9 N1          0.1613   -4.0451   -1.6852 N.pl3     1 <0>        -0.3363
     10 N2         -0.1519   -2.8141   -1.8773 N.2       1 <0>        -0.3359
     11 H1         -0.3351   -4.9627   -2.0338 H         1 <0>         0.4801
     12 C9          1.9287   -5.3613   -0.5118 C.2       1 <0>         0.5175
     13 O1          2.9298   -5.2965    0.1734 O.co2     1 <0>        -0.6134
     14 O2          1.4350   -6.5623   -0.8713 O.co2     1 <0>        -0.7596
     15 H2         -1.2705    3.9037    2.1826 H         1 <0>         0.0505
     16 H3         -1.2877    3.9133    0.3864 H         1 <0>         0.0522
     17 H4          0.2764    3.9298    1.2698 H         1 <0>         0.0530
     18 H5         -0.2027    1.6549    2.1604 H         1 <0>         0.0614
     19 H6         -1.7668    1.6384    1.2771 H         1 <0>         0.0601
     20 H7         -0.5508    1.8902   -0.8807 H         1 <0>         0.0603
     21 H8          1.0133    1.9066    0.0025 H         1 <0>         0.0615
     22 H9          0.5342   -0.3684    0.8932 H         1 <0>         0.0643
     23 H10        -1.0299   -0.3849    0.0099 H         1 <0>         0.0618
     24 H11         0.1861   -0.1331   -2.1479 H         1 <0>         0.0690
     25 H12         1.7502   -0.1167   -1.2647 H         1 <0>         0.0739
     26 H13         2.5077   -2.4852   -0.0789 H         1 <0>         0.1425
@<TRIPOS>BOND
     1    1    2 1
     2    1   15 1
     3    1   16 1
     4    1   17 1
     5    2    3 1
     6    2   18 1
     7    2   19 1
     8    3    4 1
     9    3   20 1
    10    3   21 1
    11    4    5 1
    12    4   22 1
    13    4   23 1
    14    5    6 1
    15    5   24 1
    16    5   25 1
    17    6    7 1
    18    6   10 2
    19    7   26 1
    20    7    8 2
    21    8   12 1
    22    8    9 1
    23    9   11 1
    24    9   10 1
    25   12   13 2
    26   12   14 1
@<TRIPOS>MOLECULE
ZINC16051516
   18    18     0     0     0
SMALL
USER_CHARGES

@<TRIPOS>ATOM
      1 C1         -0.0167    1.3799    0.0096 C.ar      1 <0>        -0.1379
      2 C2          1.1680    2.0956    0.0022 C.ar      1 <0>        -0.1212
      3 C3          2.3774    1.4338   -0.0129 C.ar      1 <0>        -0.1180
      4 C4          2.4050    0.0352   -0.0206 C.ar      1 <0>        -0.0351
      5 C5          1.2032   -0.6808   -0.0130 C.ar      1 <0>        -0.1217
      6 C6          0.0021   -0.0041    0.0020 C.ar      1 <0>        -0.1189
      7 C7          3.6910   -0.6789   -0.0372 C.2       1 <0>        -0.1205
      8 C8          3.7135   -2.0301   -0.0446 C.2       1 <0>        -0.1627
      9 C9          4.9513   -2.7174   -0.0605 C.2       1 <0>         0.4997
     10 O1          6.0017   -2.0873   -0.0676 O.co2     1 <0>        -0.6946
     11 O2          4.9717   -3.9422   -0.0673 O.co2     1 <0>        -0.6986
     12 H1         -0.9608    1.9042    0.0260 H         1 <0>         0.1155
     13 H2          1.1450    3.1754    0.0078 H         1 <0>         0.1179
     14 H3          3.3010    1.9937   -0.0191 H         1 <0>         0.1231
     15 H4          1.2162   -1.7607   -0.0192 H         1 <0>         0.1260
     16 H5         -0.9266   -0.5553    0.0082 H         1 <0>         0.1183
     17 H6          4.6171   -0.1234   -0.0434 H         1 <0>         0.1284
     18 H7          2.7874   -2.5856   -0.0384 H         1 <0>         0.1004
@<TRIPOS>BOND
     1    1    6 ar
     2    1    2 ar
     3    1   12 1
     4    2    3 ar
     5    2   13 1
     6    3    4 ar
     7    3   14 1
     8    4    5 ar
     9    4    7 1
    10    5    6 ar
    11    5   15 1
    12    6   16 1
    13    7    8 2
    14    7   17 1
    15    8    9 1
    16    8   18 1
    17    9   10 2
    18    9   11 1
@<TRIPOS>MOLECULE
ZINC00000010
   25    26     0     0     0
SMALL
USER_CHARGES
(5S)-5-methyl-4-oxo-5-phenyl-furan-2-carboxylic acid
@<TRIPOS>ATOM
      1 C1         -0.6691   -0.5536    1.2623 C.3       1 <0>        -0.1307
      2 C2          0.0021   -0.0041    0.0020 C.3       1 <0>         0.0623
      3 C3          1.4734   -0.3667   -0.0140 C.2       1 <0>         0.3857
      4 O1          1.9621   -1.4776   -0.0250 O.2       1 <0>        -0.4576
      5 C4          2.1543    0.8786   -0.0138 C.2       1 <0>        -0.3661
      6 C5          1.2506    1.8797    0.0002 C.2       1 <0>         0.1547
      7 O2         -0.0174    1.4292    0.0099 O.3       1 <0>        -0.2528
      8 C6          1.6138    3.3169    0.0045 C.2       1 <0>         0.5097
      9 O3          0.7433    4.1629    0.0173 O.co2     1 <0>        -0.5921
     10 C7         -0.6852   -0.5321   -1.2308 C.ar      1 <0>        -0.0825
     11 C8         -0.2648   -1.7187   -1.8018 C.ar      1 <0>        -0.1089
     12 C9         -0.8977   -2.2051   -2.9304 C.ar      1 <0>        -0.1229
     13 C10        -1.9458   -1.5007   -3.4928 C.ar      1 <0>        -0.1170
     14 C11        -2.3628   -0.3114   -2.9248 C.ar      1 <0>        -0.1240
     15 C12        -1.7323    0.1730   -1.7940 C.ar      1 <0>        -0.0893
     16 H1         -1.7073   -0.2232    1.2946 H         1 <0>         0.0775
     17 H2         -0.6349   -1.6430    1.2466 H         1 <0>         0.0813
     18 H3         -0.1433   -0.1862    2.1436 H         1 <0>         0.0712
     19 H4          3.2268    1.0047   -0.0234 H         1 <0>         0.1666
     20 H5          0.5563   -2.2674   -1.3644 H         1 <0>         0.1391
     21 H6         -0.5717   -3.1341   -3.3743 H         1 <0>         0.1236
     22 H7         -2.4386   -1.8793   -4.3761 H         1 <0>         0.1214
     23 H8         -3.1814    0.2392   -3.3644 H         1 <0>         0.1246
     24 H9         -2.0581    1.1022   -1.3502 H         1 <0>         0.1322
     25 O4          2.9097    3.6841   -0.0059 O.co2     1 <0>        -0.7061
@<TRIPOS>BOND
     1    1    2 1
     2    1   16 1
     3    1   17 1
     4    1   18 1
     5    2    7 1
     6    2    3 1
     7    2   10 1
     8    3    4 2
     9    3    5 1
    10    5    6 2
    11    5   19 1
    12    6    7 1
    13    6    8 1
    14    8    9 2
    15    8   25 1
    16   10   15 ar
    17   10   11 ar
    18   11   12 ar
    19   11   20 1
    20   12   13 ar
    21   12   21 1
    22   13   14 ar
    23   13   22 1
    24   14   15 ar
    25   14   23 1
    26   15   24 1
@<TRIPOS>MOLECULE
ZINC01841718
   25    26     0     0     0
SMALL
USER_CHARGES

@<TRIPOS>ATOM
      1 C1         -0.0187    1.5258    0.0104 C.3       1 <0>        -0.1309
      2 C2          0.0021   -0.0041    0.0020 C.3       1 <0>         0.0647
      3 C3          0.7906   -0.5146   -1.1881 C.2       1 <0>         0.3828
      4 O1          0.5601   -0.3373   -2.3661 O.2       1 <0>        -0.4554
      5 C4          1.8958   -1.2713   -0.5904 C.2       1 <0>        -0.3739
      6 C5          1.7734   -1.2130    0.7515 C.2       1 <0>         0.1276
      7 O2          0.7052   -0.4993    1.1471 O.3       1 <0>        -0.2524
      8 C6          2.7159   -1.8673    1.6902 C.2       1 <0>         0.5432
      9 O3          3.6669   -2.5017    1.2581 O.co2     1 <0>        -0.6435
     10 O4          2.5420   -1.7722    2.8961 O.co2     1 <0>        -0.6490
     11 C7         -1.4036   -0.5466   -0.0254 C.ar      1 <0>        -0.0822
     12 C8         -2.0203   -0.8075   -1.2348 C.ar      1 <0>        -0.1108
     13 C9         -3.3097   -1.3051   -1.2600 C.ar      1 <0>        -0.1232
     14 C10        -3.9823   -1.5422   -0.0758 C.ar      1 <0>        -0.1174
     15 C11        -3.3653   -1.2822    1.1336 C.ar      1 <0>        -0.1240
     16 C12        -2.0743   -0.7886    1.1588 C.ar      1 <0>        -0.0879
     17 H1          1.0039    1.9031    0.0027 H         1 <0>         0.0707
     18 H2         -0.5459    1.8868   -0.8726 H         1 <0>         0.0797
     19 H3         -0.5289    1.8773    0.9072 H         1 <0>         0.0778
     20 H4          2.6746   -1.7874   -1.1323 H         1 <0>         0.1639
     21 H5         -1.4948   -0.6222   -2.1600 H         1 <0>         0.1381
     22 H6         -3.7917   -1.5083   -2.2048 H         1 <0>         0.1232
     23 H7         -4.9900   -1.9303   -0.0955 H         1 <0>         0.1212
     24 H8         -3.8909   -1.4671    2.0587 H         1 <0>         0.1246
     25 H9         -1.5909   -0.5889    2.1037 H         1 <0>         0.1328
@<TRIPOS>BOND
     1    1    2 1
     2    1   17 1
     3    1   18 1
     4    1   19 1
     5    2    7 1
     6    2    3 1
     7    2   11 1
     8    3    4 2
     9    3    5 1
    10    5    6 2
    11    5   20 1
    12    6    7 1
    13    6    8 1
    14    8    9 2
    15    8   10 1
    16   11   16 ar
    17   11   12 ar
    18   12   13 ar
    19   12   21 1
    20   13   14 ar
    21   13   22 1
    22   14   15 ar
    23   14   23 1
    24   15   16 ar
    25   15   24 1
    26   16   25 1
@<TRIPOS>MOLECULE
ZINC06529827
   21    22     0     0     0
SMALL
USER_CHARGES

@<TRIPOS>ATOM
      1 C1         -0.0187    1.5308    0.0105 C.3       1 <0>        -0.1170
      2 C2          1.4150    2.0658   -0.0004 C.3       1 <0>        -0.1135
      3 C3          2.0776    1.8095    1.3591 C.3       1 <0>        -0.0238
      4 C4          1.8833    0.3553    1.7111 C.2       1 <0>         0.0123
      5 C5          0.9374   -0.4653    1.0855 C.2       1 <0>        -0.1822
      6 C6          1.0674   -1.7023    1.6700 C.2       1 <0>        -0.0114
      7 N1          2.0639   -1.5728    2.6035 N.pl3     1 <0>        -0.3904
      8 H1          2.3842   -2.2831    3.1811 H         1 <0>         0.4416
      9 N2          2.5103   -0.3643    2.5961 N.2       1 <0>        -0.3092
     10 C7          0.2986   -2.9128    1.3590 C.2       1 <0>         0.5497
     11 O1          0.5233   -3.9528    1.9641 O.co2     1 <0>        -0.6910
     12 O2         -0.5673   -2.8826    0.4945 O.co2     1 <0>        -0.6643
     13 C8          0.0021   -0.0041    0.0020 C.3       1 <0>        -0.0296
     14 H2         -0.5300    1.8816    0.9069 H         1 <0>         0.0590
     15 H3         -0.5470    1.8912   -0.8722 H         1 <0>         0.0605
     16 H4          1.9839    1.5612   -0.7813 H         1 <0>         0.0630
     17 H5          1.4001    3.1373   -0.1997 H         1 <0>         0.0624
     18 H6          3.1424    2.0339    1.2974 H         1 <0>         0.0701
     19 H7          1.6123    2.4372    2.1192 H         1 <0>         0.0709
     20 H8         -1.0004   -0.3868    0.1937 H         1 <0>         0.0783
     21 H9          0.3545   -0.3620   -0.9653 H         1 <0>         0.0647
@<TRIPOS>BOND
     1    1   13 1
     2    1    2 1
     3    1   14 1
     4    1   15 1
     5    2    3 1
     6    2   16 1
     7    2   17 1
     8    3    4 1
     9    3   18 1
    10    3   19 1
    11    4    9 2
    12    4    5 1
    13    5    6 2
    14    5   13 1
    15    6    7 1
    16    6   10 1
    17    7    8 1
    18    7    9 1
    19   10   11 2
    20   10   12 1
    21   13   20 1
    22   13   21 1
@<TRIPOS>MOLECULE
ZINC00161662
   25    26     0     0     0
SMALL
USER_CHARGES

@<TRIPOS>ATOM
      1 C1         -0.0187    1.5258    0.0104 C.3       1 <0>        -0.1618
      2 C2          0.0021   -0.0041    0.0020 C.3       1 <0>         0.1588
      3 C3          0.7421   -0.5109    1.2415 C.3       1 <0>        -0.1620
      4 N1         -1.3723   -0.5112    0.0124 N.pl3     1 <0>        -0.3993
      5 C4         -1.9576   -1.3104   -0.9369 C.ar      1 <0>         0.0890
      6 C5         -1.5102   -1.8722   -2.1313 C.ar      1 <0>        -0.1555
      7 C6         -2.3468   -2.6422   -2.8812 C.ar      1 <0>        -0.0199
      8 C7         -3.6652   -2.8782   -2.4601 C.ar      1 <0>        -0.1513
      9 C8         -4.1299   -2.3268   -1.2711 C.ar      1 <0>        -0.0047
     10 C9         -3.2758   -1.5356   -0.4983 C.ar      1 <0>        -0.0305
     11 N2         -3.4346   -0.8779    0.6751 N.2       1 <0>        -0.2180
     12 N3         -2.3428   -0.2788    0.9975 N.2       1 <0>        -0.0290
     13 C10        -4.5600   -3.7129   -3.2814 C.2       1 <0>         0.5251
     14 O1         -4.1537   -4.1987   -4.3278 O.co2     1 <0>        -0.6853
     15 O2         -5.7090   -3.9199   -2.9166 O.co2     1 <0>        -0.6823
     16 H1          1.0039    1.9031    0.0027 H         1 <0>         0.0763
     17 H2         -0.5459    1.8868   -0.8726 H         1 <0>         0.0619
     18 H3         -0.5289    1.8773    0.9072 H         1 <0>         0.0704
     19 H4          0.5123   -0.3556   -0.8948 H         1 <0>         0.1018
     20 H5          0.2319   -0.1594    2.1383 H         1 <0>         0.0704
     21 H6          0.7568   -1.6008    1.2356 H         1 <0>         0.0619
     22 H7          1.7647   -0.1336    1.2338 H         1 <0>         0.0763
     23 H8         -0.4977   -1.6962   -2.4633 H         1 <0>         0.1225
     24 H9         -1.9938   -3.0739   -3.8061 H         1 <0>         0.1424
     25 H10        -5.1440   -2.5087   -0.9472 H         1 <0>         0.1429
@<TRIPOS>BOND
     1    1    2 1
     2    1   16 1
     3    1   17 1
     4    1   18 1
     5    2    3 1
     6    2    4 1
     7    2   19 1
     8    3   20 1
     9    3   21 1
    10    3   22 1
    11    4   12 1
    12    4    5 1
    13    5   10 ar
    14    5    6 ar
    15    6    7 ar
    16    6   23 1
    17    7    8 ar
    18    7   24 1
    19    8    9 ar
    20    8   13 1
    21    9   10 ar
    22    9   25 1
    23   10   11 1
    24   11   12 2
    25   13   14 2
    26   13   15 1
@<TRIPOS>MOLECULE
ZINC03982495
   14    14     0     0     0
SMALL
USER_CHARGES
5-methyl-2H-pyrazole-3-carboxylic acid
@<TRIPOS>ATOM
      1 C1          1.3382    4.8872    0.0155 C.3       1 <0>        -0.0570
      2 C2          0.5481    3.6040    0.0162 C.2       1 <0>         0.0055
      3 C3          1.0783    2.3122    0.0042 C.2       1 <0>        -0.2136
      4 C4         -0.0179    1.4658    0.0101 C.2       1 <0>         0.0052
      5 N1         -1.1217    2.2713    0.0190 N.pl3     1 <0>        -0.3769
      6 H1         -2.0690    1.9509    0.0185 H         1 <0>         0.4515
      7 N2         -0.7567    3.5027    0.0281 N.2       1 <0>        -0.3113
      8 C5          0.0021   -0.0041    0.0020 C.2       1 <0>         0.5176
      9 O1          1.0628   -0.5974   -0.0113 O.co2     1 <0>        -0.6130
     10 H2          1.5189    5.2021   -1.0122 H         1 <0>         0.0650
     11 H3          0.7759    5.6605    0.5389 H         1 <0>         0.0634
     12 H4          2.2914    4.7272    0.5194 H         1 <0>         0.0692
     13 H5          2.1214    2.0326   -0.0073 H         1 <0>         0.1500
     14 O2         -1.1562   -0.6940    0.0094 O.co2     1 <0>        -0.7557
@<TRIPOS>BOND
     1    1    2 1
     2    1   10 1
     3    1   11 1
     4    1   12 1
     5    2    7 2
     6    2    3 1
     7    3    4 2
     8    3   13 1
     9    4    5 1
    10    4    8 1
    11    5    6 1
    12    5    7 1
    13    8    9 2
    14    8   14 1
@<TRIPOS>MOLECULE
ZINC28863446
   40    42     0     0     0
SMALL
USER_CHARGES
2-[3-[3-(4-hydroxyphenyl)-1,2,4-oxadiazol-5-yl]propanoylamino]benzoic acid
@<TRIPOS>ATOM
      1 C1         -1.2543    6.3168    0.3574 C.ar      1 <0>        -0.1642
      2 C2         -0.1777    5.5913    0.8423 C.ar      1 <0>        -0.1016
      3 C3         -0.1579    4.2153    0.7368 C.ar      1 <0>        -0.1568
      4 C4         -1.2155    3.5485    0.1327 C.ar      1 <0>         0.1859
      5 C5         -2.3075    4.2798   -0.3590 C.ar      1 <0>        -0.1563
      6 C6         -2.3153    5.6722   -0.2400 C.ar      1 <0>        -0.0567
      7 C7         -3.4394    3.5837   -0.9964 C.2       1 <0>         0.5022
      8 O1         -3.4719    2.3692   -1.0171 O.co2     1 <0>        -0.6334
      9 O2         -4.4383    4.2941   -1.5564 O.co2     1 <0>        -0.7408
     10 N1         -1.1951    2.1606    0.0205 N.am      1 <0>        -0.6590
     11 C8         -0.0189    1.5027    0.0083 C.2       1 <0>         0.5115
     12 O3          1.0229    2.1233   -0.0083 O.2       1 <0>        -0.5449
     13 C9          0.0016   -0.0041    0.0090 C.3       1 <0>        -0.1391
     14 C10         1.4508   -0.4944   -0.0131 C.3       1 <0>        -0.0138
     15 C11         1.4713   -2.0013   -0.0124 C.2       1 <0>         0.1963
     16 N2          1.4656   -2.7798   -1.0657 N.2       1 <0>        -0.4746
     17 C12         1.4903   -4.0431   -0.5837 C.2       1 <0>         0.2184
     18 N3          1.5094   -3.9580    0.7214 N.2       1 <0>        -0.3836
     19 O4          1.5047   -2.7942    1.0632 O.3       1 <0>         0.0798
     20 C13         1.4944   -5.2915   -1.3850 C.ar      1 <0>        -0.0672
     21 C14         1.4656   -5.2277   -2.7772 C.ar      1 <0>        -0.0296
     22 C15         1.4734   -6.3896   -3.5194 C.ar      1 <0>        -0.1657
     23 C16         1.5007   -7.6226   -2.8812 C.ar      1 <0>         0.1757
     24 C17         1.5245   -7.6893   -1.4944 C.ar      1 <0>        -0.2189
     25 C18         1.5212   -6.5307   -0.7471 C.ar      1 <0>        -0.0407
     26 O5          1.5035   -8.7657   -3.6149 O.3       1 <0>        -0.5067
     27 H1         -1.2618    7.3929    0.4486 H         1 <0>         0.1151
     28 H2          0.6490    6.1056    1.3096 H         1 <0>         0.1156
     29 H3          0.6829    3.6569    1.1209 H         1 <0>         0.1401
     30 H4         -3.1523    6.2422   -0.6156 H         1 <0>         0.1313
     31 H5         -2.1390    1.6012   -0.0582 H         1 <0>         0.4522
     32 H6         -0.4980   -0.3772    0.9152 H         1 <0>         0.1039
     33 H7         -0.5258   -0.3784   -0.8808 H         1 <0>         0.1078
     34 H8          1.9503   -0.1213   -0.9193 H         1 <0>         0.1221
     35 H9          1.9782   -0.1201    0.8767 H         1 <0>         0.1136
     36 H10         1.4403   -4.2691   -3.2740 H         1 <0>         0.1437
     37 H11         1.4545   -6.3408   -4.5982 H         1 <0>         0.1370
     38 H12         1.5453   -8.6496   -1.0007 H         1 <0>         0.1335
     39 H13         1.5391   -6.5831    0.3315 H         1 <0>         0.1324
     40 H14         1.5251   -9.7430   -3.1105 H         1 <0>         0.4354
@<TRIPOS>BOND
     1    1    6 ar
     2    1    2 ar
     3    1   27 1
     4    2    3 ar
     5    2   28 1
     6    3    4 ar
     7    3   29 1
     8    4    5 ar
     9    4   10 1
    10    5    6 ar
    11    5    7 1
    12    6   30 1
    13    7    8 2
    14    7    9 1
    15   10   11 am
    16   10   31 1
    17   11   12 2
    18   11   13 1
    19   13   14 1
    20   13   32 1
    21   13   33 1
    22   14   15 1
    23   14   34 1
    24   14   35 1
    25   15   19 1
    26   15   16 2
    27   16   17 1
    28   17   18 2
    29   17   20 1
    30   18   19 1
    31   20   25 ar
    32   20   21 ar
    33   21   22 ar
    34   21   36 1
    35   22   23 ar
    36   22   37 1
    37   23   24 ar
    38   23   26 1
    39   24   25 ar
    40   24   38 1
    41   25   39 1
    42   26   40 1
@<TRIPOS>MOLECULE
ZINC04546761
   44    45     0     0     0
SMALL
USER_CHARGES
2-[2-(4-tert-butylphenoxy)acetyl]aminobenzoic acid
@<TRIPOS>ATOM
      1 C1          5.1316    4.8897    1.1250 C.3       1 <0>        -0.1389
      2 C2          4.9846    4.0216   -0.1262 C.3       1 <0>        -0.0247
      3 C3          6.1045    2.9796   -0.1585 C.3       1 <0>        -0.1451
      4 C4          5.0731    4.9043   -1.3727 C.3       1 <0>        -0.1384
      5 C5          3.6494    3.3232   -0.0990 C.ar      1 <0>        -0.1133
      6 C6          2.4831    4.0651   -0.0673 C.ar      1 <0>        -0.0767
      7 C7          1.2579    3.4273   -0.0424 C.ar      1 <0>        -0.1472
      8 C8          1.1984    2.0413   -0.0490 C.ar      1 <0>         0.1293
      9 C9          2.3703    1.2992   -0.0750 C.ar      1 <0>        -0.2076
     10 C10         3.5928    1.9418   -0.1062 C.ar      1 <0>        -0.0795
     11 O1         -0.0056    1.4116   -0.0245 O.3       1 <0>        -0.2896
     12 C11         0.0093   -0.0173   -0.0332 C.3       1 <0>         0.0449
     13 C12        -1.4058   -0.5347   -0.0031 C.2       1 <0>         0.5135
     14 O2         -2.3355    0.2436    0.0231 O.2       1 <0>        -0.5173
     15 N1         -1.6381   -1.8622   -0.0054 N.am      1 <0>        -0.6391
     16 C13        -2.9400   -2.3415    0.1161 C.ar      1 <0>         0.1712
     17 C14        -3.9956   -1.6477   -0.4605 C.ar      1 <0>        -0.1400
     18 C15        -5.2845   -2.1273   -0.3433 C.ar      1 <0>        -0.1065
     19 C16        -5.5373   -3.2958    0.3574 C.ar      1 <0>        -0.1534
     20 C17        -4.5035   -3.9948    0.9411 C.ar      1 <0>        -0.0616
     21 C18        -3.1924   -3.5248    0.8268 C.ar      1 <0>        -0.1425
     22 C19        -2.0816   -4.2672    1.4491 C.2       1 <0>         0.4959
     23 O3         -0.9576   -3.8060    1.4320 O.co2     1 <0>        -0.6363
     24 H1          5.0686    4.2609    2.0131 H         1 <0>         0.0566
     25 H2          6.0974    5.3948    1.1053 H         1 <0>         0.0560
     26 H3          4.3338    5.6320    1.1480 H         1 <0>         0.0563
     27 H4          5.9997    2.3611   -1.0499 H         1 <0>         0.0585
     28 H5          7.0702    3.4847   -0.1782 H         1 <0>         0.0564
     29 H6          6.0414    2.3508    0.7296 H         1 <0>         0.0591
     30 H7          4.2753    5.6466   -1.3497 H         1 <0>         0.0562
     31 H8          6.0388    5.4094   -1.3924 H         1 <0>         0.0559
     32 H9          4.9684    4.2858   -2.2641 H         1 <0>         0.0560
     33 H10         2.5299    5.1441   -0.0618 H         1 <0>         0.1259
     34 H11         0.3471    4.0073   -0.0180 H         1 <0>         0.1308
     35 H12         2.3267    0.2201   -0.0757 H         1 <0>         0.1304
     36 H13         4.5053    1.3645   -0.1316 H         1 <0>         0.1286
     37 H14         0.5060   -0.3700   -0.9371 H         1 <0>         0.0939
     38 H15         0.5476   -0.3804    0.8423 H         1 <0>         0.1004
     39 H16        -0.8986   -2.4839   -0.0917 H         1 <0>         0.4245
     40 H17        -3.8073   -0.7341   -1.0047 H         1 <0>         0.1342
     41 H18        -6.1016   -1.5860   -0.7968 H         1 <0>         0.1180
     42 H19        -6.5501   -3.6603    0.4466 H         1 <0>         0.1175
     43 H20        -4.7061   -4.9046    1.4867 H         1 <0>         0.1335
     44 O4         -2.3126   -5.4575    2.0371 O.co2     1 <0>        -0.7459
@<TRIPOS>BOND
     1    1    2 1
     2    1   24 1
     3    1   25 1
     4    1   26 1
     5    2    3 1
     6    2    4 1
     7    2    5 1
     8    3   27 1
     9    3   28 1
    10    3   29 1
    11    4   30 1
    12    4   31 1
    13    4   32 1
    14    5   10 ar
    15    5    6 ar
    16    6    7 ar
    17    6   33 1
    18    7    8 ar
    19    7   34 1
    20    8    9 ar
    21    8   11 1
    22    9   10 ar
    23    9   35 1
    24   10   36 1
    25   11   12 1
    26   12   13 1
    27   12   37 1
    28   12   38 1
    29   13   14 2
    30   13   15 am
    31   15   16 1
    32   15   39 1
    33   16   21 ar
    34   16   17 ar
    35   17   18 ar
    36   17   40 1
    37   18   19 ar
    38   18   41 1
    39   19   20 ar
    40   19   42 1
    41   20   21 ar
    42   20   43 1
    43   21   22 1
    44   22   23 2
    45   22   44 1
@<TRIPOS>MOLECULE
ZINC23304563
   53    55     0     0     0
SMALL
USER_CHARGES
3-(4-isopropylphenyl)-N-[(1R)-2-methoxy-1-methyl-ethyl]-7-methyl-pyrazolo[1,5-a]pyrimidine-6-carboxamide
@<TRIPOS>ATOM
      1 C1         -4.1645    4.9035    8.6167 C.3       1 <0>        -0.1849
      2 C2         -3.0607    4.8342    7.5930 C.2       1 <0>         0.2868
      3 C3         -2.0641    5.7899    7.5694 C.2       1 <0>        -0.2669
      4 C4         -1.0440    5.6923    6.5938 C.2       1 <0>         0.2097
      5 N1         -1.0547    4.7067    5.7307 N.2       1 <0>        -0.4595
      6 C5         -2.0188    3.7787    5.7503 C.2       1 <0>         0.2738
      7 N2         -3.0295    3.8287    6.6764 N.pl3     1 <0>        -0.3185
      8 N3         -3.8763    2.7379    6.4491 N.2       1 <0>        -0.2981
      9 C6         -3.4243    2.0454    5.4329 C.2       1 <0>         0.1148
     10 C7         -2.2547    2.6507    4.9569 C.2       1 <0>        -0.1864
     11 C8         -1.4249    2.1866    3.8207 C.ar      1 <0>        -0.0027
     12 C9         -1.0093    0.8570    3.7544 C.ar      1 <0>        -0.1062
     13 C10        -0.2370    0.4306    2.6934 C.ar      1 <0>        -0.1167
     14 C11         0.1246    1.3190    1.6964 C.ar      1 <0>        -0.0768
     15 C12        -0.2799    2.6405    1.7595 C.ar      1 <0>        -0.1125
     16 C13        -1.0568    3.0775    2.8128 C.ar      1 <0>        -0.0920
     17 C14         0.9678    0.8467    0.5401 C.3       1 <0>        -0.0582
     18 C15         2.2739    1.6426    0.5027 C.3       1 <0>        -0.1459
     19 C16         0.2037    1.0588   -0.7684 C.3       1 <0>        -0.1458
     20 C17        -2.0633    6.8963    8.5466 C.2       1 <0>         0.5888
     21 O1         -3.0015    7.0363    9.3072 O.2       1 <0>        -0.5280
     22 N4         -1.0227    7.7514    8.5956 N.am      1 <0>        -0.7231
     23 C18        -1.0219    8.8495    9.5653 C.3       1 <0>         0.1500
     24 H1         -1.5158    8.4786   10.4755 H         1 <0>         0.1047
     25 C19        -1.7853   10.0421    8.9859 C.3       1 <0>        -0.1623
     26 C20         0.4200    9.2639    9.8654 C.3       1 <0>         0.0495
     27 O2          1.0165    9.8026    8.6838 O.3       1 <0>        -0.3881
     28 C21         2.3713   10.2228    8.8563 C.3       1 <0>         0.0277
     29 H2         -4.0123    5.7819    9.2610 H         1 <0>         0.1676
     30 H3         -4.1523    3.9913    9.2314 H         1 <0>         0.0894
     31 H4         -5.1345    4.9878    8.1048 H         1 <0>         0.0921
     32 H5         -0.2565    6.4307    6.5603 H         1 <0>         0.1805
     33 H6         -3.8785    1.1524    5.0295 H         1 <0>         0.2047
     34 H7         -1.2910    0.1626    4.5322 H         1 <0>         0.1211
     35 H8          0.0855   -0.5988    2.6410 H         1 <0>         0.1217
     36 H9          0.0092    3.3303    0.9805 H         1 <0>         0.1208
     37 H10        -1.3757    4.1084    2.8587 H         1 <0>         0.1183
     38 H11         1.1854   -0.2228    0.6771 H         1 <0>         0.0772
     39 H12         2.8893    1.2978   -0.3413 H         1 <0>         0.0582
     40 H13         2.8232    1.4901    1.4434 H         1 <0>         0.0562
     41 H14         2.0481    2.7121    0.3791 H         1 <0>         0.0574
     42 H15         0.8192    0.7141   -1.6124 H         1 <0>         0.0583
     43 H16        -0.0220    2.1283   -0.8919 H         1 <0>         0.0572
     44 H17        -0.7353    0.4865   -0.7415 H         1 <0>         0.0563
     45 H18        -0.1740    7.6247    7.9074 H         1 <0>         0.4254
     46 H19        -1.7847   10.8666    9.7140 H         1 <0>         0.0666
     47 H20        -2.8220    9.7441    8.7703 H         1 <0>         0.0616
     48 H21        -1.2981   10.3730    8.0569 H         1 <0>         0.0697
     49 H22         0.4249   10.0258   10.6588 H         1 <0>         0.0690
     50 H23         0.9925    8.3852   10.1973 H         1 <0>         0.0593
     51 H24         2.7549   10.6228    7.9061 H         1 <0>         0.0902
     52 H25         2.9847    9.3642    9.1671 H         1 <0>         0.0437
     53 H26         2.4171   11.0049    9.6285 H         1 <0>         0.0440
@<TRIPOS>BOND
     1    1    2 1
     2    1   29 1
     3    1   30 1
     4    1   31 1
     5    2    7 1
     6    2    3 2
     7    3    4 1
     8    3   20 1
     9    4    5 2
    10    4   32 1
    11    5    6 1
    12    6   10 2
    13    6    7 1
    14    7    8 1
    15    8    9 2
    16    9   10 1
    17    9   33 1
    18   10   11 1
    19   11   16 ar
    20   11   12 ar
    21   12   13 ar
    22   12   34 1
    23   13   14 ar
    24   13   35 1
    25   14   15 ar
    26   14   17 1
    27   15   16 ar
    28   15   36 1
    29   16   37 1
    30   17   18 1
    31   17   19 1
    32   17   38 1
    33   18   39 1
    34   18   40 1
    35   18   41 1
    36   19   42 1
    37   19   43 1
    38   19   44 1
    39   20   21 2
    40   20   22 am
    41   22   23 1
    42   22   45 1
    43   23   24 1
    44   23   25 1
    45   23   26 1
    46   25   46 1
    47   25   47 1
    48   25   48 1
    49   26   27 1
    50   26   49 1
    51   26   50 1
    52   27   28 1
    53   28   51 1
    54   28   52 1
    55   28   53 1
@<TRIPOS>MOLECULE
ZINC23304566
   53    55     0     0     0
SMALL
USER_CHARGES
3-(4-isopropylphenyl)-N-[(1S)-2-methoxy-1-methyl-ethyl]-7-methyl-pyrazolo[1,5-a]pyrimidine-6-carboxamide
@<TRIPOS>ATOM
      1 C1         -3.9618    5.2907    8.7551 C.3       1 <0>        -0.1849
      2 C2         -2.9643    5.0172    7.6591 C.2       1 <0>         0.2869
      3 C3         -1.6736    5.5008    7.7478 C.2       1 <0>        -0.2669
      4 C4         -0.7647    5.2244    6.6993 C.2       1 <0>         0.2097
      5 N1         -1.1521    4.5201    5.6647 N.2       1 <0>        -0.4595
      6 C5         -2.4017    4.0495    5.5753 C.2       1 <0>         0.2738
      7 N2         -3.3203    4.2901    6.5652 N.pl3     1 <0>        -0.3184
      8 N3         -4.5233    3.6788    6.1943 N.2       1 <0>        -0.2982
      9 C6         -4.3692    3.0926    5.0328 C.2       1 <0>         0.1149
     10 C7         -3.0522    3.2877    4.5985 C.2       1 <0>        -0.1865
     11 C8         -2.4598    2.7861    3.3367 C.ar      1 <0>        -0.0027
     12 C9         -2.5949    1.4433    2.9850 C.ar      1 <0>        -0.1061
     13 C10        -2.0413    0.9822    1.8082 C.ar      1 <0>        -0.1165
     14 C11        -1.3537    1.8490    0.9776 C.ar      1 <0>        -0.0768
     15 C12        -1.2115    3.1809    1.3238 C.ar      1 <0>        -0.1127
     16 C13        -1.7651    3.6550    2.4955 C.ar      1 <0>        -0.0921
     17 C14        -0.7520    1.3391   -0.3065 C.3       1 <0>        -0.0582
     18 C15         0.7614    1.5631   -0.2847 C.3       1 <0>        -0.1459
     19 C16        -1.3621    2.0924   -1.4901 C.3       1 <0>        -0.1458
     20 C17        -1.2492    6.2940    8.9181 C.2       1 <0>         0.5889
     21 O1         -2.0003    6.4312    9.8643 O.2       1 <0>        -0.5280
     22 N4         -0.0291    6.8661    8.9378 N.am      1 <0>        -0.7231
     23 C18         0.3922    7.6534   10.0992 C.3       1 <0>         0.1500
     24 H1         -0.5005    8.1696   10.4821 H         1 <0>         0.1047
     25 C19         0.9738    6.7208   11.1637 C.3       1 <0>        -0.1624
     26 C20         1.4571    8.6649    9.6706 C.3       1 <0>         0.0495
     27 O2          2.6289    7.9695    9.2402 O.3       1 <0>        -0.3881
     28 C21         3.6907    8.8267    8.8163 C.3       1 <0>         0.0278
     29 H2         -3.4841    5.8896    9.5445 H         1 <0>         0.1676
     30 H3         -4.3115    4.3377    9.1787 H         1 <0>         0.0921
     31 H4         -4.8178    5.8444    8.3420 H         1 <0>         0.0895
     32 H5          0.2487    5.5941    6.7517 H         1 <0>         0.1805
     33 H6         -5.1324    2.5461    4.4987 H         1 <0>         0.2047
     34 H7         -3.1314    0.7657    3.6325 H         1 <0>         0.1212
     35 H8         -2.1453   -0.0574    1.5347 H         1 <0>         0.1217
     36 H9         -0.6699    3.8519    0.6735 H         1 <0>         0.1207
     37 H10        -1.6573    4.6959    2.7625 H         1 <0>         0.1181
     38 H11        -0.9699    0.2645   -0.3949 H         1 <0>         0.0772
     39 H12         1.2007    1.1909   -1.2220 H         1 <0>         0.0582
     40 H13         1.2000    1.0214    0.5663 H         1 <0>         0.0563
     41 H14         0.9715    2.6380   -0.1827 H         1 <0>         0.0573
     42 H15        -0.9228    1.7201   -2.4274 H         1 <0>         0.0583
     43 H16        -1.1520    3.1673   -1.3882 H         1 <0>         0.0571
     44 H17        -2.4501    1.9313   -1.5057 H         1 <0>         0.0563
     45 H18         0.6504    6.7419    8.0818 H         1 <0>         0.4254
     46 H19         1.2901    7.3119   12.0358 H         1 <0>         0.0666
     47 H20         1.8412    6.1865   10.7487 H         1 <0>         0.0697
     48 H21         0.2082    5.9936   11.4719 H         1 <0>         0.0616
     49 H22         1.0693    9.2771    8.8430 H         1 <0>         0.0593
     50 H23         1.7085    9.3154   10.5213 H         1 <0>         0.0690
     51 H24         4.5510    8.2172    8.5026 H         1 <0>         0.0902
     52 H25         3.9888    9.4805    9.6492 H         1 <0>         0.0440
     53 H26         3.3497    9.4423    7.9709 H         1 <0>         0.0436
@<TRIPOS>BOND
     1    1    2 1
     2    1   29 1
     3    1   30 1
     4    1   31 1
     5    2    7 1
     6    2    3 2
     7    3    4 1
     8    3   20 1
     9    4    5 2
    10    4   32 1
    11    5    6 1
    12    6   10 2
    13    6    7 1
    14    7    8 1
    15    8    9 2
    16    9   10 1
    17    9   33 1
    18   10   11 1
    19   11   16 ar
    20   11   12 ar
    21   12   13 ar
    22   12   34 1
    23   13   14 ar
    24   13   35 1
    25   14   15 ar
    26   14   17 1
    27   15   16 ar
    28   15   36 1
    29   16   37 1
    30   17   18 1
    31   17   19 1
    32   17   38 1
    33   18   39 1
    34   18   40 1
    35   18   41 1
    36   19   42 1
    37   19   43 1
    38   19   44 1
    39   20   21 2
    40   20   22 am
    41   22   23 1
    42   22   45 1
    43   23   24 1
    44   23   25 1
    45   23   26 1
    46   25   46 1
    47   25   47 1
    48   25   48 1
    49   26   27 1
    50   26   49 1
    51   26   50 1
    52   27   28 1
    53   28   51 1
    54   28   52 1
    55   28   53 1
@<TRIPOS>MOLECULE
ZINC00001795
   13    13     0     0     0
SMALL
USER_CHARGES

@<TRIPOS>ATOM
      1 C1         -0.0167    1.3791    0.0096 C.ar      1 <0>        -0.1926
      2 C2          1.1803    2.0730    0.0019 C.ar      1 <0>        -0.0479
      3 C3          2.3734    1.3382   -0.0134 C.ar      1 <0>        -0.1831
      4 C4          2.3058   -0.0572   -0.0203 C.ar      1 <0>         0.1236
      5 N1          1.1411   -0.6705   -0.0129 N.ar      1 <0>        -0.5027
      6 C5          0.0021   -0.0041    0.0020 C.ar      1 <0>         0.0785
      7 C6          3.6785    2.0263   -0.0227 C.2       1 <0>         0.5243
      8 O1          3.7254    3.2483   -0.0170 O.co2     1 <0>        -0.6845
      9 O2          4.7132    1.3746   -0.0360 O.co2     1 <0>        -0.6822
     10 H1         -0.9560    1.9119    0.0259 H         1 <0>         0.1254
     11 H2          1.1948    3.1529    0.0072 H         1 <0>         0.1357
     12 H3          3.2166   -0.6374   -0.0321 H         1 <0>         0.1607
     13 H4         -0.9311   -0.5477    0.0080 H         1 <0>         0.1448
@<TRIPOS>BOND
     1    1    6 ar
     2    1    2 ar
     3    1   10 1
     4    2    3 ar
     5    2   11 1
     6    3    4 ar
     7    3    7 1
     8    4    5 ar
     9    4   12 1
    10    5    6 ar
    11    6   13 1
    12    7    8 2
    13    7    9 1
@<TRIPOS>MOLECULE
ZINC04416885
   14    13     0     0     0
SMALL
USER_CHARGES
(E)-4-methoxy-4-oxo-but-2-enoic acid
@<TRIPOS>ATOM
      1 C1          2.3716    1.1257   -0.0145 C.3       1 <0>         0.0360
      2 O1          1.1433    1.8998    0.0013 O.3       1 <0>        -0.3576
      3 C2         -0.0144    1.2103    0.0087 C.2       1 <0>         0.4978
      4 O2          0.0021   -0.0041    0.0020 O.2       1 <0>        -0.5209
      5 C3         -1.3022    1.9307    0.0187 C.2       1 <0>        -0.1919
      6 C4         -2.4561    1.2434    0.0205 C.2       1 <0>        -0.0582
      7 C5         -3.7440    1.9638    0.0305 C.2       1 <0>         0.4732
      8 O3         -3.7604    3.1781    0.0372 O.co2     1 <0>        -0.6188
      9 H1          2.4135    0.4925    0.8717 H         1 <0>         0.0597
     10 H2          2.3965    0.5021   -0.9082 H         1 <0>         0.0597
     11 H3          3.2269    1.8014   -0.0191 H         1 <0>         0.0974
     12 H4         -1.3169    3.0105    0.0247 H         1 <0>         0.1461
     13 H5         -2.4414    0.1635    0.0145 H         1 <0>         0.1220
     14 O4         -4.9017    1.2742    0.0322 O.co2     1 <0>        -0.7443
@<TRIPOS>BOND
     1    1    2 1
     2    1    9 1
     3    1   10 1
     4    1   11 1
     5    2    3 1
     6    3    4 2
     7    3    5 1
     8    5    6 2
     9    5   12 1
    10    6    7 1
    11    6   13 1
    12    7    8 2
    13    7   14 1
