@<TRIPOS>MOLECULE
ZINC28863446
   40    42     0     0     0
SMALL
USER_CHARGES
2-[3-[3-(4-hydroxyphenyl)-1,2,4-oxadiazol-5-yl]propanoylamino]benzoic acid
@<TRIPOS>ATOM
      1 C1         -1.2543    6.3168    0.3574 C.ar      1 <0>        -0.1642
      2 C2         -0.1777    5.5913    0.8423 C.ar      1 <0>        -0.1016
      3 C3         -0.1579    4.2153    0.7368 C.ar      1 <0>        -0.1568
      4 C4         -1.2155    3.5485    0.1327 C.ar      1 <0>         0.1859
      5 C5         -2.3075    4.2798   -0.3590 C.ar      1 <0>        -0.1563
      6 C6         -2.3153    5.6722   -0.2400 C.ar      1 <0>        -0.0567
      7 C7         -3.4394    3.5837   -0.9964 C.2       1 <0>         0.5022
      8 O1         -3.4719    2.3692   -1.0171 O.co2     1 <0>        -0.6334
      9 O2         -4.4383    4.2941   -1.5564 O.co2     1 <0>        -0.7408
     10 N1         -1.1951    2.1606    0.0205 N.am      1 <0>        -0.6590
     11 C8         -0.0189    1.5027    0.0083 C.2       1 <0>         0.5115
     12 O3          1.0229    2.1233   -0.0083 O.2       1 <0>        -0.5449
     13 C9          0.0016   -0.0041    0.0090 C.3       1 <0>        -0.1391
     14 C10         1.4508   -0.4944   -0.0131 C.3       1 <0>        -0.0138
     15 C11         1.4713   -2.0013   -0.0124 C.2       1 <0>         0.1963
     16 N2          1.4656   -2.7798   -1.0657 N.2       1 <0>        -0.4746
     17 C12         1.4903   -4.0431   -0.5837 C.2       1 <0>         0.2184
     18 N3          1.5094   -3.9580    0.7214 N.2       1 <0>        -0.3836
     19 O4          1.5047   -2.7942    1.0632 O.3       1 <0>         0.0798
     20 C13         1.4944   -5.2915   -1.3850 C.ar      1 <0>        -0.0672
     21 C14         1.4656   -5.2277   -2.7772 C.ar      1 <0>        -0.0296
     22 C15         1.4734   -6.3896   -3.5194 C.ar      1 <0>        -0.1657
     23 C16         1.5007   -7.6226   -2.8812 C.ar      1 <0>         0.1757
     24 C17         1.5245   -7.6893   -1.4944 C.ar      1 <0>        -0.2189
     25 C18         1.5212   -6.5307   -0.7471 C.ar      1 <0>        -0.0407
     26 O5          1.5035   -8.7657   -3.6149 O.3       1 <0>        -0.5067
     27 H1         -1.2618    7.3929    0.4486 H         1 <0>         0.1151
     28 H2          0.6490    6.1056    1.3096 H         1 <0>         0.1156
     29 H3          0.6829    3.6569    1.1209 H         1 <0>         0.1401
     30 H4         -3.1523    6.2422   -0.6156 H         1 <0>         0.1313
     31 H5         -2.1390    1.6012   -0.0582 H         1 <0>         0.4522
     32 H6         -0.4980   -0.3772    0.9152 H         1 <0>         0.1039
     33 H7         -0.5258   -0.3784   -0.8808 H         1 <0>         0.1078
     34 H8          1.9503   -0.1213   -0.9193 H         1 <0>         0.1221
     35 H9          1.9782   -0.1201    0.8767 H         1 <0>         0.1136
     36 H10         1.4403   -4.2691   -3.2740 H         1 <0>         0.1437
     37 H11         1.4545   -6.3408   -4.5982 H         1 <0>         0.1370
     38 H12         1.5453   -8.6496   -1.0007 H         1 <0>         0.1335
     39 H13         1.5391   -6.5831    0.3315 H         1 <0>         0.1324
     40 H14         1.5251   -9.7430   -3.1105 H         1 <0>         0.4354
@<TRIPOS>BOND
     1    1    6 ar
     2    1    2 ar
     3    1   27 1
     4    2    3 ar
     5    2   28 1
     6    3    4 ar
     7    3   29 1
     8    4    5 ar
     9    4   10 1
    10    5    6 ar
    11    5    7 1
    12    6   30 1
    13    7    8 2
    14    7    9 1
    15   10   11 am
    16   10   31 1
    17   11   12 2
    18   11   13 1
    19   13   14 1
    20   13   32 1
    21   13   33 1
    22   14   15 1
    23   14   34 1
    24   14   35 1
    25   15   19 1
    26   15   16 2
    27   16   17 1
    28   17   18 2
    29   17   20 1
    30   18   19 1
    31   20   25 ar
    32   20   21 ar
    33   21   22 ar
    34   21   36 1
    35   22   23 ar
    36   22   37 1
    37   23   24 ar
    38   23   26 1
    39   24   25 ar
    40   24   38 1
    41   25   39 1
    42   26   40 1
@<TRIPOS>MOLECULE
ZINC00001795
   13    13     0     0     0
SMALL
USER_CHARGES

@<TRIPOS>ATOM
      1 C1         -0.0167    1.3791    0.0096 C.ar      1 <0>        -0.1926
      2 C2          1.1803    2.0730    0.0019 C.ar      1 <0>        -0.0479
      3 C3          2.3734    1.3382   -0.0134 C.ar      1 <0>        -0.1831
      4 C4          2.3058   -0.0572   -0.0203 C.ar      1 <0>         0.1236
      5 N1          1.1411   -0.6705   -0.0129 N.ar      1 <0>        -0.5027
      6 C5          0.0021   -0.0041    0.0020 C.ar      1 <0>         0.0785
      7 C6          3.6785    2.0263   -0.0227 C.2       1 <0>         0.5243
      8 O1          3.7254    3.2483   -0.0170 O.co2     1 <0>        -0.6845
      9 O2          4.7132    1.3746   -0.0360 O.co2     1 <0>        -0.6822
     10 H1         -0.9560    1.9119    0.0259 H         1 <0>         0.1254
     11 H2          1.1948    3.1529    0.0072 H         1 <0>         0.1357
     12 H3          3.2166   -0.6374   -0.0321 H         1 <0>         0.1607
     13 H4         -0.9311   -0.5477    0.0080 H         1 <0>         0.1448
@<TRIPOS>BOND
     1    1    6 ar
     2    1    2 ar
     3    1   10 1
     4    2    3 ar
     5    2   11 1
     6    3    4 ar
     7    3    7 1
     8    4    5 ar
     9    4   12 1
    10    5    6 ar
    11    6   13 1
    12    7    8 2
    13    7    9 1
