@<TRIPOS>MOLECULE
ZINC08996233
   18    19     0     0     0
SMALL
USER_CHARGES
2,4,5,6-tetrahydrocyclopenta[d]pyrazole-3-carboxylic acid
@<TRIPOS>ATOM
      1 C1         -0.0189    1.5395    0.0105 C.3       1 <0>        -0.1167
      2 C2          1.4834    1.8971   -0.0019 C.3       1 <0>        -0.0347
      3 C3          2.1757    0.7148    0.6292 C.2       1 <0>        -0.2030
      4 C4          1.3216   -0.3882    0.6343 C.2       1 <0>        -0.0188
      5 N1          1.9650   -1.3855    1.1908 N.2       1 <0>        -0.2923
      6 N2          3.1481   -1.0305    1.5428 N.pl3     1 <0>        -0.3762
      7 H1          3.8200   -1.6237    1.9863 H         1 <0>         0.4549
      8 C5          3.3484    0.2824    1.2185 C.2       1 <0>         0.0200
      9 C6          4.5654    1.0740    1.4494 C.2       1 <0>         0.5184
     10 O1          4.6061    2.2398    1.1076 O.co2     1 <0>        -0.6103
     11 C7          0.0021   -0.0041    0.0020 C.3       1 <0>        -0.0177
     12 H2         -0.5154    1.9245   -0.8802 H         1 <0>         0.0757
     13 H3         -0.4983    1.9149    0.9146 H         1 <0>         0.0697
     14 H4          1.8305    2.0365   -1.0257 H         1 <0>         0.0703
     15 H5          1.6626    2.7979    0.5850 H         1 <0>         0.0721
     16 H6         -0.8273   -0.3965    0.5905 H         1 <0>         0.0697
     17 H7         -0.0513   -0.3771   -1.0208 H         1 <0>         0.0762
     18 O2          5.6363    0.5070    2.0403 O.co2     1 <0>        -0.7575
@<TRIPOS>BOND
     1    1   11 1
     2    1    2 1
     3    1   12 1
     4    1   13 1
     5    2    3 1
     6    2   14 1
     7    2   15 1
     8    3    8 2
     9    3    4 1
    10    4    5 2
    11    4   11 1
    12    5    6 1
    13    6    7 1
    14    6    8 1
    15    8    9 1
    16    9   10 2
    17    9   18 1
    18   11   16 1
    19   11   17 1
@<TRIPOS>MOLECULE
ZINC05324338
   11    11     0     0     0
SMALL
USER_CHARGES
2H-pyrazole-3-carboxylic acid
@<TRIPOS>ATOM
      1 C1          2.3776    3.8479    0.0000 C.2       1 <0>        -0.2180
      2 C2          1.9158    5.1657    0.0107 C.2       1 <0>        -0.0169
      3 N1          0.6075    5.1329    0.0225 N.2       1 <0>        -0.3145
      4 N2          0.1785    3.9222    0.0154 N.pl3     1 <0>        -0.3775
      5 H1         -0.7843    3.6518    0.0161 H         1 <0>         0.4511
      6 C3          1.2387    3.0601    0.0067 C.2       1 <0>         0.0028
      7 C4          1.1817    1.5912   -0.0007 C.2       1 <0>         0.5173
      8 O1          2.2100    0.9431   -0.0140 O.co2     1 <0>        -0.6132
      9 H2          3.4047    3.5141   -0.0110 H         1 <0>         0.1506
     10 H3          2.5294    6.0545    0.0090 H         1 <0>         0.1741
     11 O2         -0.0110    0.9628    0.0073 O.co2     1 <0>        -0.7558
@<TRIPOS>BOND
     1    1    6 2
     2    1    2 1
     3    1    9 1
     4    2    3 2
     5    2   10 1
     6    3    4 1
     7    4    5 1
     8    4    6 1
     9    6    7 1
    10    7    8 2
    11    7   11 1
@<TRIPOS>MOLECULE
ZINC13526610
   27    28     0     0     0
SMALL
USER_CHARGES

@<TRIPOS>ATOM
      1 C1         -0.0167    1.3781    0.0096 C.ar      1 <0>        -0.1314
      2 C2          1.1709    2.0855    0.0021 C.ar      1 <0>        -0.1201
      3 C3          2.3773    1.4107   -0.0130 C.ar      1 <0>        -0.1176
      4 C4          2.3960    0.0285   -0.0201 C.ar      1 <0>        -0.0730
      5 C5          1.2084   -0.6789   -0.0117 C.ar      1 <0>        -0.1174
      6 C6          0.0021   -0.0041    0.0020 C.ar      1 <0>        -0.1208
      7 C7          3.7112   -0.7071   -0.0376 C.3       1 <0>        -0.0765
      8 C8          4.1714   -0.9633    1.3989 C.3       1 <0>        -0.0161
      9 C9          5.4865   -1.6989    1.3815 C.2       1 <0>         0.0105
     10 C10         6.6612   -1.2962    2.0185 C.2       1 <0>        -0.2118
     11 C11         7.5942   -2.2781    1.7228 C.2       1 <0>        -0.0142
     12 N1          6.9469   -3.1963    0.9430 N.pl3     1 <0>        -0.3782
     13 N2          5.7274   -2.8315    0.7708 N.2       1 <0>        -0.3123
     14 H1          7.3465   -4.0017    0.5788 H         1 <0>         0.4422
     15 C12         8.9948   -2.3227    2.1583 C.2       1 <0>         0.5485
     16 O1          9.7111   -3.2561    1.8209 O.co2     1 <0>        -0.6890
     17 O2          9.4466   -1.4266    2.8590 O.co2     1 <0>        -0.6683
     18 H2         -0.9591    1.9053    0.0259 H         1 <0>         0.1171
     19 H3          1.1563    3.1654    0.0076 H         1 <0>         0.1190
     20 H4          3.3051    1.9634   -0.0196 H         1 <0>         0.1228
     21 H5          1.2231   -1.7588   -0.0176 H         1 <0>         0.1218
     22 H6         -0.9258   -0.5567    0.0082 H         1 <0>         0.1184
     23 H7          3.5884   -1.6586   -0.5549 H         1 <0>         0.0779
     24 H8          4.4573   -0.1052   -0.5563 H         1 <0>         0.0725
     25 H9          4.2941   -0.0118    1.9163 H         1 <0>         0.0769
     26 H10         3.4252   -1.5652    1.9176 H         1 <0>         0.0709
     27 H11         6.8115   -0.4083    2.6147 H         1 <0>         0.1482
@<TRIPOS>BOND
     1    1    6 ar
     2    1    2 ar
     3    1   18 1
     4    2    3 ar
     5    2   19 1
     6    3    4 ar
     7    3   20 1
     8    4    5 ar
     9    4    7 1
    10    5    6 ar
    11    5   21 1
    12    6   22 1
    13    7    8 1
    14    7   23 1
    15    7   24 1
    16    8    9 1
    17    8   25 1
    18    8   26 1
    19    9   10 1
    20    9   13 2
    21   10   27 1
    22   10   11 2
    23   11   15 1
    24   11   12 1
    25   12   14 1
    26   12   13 1
    27   15   16 2
    28   15   17 1
@<TRIPOS>MOLECULE
ZINC00039600
   20    20     0     0     0
SMALL
USER_CHARGES
5-propyl-2H-pyrazole-3-carboxylic acid
@<TRIPOS>ATOM
      1 C1         -1.8792    7.0025    1.2398 C.3       1 <0>        -0.1506
      2 C2         -1.0420    5.7220    1.2249 C.3       1 <0>        -0.1184
      3 C3         -1.4662    4.8490    0.0422 C.3       1 <0>        -0.0250
      4 C4         -0.6416    3.5878    0.0275 C.2       1 <0>         0.0106
      5 C5         -1.1366    2.2821    0.0191 C.2       1 <0>        -0.2120
      6 C6         -0.0179    1.4658    0.0101 C.2       1 <0>         0.0047
      7 N1          1.0637    2.3010    0.0043 N.pl3     1 <0>        -0.3766
      8 H1          2.0193    2.0065   -0.0063 H         1 <0>         0.4513
      9 N2          0.6655    3.5221    0.0146 N.2       1 <0>        -0.3074
     10 C7          0.0021   -0.0041    0.0020 C.2       1 <0>         0.5175
     11 O1         -1.0422   -0.6261    0.0082 O.co2     1 <0>        -0.6133
     12 H2         -2.9341    6.7458    1.3376 H         1 <0>         0.0527
     13 H3         -1.5770    7.6245    2.0824 H         1 <0>         0.0505
     14 H4         -1.7231    7.5496    0.3100 H         1 <0>         0.0523
     15 H5         -1.1981    5.1750    2.1547 H         1 <0>         0.0601
     16 H6          0.0128    5.9787    1.1270 H         1 <0>         0.0658
     17 H7         -1.3101    5.3961   -0.8876 H         1 <0>         0.0694
     18 H8         -2.5210    4.5923    0.1400 H         1 <0>         0.0751
     19 H9         -2.1718    1.9742    0.0213 H         1 <0>         0.1492
     20 O2          1.1786   -0.6622   -0.0122 O.co2     1 <0>        -0.7559
@<TRIPOS>BOND
     1    1    2 1
     2    1   12 1
     3    1   13 1
     4    1   14 1
     5    2    3 1
     6    2   15 1
     7    2   16 1
     8    3    4 1
     9    3   17 1
    10    3   18 1
    11    4    9 2
    12    4    5 1
    13    5    6 2
    14    5   19 1
    15    6    7 1
    16    6   10 1
    17    7    8 1
    18    7    9 1
    19   10   11 2
    20   10   20 1
@<TRIPOS>MOLECULE
ZINC19045017
   20    20     0     0     0
SMALL
USER_CHARGES

@<TRIPOS>ATOM
      1 C1         -0.0187    1.5258    0.0104 C.3       1 <0>        -0.1393
      2 C2          0.0021   -0.0041    0.0020 C.3       1 <0>        -0.0039
      3 C3          0.7182   -0.4975   -1.2568 C.3       1 <0>        -0.1412
      4 C4          0.7309   -0.5033    1.2229 C.2       1 <0>         0.0173
      5 C5          2.1121   -0.6610    1.3475 C.2       1 <0>        -0.2090
      6 C6          2.3123   -1.1403    2.6329 C.2       1 <0>        -0.0160
      7 N1          1.0715   -1.2427    3.1989 N.pl3     1 <0>        -0.3801
      8 H1          0.8919   -1.5522    4.1004 H         1 <0>         0.4416
      9 N2          0.1810   -0.8603    2.3559 N.2       1 <0>        -0.3166
     10 C7          3.5970   -1.4717    3.2597 C.2       1 <0>         0.5489
     11 O1          3.6271   -1.8884    4.4102 O.co2     1 <0>        -0.6896
     12 O2          4.6384   -1.3315    2.6321 O.co2     1 <0>        -0.6688
     13 H2          1.0039    1.9031    0.0027 H         1 <0>         0.0572
     14 H3         -0.5459    1.8868   -0.8726 H         1 <0>         0.0544
     15 H4         -0.5289    1.8773    0.9072 H         1 <0>         0.0528
     16 H5         -1.0205   -0.3814    0.0098 H         1 <0>         0.0751
     17 H6          1.7408   -0.1202   -1.2645 H         1 <0>         0.0604
     18 H7          0.7330   -1.5874   -1.2628 H         1 <0>         0.0551
     19 H8          0.1910   -0.1364   -2.1398 H         1 <0>         0.0546
     20 H9          2.8648   -0.4541    0.6012 H         1 <0>         0.1471
@<TRIPOS>BOND
     1    1    2 1
     2    1   13 1
     3    1   14 1
     4    1   15 1
     5    2    3 1
     6    2    4 1
     7    2   16 1
     8    3   17 1
     9    3   18 1
    10    3   19 1
    11    4    9 2
    12    4    5 1
    13    5    6 2
    14    5   20 1
    15    6    7 1
    16    6   10 1
    17    7    8 1
    18    7    9 1
    19   10   11 2
    20   10   12 1
@<TRIPOS>MOLECULE
ZINC13526594
   24    25     0     0     0
SMALL
USER_CHARGES

@<TRIPOS>ATOM
      1 C1         -0.0167    1.3781    0.0096 C.ar      1 <0>        -0.1307
      2 C2          1.1709    2.0855    0.0021 C.ar      1 <0>        -0.1240
      3 C3          2.3773    1.4107   -0.0130 C.ar      1 <0>        -0.1028
      4 C4          2.3960    0.0285   -0.0201 C.ar      1 <0>        -0.0654
      5 C5          1.2084   -0.6789   -0.0117 C.ar      1 <0>        -0.1132
      6 C6          0.0021   -0.0041    0.0020 C.ar      1 <0>        -0.1233
      7 C7          3.7112   -0.7071   -0.0376 C.3       1 <0>         0.0103
      8 C8          4.1644   -0.9594    1.3773 C.2       1 <0>         0.0143
      9 C9          4.4958   -2.1998    1.9246 C.2       1 <0>        -0.2108
     10 C10         4.8492   -1.9383    3.2394 C.2       1 <0>        -0.0142
     11 N1          4.7150   -0.5879    3.4086 N.pl3     1 <0>        -0.3775
     12 H1          4.8935   -0.1069    4.2318 H         1 <0>         0.4422
     13 N2          4.3224   -0.0532    2.3087 N.2       1 <0>        -0.3056
     14 C11         5.2800   -2.9142    4.2470 C.2       1 <0>         0.5486
     15 O1          5.5639   -2.5415    5.3778 O.co2     1 <0>        -0.6889
     16 O2          5.3553   -4.1009    3.9567 O.co2     1 <0>        -0.6685
     17 H2         -0.9591    1.9053    0.0259 H         1 <0>         0.1156
     18 H3          1.1563    3.1654    0.0076 H         1 <0>         0.1171
     19 H4          3.3051    1.9634   -0.0196 H         1 <0>         0.1208
     20 H5          1.2231   -1.7588   -0.0176 H         1 <0>         0.1217
     21 H6         -0.9258   -0.5567    0.0082 H         1 <0>         0.1177
     22 H7          3.5884   -1.6586   -0.5549 H         1 <0>         0.0872
     23 H8          4.4573   -0.1052   -0.5563 H         1 <0>         0.0807
     24 H9          4.4798   -3.1594    1.4293 H         1 <0>         0.1486
@<TRIPOS>BOND
     1    1    6 ar
     2    1    2 ar
     3    1   17 1
     4    2    3 ar
     5    2   18 1
     6    3    4 ar
     7    3   19 1
     8    4    5 ar
     9    4    7 1
    10    5    6 ar
    11    5   20 1
    12    6   21 1
    13    7    8 1
    14    7   22 1
    15    7   23 1
    16    8   13 2
    17    8    9 1
    18    9   10 2
    19    9   24 1
    20   10   11 1
    21   10   14 1
    22   11   12 1
    23   11   13 1
    24   14   15 2
    25   14   16 1
@<TRIPOS>MOLECULE
ZINC06529827
   21    22     0     0     0
SMALL
USER_CHARGES

@<TRIPOS>ATOM
      1 C1         -0.0187    1.5308    0.0105 C.3       1 <0>        -0.1170
      2 C2          1.4150    2.0658   -0.0004 C.3       1 <0>        -0.1135
      3 C3          2.0776    1.8095    1.3591 C.3       1 <0>        -0.0238
      4 C4          1.8833    0.3553    1.7111 C.2       1 <0>         0.0123
      5 C5          0.9374   -0.4653    1.0855 C.2       1 <0>        -0.1822
      6 C6          1.0674   -1.7023    1.6700 C.2       1 <0>        -0.0114
      7 N1          2.0639   -1.5728    2.6035 N.pl3     1 <0>        -0.3904
      8 H1          2.3842   -2.2831    3.1811 H         1 <0>         0.4416
      9 N2          2.5103   -0.3643    2.5961 N.2       1 <0>        -0.3092
     10 C7          0.2986   -2.9128    1.3590 C.2       1 <0>         0.5497
     11 O1          0.5233   -3.9528    1.9641 O.co2     1 <0>        -0.6910
     12 O2         -0.5673   -2.8826    0.4945 O.co2     1 <0>        -0.6643
     13 C8          0.0021   -0.0041    0.0020 C.3       1 <0>        -0.0296
     14 H2         -0.5300    1.8816    0.9069 H         1 <0>         0.0590
     15 H3         -0.5470    1.8912   -0.8722 H         1 <0>         0.0605
     16 H4          1.9839    1.5612   -0.7813 H         1 <0>         0.0630
     17 H5          1.4001    3.1373   -0.1997 H         1 <0>         0.0624
     18 H6          3.1424    2.0339    1.2974 H         1 <0>         0.0701
     19 H7          1.6123    2.4372    2.1192 H         1 <0>         0.0709
     20 H8         -1.0004   -0.3868    0.1937 H         1 <0>         0.0783
     21 H9          0.3545   -0.3620   -0.9653 H         1 <0>         0.0647
@<TRIPOS>BOND
     1    1   13 1
     2    1    2 1
     3    1   14 1
     4    1   15 1
     5    2    3 1
     6    2   16 1
     7    2   17 1
     8    3    4 1
     9    3   18 1
    10    3   19 1
    11    4    9 2
    12    4    5 1
    13    5    6 2
    14    5   13 1
    15    6    7 1
    16    6   10 1
    17    7    8 1
    18    7    9 1
    19   10   11 2
    20   10   12 1
    21   13   20 1
    22   13   21 1
@<TRIPOS>MOLECULE
ZINC13526597
   24    25     0     0     0
SMALL
USER_CHARGES

@<TRIPOS>ATOM
      1 C1         -0.0167    1.3782    0.0096 C.ar      1 <0>        -0.0902
      2 C2          1.1706    2.0858    0.0021 C.ar      1 <0>        -0.1125
      3 C3          2.3780    1.4104   -0.0130 C.ar      1 <0>        -0.0418
      4 C4          2.3961    0.0270   -0.0206 C.ar      1 <0>        -0.1119
      5 C5          1.2082   -0.6795   -0.0130 C.ar      1 <0>        -0.1003
      6 C6          0.0021   -0.0041    0.0020 C.ar      1 <0>        -0.0596
      7 C7         -1.2928   -0.7750    0.0107 C.3       1 <0>         0.0102
      8 C8         -1.7385   -1.0243   -1.4071 C.2       1 <0>         0.0119
      9 C9         -2.0308   -2.2678   -1.9694 C.2       1 <0>        -0.2099
     10 C10        -2.3929   -2.0017   -3.2809 C.2       1 <0>        -0.0130
     11 N1         -2.3013   -0.6457   -3.4337 N.pl3     1 <0>        -0.3764
     12 N2         -1.9254   -0.1123   -2.3274 N.2       1 <0>        -0.3056
     13 H1         -2.4944   -0.1608   -4.2513 H         1 <0>         0.4427
     14 C11        -2.7930   -2.9784   -4.3003 C.2       1 <0>         0.5483
     15 O1         -3.0890   -2.6012   -5.4264 O.co2     1 <0>        -0.6883
     16 O2         -2.8307   -4.1703   -4.0243 O.co2     1 <0>        -0.6681
     17 Cl1         3.8696    2.2984   -0.0231 Cl        1 <0>        -0.0827
     18 H2         -0.9592    1.9053    0.0259 H         1 <0>         0.1318
     19 H3          1.1558    3.1656    0.0076 H         1 <0>         0.1294
     20 H4          3.3383   -0.5007   -0.0327 H         1 <0>         0.1300
     21 H5          1.2222   -1.7594   -0.0193 H         1 <0>         0.1329
     22 H6         -1.1447   -1.7283    0.5180 H         1 <0>         0.0903
     23 H7         -2.0551   -0.1989    0.5352 H         1 <0>         0.0836
     24 H8         -1.9843   -3.2324   -1.4858 H         1 <0>         0.1492
@<TRIPOS>BOND
     1    1    6 ar
     2    1    2 ar
     3    1   18 1
     4    2    3 ar
     5    2   19 1
     6    3    4 ar
     7    3   17 1
     8    4    5 ar
     9    4   20 1
    10    5    6 ar
    11    5   21 1
    12    6    7 1
    13    7    8 1
    14    7   22 1
    15    7   23 1
    16    8    9 1
    17    8   12 2
    18    9   24 1
    19    9   10 2
    20   10   14 1
    21   10   11 1
    22   11   13 1
    23   11   12 1
    24   14   15 2
    25   14   16 1
@<TRIPOS>MOLECULE
ZINC13526606
   24    25     0     0     0
SMALL
USER_CHARGES

@<TRIPOS>ATOM
      1 C1         -0.0167    1.3777    0.0096 C.ar      1 <0>        -0.1099
      2 C2          1.1710    2.0855    0.0021 C.ar      1 <0>        -0.0978
      3 C3          2.3777    1.4116   -0.0130 C.ar      1 <0>        -0.0524
      4 C4          2.3977    0.0294   -0.0210 C.ar      1 <0>        -0.1036
      5 C5          1.2098   -0.6793   -0.0135 C.ar      1 <0>        -0.0342
      6 C6          0.0021   -0.0041    0.0020 C.ar      1 <0>        -0.1203
      7 Cl1         1.2341   -2.4151   -0.0242 Cl        1 <0>        -0.0787
      8 C7          3.6718    2.1839   -0.0212 C.3       1 <0>         0.0113
      9 C8          4.1167    2.4337    1.3968 C.2       1 <0>         0.0116
     10 C9          5.3568    2.0949    1.9401 C.2       1 <0>        -0.2093
     11 C10         5.3067    2.5160    3.2600 C.2       1 <0>        -0.0130
     12 N1          4.0696    3.0719    3.4358 N.pl3     1 <0>        -0.3763
     13 H1          3.7420    3.4570    4.2636 H         1 <0>         0.4426
     14 N2          3.4104    3.0120    2.3351 N.2       1 <0>        -0.3055
     15 C11         6.3672    2.3899    4.2662 C.2       1 <0>         0.5484
     16 O1          6.1861    2.8084    5.4021 O.co2     1 <0>        -0.6885
     17 O2          7.4330    1.8661    3.9697 O.co2     1 <0>        -0.6679
     18 H2         -0.9592    1.9048    0.0259 H         1 <0>         0.1286
     19 H3          1.1559    3.1654    0.0076 H         1 <0>         0.1288
     20 H4          3.3407   -0.4970   -0.0336 H         1 <0>         0.1335
     21 H5         -0.9257   -0.5568    0.0079 H         1 <0>         0.1280
     22 H6          4.4349    1.6086   -0.5454 H         1 <0>         0.0903
     23 H7          3.5229    3.1370   -0.5286 H         1 <0>         0.0850
     24 H8          6.1803    1.6078    1.4390 H         1 <0>         0.1493
@<TRIPOS>BOND
     1    1    6 ar
     2    1    2 ar
     3    1   18 1
     4    2    3 ar
     5    2   19 1
     6    3    4 ar
     7    3    8 1
     8    4    5 ar
     9    4   20 1
    10    5    6 ar
    11    5    7 1
    12    6   21 1
    13    8    9 1
    14    8   22 1
    15    8   23 1
    16    9   14 2
    17    9   10 1
    18   10   11 2
    19   10   24 1
    20   11   12 1
    21   11   15 1
    22   12   13 1
    23   12   14 1
    24   15   16 2
    25   15   17 1
@<TRIPOS>MOLECULE
ZINC04386887
   23    23     0     0     0
SMALL
USER_CHARGES
5-butyl-2H-pyrazole-3-carboxylic acid
@<TRIPOS>ATOM
      1 C1         -1.4550    7.8755    2.4225 C.3       1 <0>        -0.1519
      2 C2         -1.8792    7.0025    1.2398 C.3       1 <0>        -0.1246
      3 C3         -1.0420    5.7220    1.2249 C.3       1 <0>        -0.1133
      4 C4         -1.4662    4.8490    0.0422 C.3       1 <0>        -0.0250
      5 C5         -0.6416    3.5878    0.0275 C.2       1 <0>         0.0111
      6 C6         -1.1366    2.2821    0.0191 C.2       1 <0>        -0.2121
      7 C7         -0.0179    1.4658    0.0101 C.2       1 <0>         0.0050
      8 N1          1.0637    2.3010    0.0043 N.pl3     1 <0>        -0.3768
      9 H1          2.0193    2.0065   -0.0063 H         1 <0>         0.4512
     10 N2          0.6655    3.5221    0.0146 N.2       1 <0>        -0.3071
     11 C8          0.0021   -0.0041    0.0020 C.2       1 <0>         0.5174
     12 O1         -1.0422   -0.6261    0.0082 O.co2     1 <0>        -0.6134
     13 H2         -2.0515    8.7878    2.4331 H         1 <0>         0.0498
     14 H3         -1.6111    7.3285    3.3523 H         1 <0>         0.0526
     15 H4         -0.4002    8.1322    2.3247 H         1 <0>         0.0525
     16 H5         -1.7231    7.5496    0.3100 H         1 <0>         0.0599
     17 H6         -2.9341    6.7458    1.3376 H         1 <0>         0.0603
     18 H7         -1.1981    5.1750    2.1547 H         1 <0>         0.0604
     19 H8          0.0128    5.9787    1.1270 H         1 <0>         0.0664
     20 H9         -1.3101    5.3961   -0.8876 H         1 <0>         0.0694
     21 H10        -2.5210    4.5923    0.1400 H         1 <0>         0.0750
     22 H11        -2.1718    1.9742    0.0213 H         1 <0>         0.1491
     23 O2          1.1786   -0.6622   -0.0122 O.co2     1 <0>        -0.7559
@<TRIPOS>BOND
     1    1    2 1
     2    1   13 1
     3    1   14 1
     4    1   15 1
     5    2    3 1
     6    2   16 1
     7    2   17 1
     8    3    4 1
     9    3   18 1
    10    3   19 1
    11    4    5 1
    12    4   20 1
    13    4   21 1
    14    5   10 2
    15    5    6 1
    16    6    7 2
    17    6   22 1
    18    7    8 1
    19    7   11 1
    20    8    9 1
    21    8   10 1
    22   11   12 2
    23   11   23 1
@<TRIPOS>MOLECULE
ZINC00001795
   13    13     0     0     0
SMALL
USER_CHARGES

@<TRIPOS>ATOM
      1 C1         -0.0167    1.3791    0.0096 C.ar      1 <0>        -0.1926
      2 C2          1.1803    2.0730    0.0019 C.ar      1 <0>        -0.0479
      3 C3          2.3734    1.3382   -0.0134 C.ar      1 <0>        -0.1831
      4 C4          2.3058   -0.0572   -0.0203 C.ar      1 <0>         0.1236
      5 N1          1.1411   -0.6705   -0.0129 N.ar      1 <0>        -0.5027
      6 C5          0.0021   -0.0041    0.0020 C.ar      1 <0>         0.0785
      7 C6          3.6785    2.0263   -0.0227 C.2       1 <0>         0.5243
      8 O1          3.7254    3.2483   -0.0170 O.co2     1 <0>        -0.6845
      9 O2          4.7132    1.3746   -0.0360 O.co2     1 <0>        -0.6822
     10 H1         -0.9560    1.9119    0.0259 H         1 <0>         0.1254
     11 H2          1.1948    3.1529    0.0072 H         1 <0>         0.1357
     12 H3          3.2166   -0.6374   -0.0321 H         1 <0>         0.1607
     13 H4         -0.9311   -0.5477    0.0080 H         1 <0>         0.1448
@<TRIPOS>BOND
     1    1    6 ar
     2    1    2 ar
     3    1   10 1
     4    2    3 ar
     5    2   11 1
     6    3    4 ar
     7    3    7 1
     8    4    5 ar
     9    4   12 1
    10    5    6 ar
    11    6   13 1
    12    7    8 2
    13    7    9 1
