@<TRIPOS>MOLECULE
ZINC12502280
   47    47     0     0     0
SMALL
USER_CHARGES

@<TRIPOS>ATOM
      1 C1         -0.0178    1.4608    0.0101 C.3       1 <0>         0.0875
      2 N1          0.0021   -0.0041    0.0020 N.pl3     1 <0>        -0.6298
      3 C2          0.0241   -0.7433    1.2666 C.3       1 <0>         0.0868
      4 C3          0.0000   -0.6928   -1.2059 C.ar      1 <0>         0.2420
      5 C4          0.0132   -2.0849   -1.2118 C.ar      1 <0>        -0.2094
      6 C5          0.0112   -2.7693   -2.4056 C.ar      1 <0>        -0.0062
      7 C6         -0.0041   -2.0653   -3.6133 C.ar      1 <0>        -0.2028
      8 C7         -0.0173   -0.6674   -3.6040 C.ar      1 <0>        -0.0337
      9 C8         -0.0210    0.0112   -2.4068 C.ar      1 <0>        -0.2095
     10 C9         -0.0058   -2.7960   -4.8948 C.2       1 <0>         0.5639
     11 O1          0.0061   -4.0119   -4.9015 O.2       1 <0>        -0.5440
     12 N2         -0.0205   -2.1158   -6.0583 N.am      1 <0>        -0.7322
     13 C10        -0.0222   -2.8414   -7.3310 C.3       1 <0>         0.1179
     14 C11        -0.0401   -1.8410   -8.4884 C.3       1 <0>        -0.1311
     15 C12        -0.0418   -2.5988   -9.8176 C.3       1 <0>        -0.1181
     16 C13        -0.0597   -1.5983  -10.9750 C.3       1 <0>        -0.1181
     17 C14        -0.0614   -2.3561  -12.3041 C.3       1 <0>        -0.1075
     18 C15        -0.0793   -1.3557  -13.4616 C.3       1 <0>        -0.1263
     19 C16        -0.0810   -2.1021  -14.7708 C.2       1 <0>         0.5205
     20 O2         -0.0692   -3.3148  -14.7774 O.2       1 <0>        -0.5182
     21 N3         -0.0957   -1.4220  -15.9342 N.am      1 <0>        -0.6003
     22 O3         -0.0974   -2.1233  -17.1643 O.3       1 <0>        -0.3205
     23 H1          1.0048    1.8381    0.0023 H         1 <0>         0.0528
     24 H2         -0.5450    1.8219   -0.8730 H         1 <0>         0.0718
     25 H3         -0.5280    1.8123    0.9069 H         1 <0>         0.0701
     26 H4         -0.9979   -0.9406    1.5900 H         1 <0>         0.0533
     27 H5          0.5496   -1.6879    1.1262 H         1 <0>         0.0727
     28 H6          0.5371   -0.1514    2.0246 H         1 <0>         0.0702
     29 H7          0.0253   -2.6282   -0.2785 H         1 <0>         0.1298
     30 H8          0.0217   -3.8493   -2.4096 H         1 <0>         0.1352
     31 H9         -0.0287   -0.1208   -4.5353 H         1 <0>         0.1233
     32 H10        -0.0359    1.0910   -2.3989 H         1 <0>         0.1287
     33 H11        -0.0300   -1.1459   -6.0530 H         1 <0>         0.3981
     34 H12         0.8734   -3.4590   -7.3983 H         1 <0>         0.0684
     35 H13        -0.9064   -3.4765   -7.3860 H         1 <0>         0.0684
     36 H14        -0.9357   -1.2234   -8.4211 H         1 <0>         0.0693
     37 H15         0.8441   -1.2060   -8.4334 H         1 <0>         0.0693
     38 H16         0.8538   -3.2164   -9.8849 H         1 <0>         0.0684
     39 H17        -0.9260   -3.2338   -9.8726 H         1 <0>         0.0683
     40 H18        -0.9553   -0.9808  -10.9077 H         1 <0>         0.0648
     41 H19         0.8245   -0.9633  -10.9200 H         1 <0>         0.0648
     42 H20         0.8342   -2.9737  -12.3715 H         1 <0>         0.0738
     43 H21        -0.9456   -2.9912  -12.3591 H         1 <0>         0.0738
     44 H22        -0.9749   -0.7381  -13.3943 H         1 <0>         0.0991
     45 H23         0.8049   -0.7207  -13.4066 H         1 <0>         0.0991
     46 H24        -0.1052   -0.4520  -15.9289 H         1 <0>         0.4079
     47 H25        -0.1084   -1.5507  -17.9435 H         1 <0>         0.3876
@<TRIPOS>BOND
     1    1    2 1
     2    1   23 1
     3    1   24 1
     4    1   25 1
     5    2    3 1
     6    2    4 1
     7    3   26 1
     8    3   27 1
     9    3   28 1
    10    4    9 ar
    11    4    5 ar
    12    5    6 ar
    13    5   29 1
    14    6    7 ar
    15    6   30 1
    16    7    8 ar
    17    7   10 1
    18    8    9 ar
    19    8   31 1
    20    9   32 1
    21   10   11 2
    22   10   12 am
    23   12   13 1
    24   12   33 1
    25   13   14 1
    26   13   34 1
    27   13   35 1
    28   14   15 1
    29   14   36 1
    30   14   37 1
    31   15   16 1
    32   15   38 1
    33   15   39 1
    34   16   17 1
    35   16   40 1
    36   16   41 1
    37   17   18 1
    38   17   42 1
    39   17   43 1
    40   18   19 1
    41   18   44 1
    42   18   45 1
    43   19   20 2
    44   19   21 am
    45   21   22 1
    46   21   46 1
    47   22   47 1
@<TRIPOS>MOLECULE
ZINC04698480
   36    37     0     0     0
SMALL
USER_CHARGES
6-(1,3-dioxoisoindolin-2-yl)hexanehydroxamic acid
@<TRIPOS>ATOM
      1 C1          0.0686   -4.5872    0.6679 C.ar      1 <0>        -0.0946
      2 C2          0.0549   -4.5798   -0.7143 C.ar      1 <0>        -0.0946
      3 C3          0.0324   -3.3813   -1.4103 C.ar      1 <0>        -0.0441
      4 C4          0.0235   -2.1830   -0.7147 C.ar      1 <0>        -0.1421
      5 C5          0.0375   -2.1906    0.6947 C.ar      1 <0>        -0.1421
      6 C6          0.0600   -3.3963    1.3771 C.ar      1 <0>        -0.0441
      7 C7          0.0230   -0.7711    1.1069 C.2       1 <0>         0.5747
      8 O1          0.0289   -0.3653    2.2516 O.2       1 <0>        -0.4596
      9 N1          0.0021   -0.0041    0.0020 N.am      1 <0>        -0.5768
     10 C8         -0.0040   -0.7593   -1.1112 C.2       1 <0>         0.5747
     11 O2         -0.0260   -0.3413   -2.2513 O.2       1 <0>        -0.4596
     12 C9         -0.0178    1.4608    0.0101 C.3       1 <0>         0.1103
     13 C10         1.4176    1.9904   -0.0008 C.3       1 <0>        -0.1378
     14 C11         1.3968    3.5202    0.0076 C.3       1 <0>        -0.1149
     15 C12         2.8322    4.0498   -0.0032 C.3       1 <0>        -0.1058
     16 C13         2.8115    5.5796    0.0052 C.3       1 <0>        -0.1263
     17 C14         4.2253    6.1012   -0.0055 C.2       1 <0>         0.5210
     18 O3          5.1577    5.3257   -0.0186 O.2       1 <0>        -0.5186
     19 N2          4.4536    7.4295   -0.0006 N.am      1 <0>        -0.6000
     20 O4          5.7820    7.9196   -0.0106 O.3       1 <0>        -0.3204
     21 H1          0.0858   -5.5275    1.1990 H         1 <0>         0.1439
     22 H2          0.0614   -5.5143   -1.2556 H         1 <0>         0.1439
     23 H3          0.0214   -3.3816   -2.4903 H         1 <0>         0.1432
     24 H4          0.0711   -3.4081    2.4570 H         1 <0>         0.1432
     25 H5         -0.5450    1.8219   -0.8730 H         1 <0>         0.0981
     26 H6         -0.5280    1.8123    0.9069 H         1 <0>         0.0980
     27 H7          1.9448    1.6293    0.8823 H         1 <0>         0.0723
     28 H8          1.9278    1.6388   -0.8976 H         1 <0>         0.0722
     29 H9          0.8697    3.8813   -0.8754 H         1 <0>         0.0701
     30 H10         0.8867    3.8717    0.9044 H         1 <0>         0.0701
     31 H11         3.3594    3.6887    0.8798 H         1 <0>         0.0744
     32 H12         3.3424    3.6983   -0.9000 H         1 <0>         0.0744
     33 H13         2.2843    5.9407   -0.8779 H         1 <0>         0.1005
     34 H14         2.3013    5.9311    0.9020 H         1 <0>         0.1005
     35 H15         3.7078    8.0497    0.0099 H         1 <0>         0.4082
     36 H16         5.8453    8.8846   -0.0060 H         1 <0>         0.3878
@<TRIPOS>BOND
     1    1    6 ar
     2    1    2 ar
     3    1   21 1
     4    2    3 ar
     5    2   22 1
     6    3    4 ar
     7    3   23 1
     8    4   10 1
     9    4    5 ar
    10    5    6 ar
    11    5    7 1
    12    6   24 1
    13    7    8 2
    14    7    9 am
    15    9   10 am
    16    9   12 1
    17   10   11 2
    18   12   13 1
    19   12   25 1
    20   12   26 1
    21   13   14 1
    22   13   27 1
    23   13   28 1
    24   14   15 1
    25   14   29 1
    26   14   30 1
    27   15   16 1
    28   15   31 1
    29   15   32 1
    30   16   17 1
    31   16   33 1
    32   16   34 1
    33   17   18 2
    34   17   19 am
    35   19   20 1
    36   19   35 1
    37   20   36 1
@<TRIPOS>MOLECULE
ZINC13679864
   29    29     0     0     0
SMALL
USER_CHARGES
(2E,4E)-6-(4-chlorophenyl)sulfanylhexa-2,4-dienehydroxamic acid
@<TRIPOS>ATOM
      1 C1          0.0021   -0.0041    0.0020 C.ar      1 <0>        -0.0874
      2 C2         -0.0167    1.3766    0.0096 C.ar      1 <0>        -0.0891
      3 C3          1.1715    2.0863    0.0021 C.ar      1 <0>        -0.0410
      4 C4          2.3817    1.4149   -0.0132 C.ar      1 <0>        -0.0890
      5 C5          2.4069    0.0343   -0.0208 C.ar      1 <0>        -0.1233
      6 C6          1.2156   -0.6810   -0.0133 C.ar      1 <0>        -0.0835
      7 S1          1.2436   -2.4427   -0.0224 S.3       1 <0>        -0.0927
      8 C7          3.0104   -2.8534   -0.0417 C.3       1 <0>        -0.0872
      9 C8          3.1779   -4.3510   -0.0509 C.2       1 <0>        -0.1040
     10 C9          3.7270   -4.9544   -1.1065 C.2       1 <0>        -0.1214
     11 C10         3.8897   -6.4087   -1.1154 C.2       1 <0>        -0.0212
     12 C11         4.4462   -7.0200   -2.1849 C.2       1 <0>        -0.2008
     13 C12         4.6087   -8.4735   -2.1938 C.2       1 <0>         0.5581
     14 O1          4.2430   -9.1327   -1.2382 O.2       1 <0>        -0.5245
     15 N1          5.1635   -9.0830   -3.2602 N.am      1 <0>        -0.5933
     16 O2          5.3209  -10.4902   -3.2689 O.3       1 <0>        -0.3159
     17 Cl1         1.1439    3.8220    0.0111 Cl        1 <0>        -0.0645
     18 H1         -0.9254   -0.5573    0.0083 H         1 <0>         0.1389
     19 H2         -0.9595    1.9033    0.0169 H         1 <0>         0.1407
     20 H3          3.3072    1.9714   -0.0187 H         1 <0>         0.1379
     21 H4          3.3515   -0.4890   -0.0323 H         1 <0>         0.1323
     22 H5          3.4719   -2.4307   -0.9341 H         1 <0>         0.0973
     23 H6          3.4893   -2.4397    0.8457 H         1 <0>         0.1054
     24 H7          2.8534   -4.9359    0.7970 H         1 <0>         0.1312
     25 H8          4.0515   -4.3695   -1.9544 H         1 <0>         0.1265
     26 H9          3.5652   -6.9936   -0.2674 H         1 <0>         0.1362
     27 H10         4.7706   -6.4351   -3.0329 H         1 <0>         0.1352
     28 H11         5.4550   -8.5577   -4.0218 H         1 <0>         0.4100
     29 H12         5.7278  -10.8355   -4.0753 H         1 <0>         0.3892
@<TRIPOS>BOND
     1    1    6 ar
     2    1    2 ar
     3    1   18 1
     4    2    3 ar
     5    2   19 1
     6    3    4 ar
     7    3   17 1
     8    4    5 ar
     9    4   20 1
    10    5    6 ar
    11    5   21 1
    12    6    7 1
    13    7    8 1
    14    8    9 1
    15    8   22 1
    16    8   23 1
    17    9   10 2
    18    9   24 1
    19   10   11 1
    20   10   25 1
    21   11   12 2
    22   11   26 1
    23   12   13 1
    24   12   27 1
    25   13   14 2
    26   13   15 am
    27   15   16 1
    28   15   28 1
    29   16   29 1
@<TRIPOS>MOLECULE
ZINC03873635
   30    29     0     0     0
SMALL
USER_CHARGES
octanedihydroxamic acid
@<TRIPOS>ATOM
      1 C1         -4.9634    0.6713    0.0292 C.3       1 <0>        -0.1203
      2 C2         -3.8141    1.6813    0.0293 C.3       1 <0>        -0.1203
      3 C3         -2.4789    0.9344    0.0189 C.3       1 <0>        -0.1061
      4 C4         -1.3296    1.9443    0.0189 C.3       1 <0>        -0.1272
      5 C5         -0.0144    1.2086    0.0087 C.2       1 <0>         0.5212
      6 O1          0.0021   -0.0041    0.0020 O.2       1 <0>        -0.5197
      7 N1          1.1435    1.8983    0.0013 N.am      1 <0>        -0.6002
      8 O2          2.3793    1.2071   -0.0142 O.3       1 <0>        -0.3209
      9 C6         -6.2987    1.4182    0.0396 C.3       1 <0>        -0.1061
     10 C7         -7.4480    0.4083    0.0396 C.3       1 <0>        -0.1273
     11 C8         -8.7632    1.1440    0.0498 C.2       1 <0>         0.5212
     12 O3         -8.7797    2.3567    0.0565 O.2       1 <0>        -0.5197
     13 N2         -9.9211    0.4543    0.0516 N.am      1 <0>        -0.6002
     14 O4        -11.1569    1.1456    0.0612 O.3       1 <0>        -0.3209
     15 H1         -4.9014    0.0504   -0.8644 H         1 <0>         0.0660
     16 H2         -4.8930    0.0407    0.9155 H         1 <0>         0.0660
     17 H3         -3.8761    2.3022    0.9230 H         1 <0>         0.0660
     18 H4         -3.8846    2.3119   -0.8570 H         1 <0>         0.0660
     19 H5         -2.4169    0.3134   -0.8748 H         1 <0>         0.0730
     20 H6         -2.4084    0.3037    0.9051 H         1 <0>         0.0730
     21 H7         -1.3916    2.5653    0.9126 H         1 <0>         0.0996
     22 H8         -1.4000    2.5749   -0.8673 H         1 <0>         0.0997
     23 H9          1.1304    2.8682    0.0067 H         1 <0>         0.4083
     24 H10         3.1538    1.7861   -0.0185 H         1 <0>         0.3877
     25 H11        -6.3607    2.0392    0.9333 H         1 <0>         0.0730
     26 H12        -6.3692    2.0489   -0.8466 H         1 <0>         0.0730
     27 H13        -7.3860   -0.2127   -0.8541 H         1 <0>         0.0996
     28 H14        -7.3776   -0.2223    0.9258 H         1 <0>         0.0996
     29 H15        -9.9080   -0.5156    0.0462 H         1 <0>         0.4083
     30 H16       -11.9314    0.5666    0.0617 H         1 <0>         0.3877
@<TRIPOS>BOND
     1    1    2 1
     2    1    9 1
     3    1   15 1
     4    1   16 1
     5    2    3 1
     6    2   17 1
     7    2   18 1
     8    3    4 1
     9    3   19 1
    10    3   20 1
    11    4    5 1
    12    4   21 1
    13    4   22 1
    14    5    6 2
    15    5    7 am
    16    7    8 1
    17    7   23 1
    18    8   24 1
    19    9   10 1
    20    9   25 1
    21    9   26 1
    22   10   11 1
    23   10   27 1
    24   10   28 1
    25   11   12 2
    26   11   13 am
    27   13   14 1
    28   13   29 1
    29   14   30 1
@<TRIPOS>MOLECULE
ZINC13679847
   29    29     0     0     0
SMALL
USER_CHARGES
(2E,4E)-6-phenylsulfanylhexa-2,4-dienehydroxamic acid
@<TRIPOS>ATOM
      1 C1         -0.0167    1.3788    0.0096 C.ar      1 <0>        -0.1242
      2 C2          1.1695    2.0899    0.0021 C.ar      1 <0>        -0.1001
      3 C3          2.3774    1.4209   -0.0131 C.ar      1 <0>        -0.1352
      4 C4          2.4001    0.0314   -0.0208 C.ar      1 <0>        -0.0859
      5 C5          1.2062   -0.6798   -0.0132 C.ar      1 <0>        -0.1001
      6 C6          0.0021   -0.0041    0.0020 C.ar      1 <0>        -0.0997
      7 S1          3.9390   -0.8266   -0.0396 S.3       1 <0>        -0.1056
      8 C7          5.1794    0.4971   -0.0445 C.3       1 <0>        -0.0847
      9 C8          6.5595   -0.1079   -0.0605 C.2       1 <0>        -0.1016
     10 C9          7.3566    0.0768   -1.1142 C.2       1 <0>        -0.1241
     11 C10         8.6968   -0.5106   -1.1298 C.2       1 <0>        -0.0197
     12 C11         9.5045   -0.3235   -2.1975 C.2       1 <0>        -0.2025
     13 C12        10.8440   -0.9106   -2.2130 C.2       1 <0>         0.5583
     14 O1         11.2315   -1.5678   -1.2646 O.2       1 <0>        -0.5248
     15 N1         11.6493   -0.7240   -3.2775 N.am      1 <0>        -0.5934
     16 O2         12.9461   -1.2925   -3.2926 O.3       1 <0>        -0.3161
     17 H1         -0.9600    1.9047    0.0170 H         1 <0>         0.1262
     18 H2          1.1511    3.1697    0.0081 H         1 <0>         0.1264
     19 H3          3.3033    1.9769   -0.0186 H         1 <0>         0.1224
     20 H4          1.2201   -1.7597   -0.0194 H         1 <0>         0.1285
     21 H5         -0.9262   -0.5561    0.0076 H         1 <0>         0.1294
     22 H6          5.0446    1.1180   -0.9302 H         1 <0>         0.0958
     23 H7          5.0613    1.1090    0.8497 H         1 <0>         0.1039
     24 H8          6.9033   -0.6910    0.7810 H         1 <0>         0.1307
     25 H9          7.0128    0.6599   -1.9558 H         1 <0>         0.1262
     26 H10         9.0407   -1.0937   -0.2882 H         1 <0>         0.1360
     27 H11         9.1607    0.2596   -3.0390 H         1 <0>         0.1349
     28 H12        11.3405   -0.2004   -4.0334 H         1 <0>         0.4099
     29 H13        13.4486   -1.1044   -4.0970 H         1 <0>         0.3890
@<TRIPOS>BOND
     1    1    6 ar
     2    1    2 ar
     3    1   17 1
     4    2    3 ar
     5    2   18 1
     6    3    4 ar
     7    3   19 1
     8    4    5 ar
     9    4    7 1
    10    5    6 ar
    11    5   20 1
    12    6   21 1
    13    7    8 1
    14    8    9 1
    15    8   22 1
    16    8   23 1
    17    9   10 2
    18    9   24 1
    19   10   11 1
    20   10   25 1
    21   11   12 2
    22   11   26 1
    23   12   13 1
    24   12   27 1
    25   13   14 2
    26   13   15 am
    27   15   16 1
    28   15   28 1
    29   16   29 1
@<TRIPOS>MOLECULE
ZINC03872981
   44    44     0     0     0
SMALL
USER_CHARGES
4-dimethylamino-N-[5-(hydroxycarbamoyl)pentyl]benzamide
@<TRIPOS>ATOM
      1 C1         -0.1238    4.1881    0.0257 C.3       1 <0>         0.0899
      2 N1          1.1564    3.4760    0.0097 N.pl3     1 <0>        -0.6298
      3 C2          2.4132    4.2287    0.0017 C.3       1 <0>         0.0871
      4 C3          1.1786    2.0858    0.0020 C.ar      1 <0>         0.2414
      5 C4         -0.0166    1.3719    0.0096 C.ar      1 <0>        -0.2068
      6 C5          0.0021   -0.0041    0.0020 C.ar      1 <0>        -0.0067
      7 C6          1.2229   -0.6850   -0.0133 C.ar      1 <0>        -0.2027
      8 C7          2.4213    0.0347   -0.0208 C.ar      1 <0>        -0.0342
      9 C8          2.3960    1.4105   -0.0132 C.ar      1 <0>        -0.2085
     10 C9          1.2464   -2.1600   -0.0209 C.2       1 <0>         0.5647
     11 O1          0.2033   -2.7848   -0.0139 O.2       1 <0>        -0.5452
     12 N2          2.4242   -2.8151   -0.0357 N.am      1 <0>        -0.7322
     13 C10         2.4476   -4.2799   -0.0433 C.3       1 <0>         0.1192
     14 C11         3.8980   -4.7667   -0.0598 C.3       1 <0>        -0.1326
     15 C12         3.9224   -6.2965   -0.0678 C.3       1 <0>        -0.1164
     16 C13         5.3728   -6.7833   -0.0843 C.3       1 <0>        -0.1054
     17 C14         5.3973   -8.3131   -0.0922 C.3       1 <0>        -0.1272
     18 C15         6.8259   -8.7926   -0.1085 C.2       1 <0>         0.5213
     19 O2          7.7349   -7.9898   -0.1133 O.2       1 <0>        -0.5195
     20 N3          7.0933  -10.1135   -0.1178 N.am      1 <0>        -0.6000
     21 O3          8.4356  -10.5641   -0.1331 O.3       1 <0>        -0.3207
     22 H1         -0.6826    3.9109    0.9196 H         1 <0>         0.0584
     23 H2          0.0582    5.2628    0.0297 H         1 <0>         0.0762
     24 H3         -0.6996    3.9204   -0.8603 H         1 <0>         0.0585
     25 H4          2.7151    4.4209   -1.0279 H         1 <0>         0.0527
     26 H5          2.2726    5.1762    0.5220 H         1 <0>         0.0702
     27 H6          3.1870    3.6492    0.5051 H         1 <0>         0.0717
     28 H7         -0.9594    1.8985    0.0169 H         1 <0>         0.1282
     29 H8         -0.9254   -0.5573    0.0082 H         1 <0>         0.1349
     30 H9          3.3660   -0.4885   -0.0323 H         1 <0>         0.1236
     31 H10         3.3215    1.9671   -0.0194 H         1 <0>         0.1288
     32 H11         3.2564   -2.3167   -0.0412 H         1 <0>         0.3990
     33 H12         1.9483   -4.6559    0.8497 H         1 <0>         0.0682
     34 H13         1.9310   -4.6469   -0.9301 H         1 <0>         0.0682
     35 H14         4.3973   -4.3907   -0.9528 H         1 <0>         0.0715
     36 H15         4.4146   -4.3997    0.8270 H         1 <0>         0.0715
     37 H16         3.4231   -6.6725    0.8252 H         1 <0>         0.0689
     38 H17         3.4059   -6.6635   -0.9546 H         1 <0>         0.0689
     39 H18         5.8721   -6.4073   -0.9773 H         1 <0>         0.0740
     40 H19         5.8894   -6.4163    0.8026 H         1 <0>         0.0740
     41 H20         4.8980   -8.6891    0.8007 H         1 <0>         0.1002
     42 H21         4.8807   -8.6801   -0.9791 H         1 <0>         0.1002
     43 H22         6.3662  -10.7556   -0.1140 H         1 <0>         0.4084
     44 H23         8.5273  -11.5267   -0.1388 H         1 <0>         0.3879
@<TRIPOS>BOND
     1    1    2 1
     2    1   22 1
     3    1   23 1
     4    1   24 1
     5    2    3 1
     6    2    4 1
     7    3   25 1
     8    3   26 1
     9    3   27 1
    10    4    9 ar
    11    4    5 ar
    12    5    6 ar
    13    5   28 1
    14    6    7 ar
    15    6   29 1
    16    7    8 ar
    17    7   10 1
    18    8    9 ar
    19    8   30 1
    20    9   31 1
    21   10   11 2
    22   10   12 am
    23   12   13 1
    24   12   32 1
    25   13   14 1
    26   13   33 1
    27   13   34 1
    28   14   15 1
    29   14   35 1
    30   14   36 1
    31   15   16 1
    32   15   37 1
    33   15   38 1
    34   16   17 1
    35   16   39 1
    36   16   40 1
    37   17   18 1
    38   17   41 1
    39   17   42 1
    40   18   19 2
    41   18   20 am
    42   20   21 1
    43   20   43 1
    44   21   44 1
@<TRIPOS>MOLECULE
ZINC01543873
   39    39     0     0     0
SMALL
USER_CHARGES

@<TRIPOS>ATOM
      1 C1         -0.0153    1.3806    0.0293 C.ar      1 <0>        -0.1357
      2 C2          0.1395    0.2185    0.7628 C.ar      1 <0>        -0.1006
      3 C3          1.3439   -0.4572    0.7427 C.ar      1 <0>        -0.1222
      4 C4          2.3999    0.0313   -0.0154 C.ar      1 <0>         0.1441
      5 C5          2.2411    1.1983   -0.7512 C.ar      1 <0>        -0.1477
      6 C6          1.0343    1.8696   -0.7267 C.ar      1 <0>        -0.1005
      7 N1          3.6215   -0.6506   -0.0375 N.am      1 <0>        -0.6779
      8 C7          3.6447   -1.9949    0.0568 C.2       1 <0>         0.5113
      9 O1          2.6055   -2.6203    0.0643 O.2       1 <0>        -0.5177
     10 C8          4.9618   -2.7209    0.1528 C.3       1 <0>        -0.1403
     11 C9          4.7083   -4.2267    0.2488 C.3       1 <0>        -0.1053
     12 C10         6.0454   -4.9638    0.3463 C.3       1 <0>        -0.1207
     13 C11         5.7919   -6.4696    0.4422 C.3       1 <0>        -0.1198
     14 C12         7.1291   -7.2067    0.5397 C.3       1 <0>        -0.1062
     15 C13         6.8756   -8.7125    0.6357 C.3       1 <0>        -0.1272
     16 C14         8.1927   -9.4386    0.7317 C.2       1 <0>         0.5212
     17 O2          9.2318   -8.8132    0.7242 O.2       1 <0>        -0.5195
     18 N2          8.2158  -10.7828    0.8260 N.am      1 <0>        -0.6001
     19 O3          9.4534  -11.4650    0.9162 O.3       1 <0>        -0.3208
     20 H1         -0.9594    1.9049    0.0433 H         1 <0>         0.1238
     21 H2         -0.6821   -0.1608    1.3522 H         1 <0>         0.1259
     22 H3          1.4644   -1.3643    1.3164 H         1 <0>         0.1332
     23 H4          3.0605    1.5809   -1.3416 H         1 <0>         0.1249
     24 H5          0.9101    2.7772   -1.2987 H         1 <0>         0.1265
     25 H6          4.4517   -0.1559   -0.1206 H         1 <0>         0.4115
     26 H7          5.5591   -2.5088   -0.7339 H         1 <0>         0.0972
     27 H8          5.4977   -2.3854    1.0407 H         1 <0>         0.0984
     28 H9          4.1109   -4.4388    1.1355 H         1 <0>         0.0710
     29 H10         4.1723   -4.5622   -0.6391 H         1 <0>         0.0711
     30 H11         6.6428   -4.7517   -0.5405 H         1 <0>         0.0651
     31 H12         6.5814   -4.6283    1.2342 H         1 <0>         0.0652
     32 H13         5.1946   -6.6817    1.3290 H         1 <0>         0.0654
     33 H14         5.2560   -6.8051   -0.4457 H         1 <0>         0.0654
     34 H15         7.7264   -6.9946   -0.3470 H         1 <0>         0.0729
     35 H16         7.6650   -6.8712    1.4276 H         1 <0>         0.0729
     36 H17         6.2783   -8.9246    1.5224 H         1 <0>         0.0995
     37 H18         6.3396   -9.0480   -0.2522 H         1 <0>         0.0995
     38 H19         7.3847  -11.2830    0.8320 H         1 <0>         0.4083
     39 H20         9.3689  -12.4262    0.9801 H         1 <0>         0.3877
@<TRIPOS>BOND
     1    1    6 ar
     2    1    2 ar
     3    1   20 1
     4    2    3 ar
     5    2   21 1
     6    3    4 ar
     7    3   22 1
     8    4    5 ar
     9    4    7 1
    10    5    6 ar
    11    5   23 1
    12    6   24 1
    13    7    8 am
    14    7   25 1
    15    8    9 2
    16    8   10 1
    17   10   11 1
    18   10   26 1
    19   10   27 1
    20   11   12 1
    21   11   28 1
    22   11   29 1
    23   12   13 1
    24   12   30 1
    25   12   31 1
    26   13   14 1
    27   13   32 1
    28   13   33 1
    29   14   15 1
    30   14   34 1
    31   14   35 1
    32   15   16 1
    33   15   36 1
    34   15   37 1
    35   16   17 2
    36   16   18 am
    37   18   19 1
    38   18   38 1
    39   19   39 1
@<TRIPOS>MOLECULE
ZINC05579377
   44    44     0     0     0
SMALL
USER_CHARGES

@<TRIPOS>ATOM
      1 C1          0.0163    0.8704   -0.6224 C.3       1 <0>        -0.1382
      2 C2          0.1984   -0.5975   -0.2312 C.3       1 <0>        -0.1146
      3 H1         -0.7690   -1.0995   -0.2438 H         1 <0>         0.1076
      4 C3          0.7887   -0.6789    1.1530 C.2       1 <0>        -0.0924
      5 C4          0.0754   -1.2000    2.1527 C.2       1 <0>        -0.1248
      6 C5         -1.3645   -1.5849    1.9302 C.3       1 <0>        -0.1253
      7 C6          0.6913   -1.3981    3.4654 C.2       1 <0>        -0.0018
      8 C7         -0.0314   -1.9261    4.4783 C.2       1 <0>        -0.2188
      9 C8          0.5841   -2.1240    5.7903 C.2       1 <0>         0.5599
     10 O1          1.7472   -1.8132    5.9699 O.2       1 <0>        -0.5263
     11 N1         -0.1365   -2.6506    6.8002 N.am      1 <0>        -0.5945
     12 O2          0.4595   -2.8422    8.0703 O.3       1 <0>        -0.3168
     13 C9          1.1251   -1.2677   -1.2126 C.2       1 <0>         0.4107
     14 O3          2.3095   -1.3556   -0.9656 O.2       1 <0>        -0.4581
     15 C10         0.5946   -1.8139   -2.4671 C.ar      1 <0>        -0.2376
     16 C11        -0.7721   -1.7083   -2.7570 C.ar      1 <0>        -0.0197
     17 C12        -1.2614   -2.2176   -3.9257 C.ar      1 <0>        -0.2150
     18 C13        -0.4039   -2.8414   -4.8291 C.ar      1 <0>         0.2501
     19 C14         0.9557   -2.9486   -4.5449 C.ar      1 <0>        -0.2148
     20 C15         1.4543   -2.4374   -3.3810 C.ar      1 <0>        -0.0053
     21 N2         -0.9059   -3.3584   -6.0164 N.pl3     1 <0>        -0.6264
     22 C16        -2.3354   -3.2472   -6.3172 C.3       1 <0>         0.0859
     23 C17        -0.0060   -4.0149   -6.9680 C.3       1 <0>         0.0853
     24 H2          0.9837    1.3725   -0.6098 H         1 <0>         0.0651
     25 H3         -0.4106    0.9293   -1.6236 H         1 <0>         0.0678
     26 H4         -0.6539    1.3552    0.0874 H         1 <0>         0.0712
     27 H5          1.7891   -0.3153    1.3357 H         1 <0>         0.1273
     28 H6         -1.4116   -2.5915    1.5147 H         1 <0>         0.0719
     29 H7         -1.8986   -1.5586    2.8801 H         1 <0>         0.0699
     30 H8         -1.8250   -0.8829    1.2350 H         1 <0>         0.0721
     31 H9          1.7232   -1.1223    3.6248 H         1 <0>         0.1353
     32 H10        -1.0634   -2.2019    4.3189 H         1 <0>         0.1355
     33 H11        -1.0633   -2.8983    6.6570 H         1 <0>         0.4090
     34 H12        -0.1350   -3.2249    8.7300 H         1 <0>         0.3880
     35 H13        -1.4377   -1.2251   -2.0571 H         1 <0>         0.1299
     36 H14        -2.3148   -2.1369   -4.1498 H         1 <0>         0.1291
     37 H15         1.6170   -3.4333   -5.2479 H         1 <0>         0.1289
     38 H16         2.5092   -2.5170   -3.1635 H         1 <0>         0.1322
     39 H17        -2.5223   -2.3180   -6.8554 H         1 <0>         0.0543
     40 H18        -2.6439   -4.0921   -6.9331 H         1 <0>         0.0711
     41 H19        -2.9036   -3.2490   -5.3871 H         1 <0>         0.0730
     42 H20         0.0495   -5.0794   -6.7405 H         1 <0>         0.0545
     43 H21        -0.3861   -3.8791   -7.9805 H         1 <0>         0.0713
     44 H22         0.9881   -3.5745   -6.8910 H         1 <0>         0.0733
@<TRIPOS>BOND
     1    1    2 1
     2    1   24 1
     3    1   25 1
     4    1   26 1
     5    2    3 1
     6    2    4 1
     7    2   13 1
     8    4    5 2
     9    4   27 1
    10    5    6 1
    11    5    7 1
    12    6   28 1
    13    6   29 1
    14    6   30 1
    15    7    8 2
    16    7   31 1
    17    8    9 1
    18    8   32 1
    19    9   10 2
    20    9   11 am
    21   11   12 1
    22   11   33 1
    23   12   34 1
    24   13   14 2
    25   13   15 1
    26   15   20 ar
    27   15   16 ar
    28   16   17 ar
    29   16   35 1
    30   17   18 ar
    31   17   36 1
    32   18   19 ar
    33   18   21 1
    34   19   20 ar
    35   19   37 1
    36   20   38 1
    37   21   22 1
    38   21   23 1
    39   22   39 1
    40   22   40 1
    41   22   41 1
    42   23   42 1
    43   23   43 1
    44   23   44 1
@<TRIPOS>MOLECULE
ZINC05579377
   44    44     0     0     0
SMALL
USER_CHARGES

@<TRIPOS>ATOM
      1 C1         -0.0492    1.9543   -0.7649 C.3       1 <0>        -0.1371
      2 C2         -0.1970    0.4706   -0.4219 C.3       1 <0>        -0.1146
      3 H1         -1.2419    0.1768   -0.5224 H         1 <0>         0.1068
      4 C3          0.6480   -0.3491   -1.3627 C.2       1 <0>        -0.0922
      5 C4          0.0955   -1.3410   -2.0632 C.2       1 <0>        -0.1239
      6 C5         -1.3398   -1.7287   -1.8172 C.3       1 <0>        -0.1255
      7 C6          0.8833   -2.0526   -3.0704 C.2       1 <0>        -0.0021
      8 C7          0.3236   -3.0577   -3.7802 C.2       1 <0>        -0.2183
      9 C8          1.1110   -3.7689   -4.7869 C.2       1 <0>         0.5601
     10 O1          2.2703   -3.4558   -4.9856 O.2       1 <0>        -0.5264
     11 N1          0.5528   -4.7710   -5.4945 N.am      1 <0>        -0.5945
     12 O2          1.3151   -5.4596   -6.4691 O.3       1 <0>        -0.3168
     13 C9          0.2569    0.2350    0.9957 C.2       1 <0>         0.4096
     14 O3          1.4170   -0.0363    1.2239 O.2       1 <0>        -0.4577
     15 C10        -0.7046    0.3339    2.1000 C.ar      1 <0>        -0.2382
     16 C11        -2.0461    0.6415    1.8381 C.ar      1 <0>        -0.0203
     17 C12        -2.9375    0.7320    2.8685 C.ar      1 <0>        -0.2146
     18 C13        -2.5146    0.5191    4.1787 C.ar      1 <0>         0.2502
     19 C14        -1.1816    0.2130    4.4437 C.ar      1 <0>        -0.2147
     20 C15        -0.2847    0.1153    3.4187 C.ar      1 <0>        -0.0054
     21 N2         -3.4245    0.6126    5.2239 N.pl3     1 <0>        -0.6263
     22 C16        -4.8267    0.9348    4.9477 C.3       1 <0>         0.0858
     23 C17        -2.9821    0.3891    6.6025 C.3       1 <0>         0.0852
     24 H2          0.9957    2.2481   -0.6644 H         1 <0>         0.0652
     25 H3         -0.3775    2.1247   -1.7902 H         1 <0>         0.0716
     26 H4         -0.6604    2.5472   -0.0844 H         1 <0>         0.0675
     27 H5          1.7008   -0.1336   -1.4699 H         1 <0>         0.1268
     28 H6         -1.9953   -1.0898   -2.4090 H         1 <0>         0.0735
     29 H7         -1.4896   -2.7692   -2.1053 H         1 <0>         0.0699
     30 H8         -1.5727   -1.6076   -0.7593 H         1 <0>         0.0703
     31 H9          1.9120   -1.7748   -3.2467 H         1 <0>         0.1354
     32 H10        -0.7051   -3.3356   -3.6039 H         1 <0>         0.1356
     33 H11        -0.3711   -5.0206   -5.3362 H         1 <0>         0.4091
     34 H12         0.8299   -6.1613   -6.9244 H         1 <0>         0.3881
     35 H13        -2.3747    0.8070    0.8227 H         1 <0>         0.1300
     36 H14        -3.9717    0.9694    2.6675 H         1 <0>         0.1292
     37 H15        -0.8579    0.0491    5.4609 H         1 <0>         0.1289
     38 H16         0.7476   -0.1264    3.6246 H         1 <0>         0.1321
     39 H17        -5.3859    0.0135    4.7847 H         1 <0>         0.0542
     40 H18        -5.2502    1.4716    5.7966 H         1 <0>         0.0711
     41 H19        -4.8873    1.5591    4.0562 H         1 <0>         0.0731
     42 H20        -2.6609    1.3349    7.0388 H         1 <0>         0.0546
     43 H21        -3.8065   -0.0193    7.1869 H         1 <0>         0.0713
     44 H22        -2.1497   -0.3145    6.6073 H         1 <0>         0.0732
@<TRIPOS>BOND
     1    1    2 1
     2    1   24 1
     3    1   25 1
     4    1   26 1
     5    2    3 1
     6    2    4 1
     7    2   13 1
     8    4    5 2
     9    4   27 1
    10    5    6 1
    11    5    7 1
    12    6   28 1
    13    6   29 1
    14    6   30 1
    15    7    8 2
    16    7   31 1
    17    8    9 1
    18    8   32 1
    19    9   10 2
    20    9   11 am
    21   11   12 1
    22   11   33 1
    23   12   34 1
    24   13   14 2
    25   13   15 1
    26   15   20 ar
    27   15   16 ar
    28   16   17 ar
    29   16   35 1
    30   17   18 ar
    31   17   36 1
    32   18   19 ar
    33   18   21 1
    34   19   20 ar
    35   19   37 1
    36   20   38 1
    37   21   22 1
    38   21   23 1
    39   22   39 1
    40   22   40 1
    41   22   41 1
    42   23   42 1
    43   23   43 1
    44   23   44 1
