@<TRIPOS>MOLECULE
ZINC13818119
   60    64     0     0     0
SMALL
USER_CHARGES

@<TRIPOS>ATOM
      1 C1          0.0130   -0.6644   -0.4170 C.3       1 <0>        -0.1529
      2 C2          0.0740   -2.1519   -0.0640 C.3       1 <0>         0.0536
      3 O1          0.7634   -2.3193    1.1764 O.3       1 <0>        -0.3087
      4 C3          0.9057   -3.5905    1.6368 C.ar      1 <0>         0.1530
      5 C4          0.3982   -4.6542    0.9078 C.ar      1 <0>        -0.2019
      6 C5          0.5438   -5.9460    1.3772 C.ar      1 <0>        -0.0591
      7 C6          1.1958   -6.1817    2.5739 C.ar      1 <0>        -0.1467
      8 C7          1.7051   -5.1268    3.3066 C.ar      1 <0>        -0.0609
      9 C8          1.5672   -3.8276    2.8396 C.ar      1 <0>         0.0630
     10 N1          2.0877   -2.7561    3.5785 N.am      1 <0>        -0.4871
     11 C9          1.3163   -2.1484    4.5195 C.2       1 <0>         0.4042
     12 N2          1.7265   -1.1514    5.2434 N.2       1 <0>        -0.4890
     13 C10         2.9752   -0.6399    5.1069 C.ar      1 <0>         0.1522
     14 C11         3.4169    0.4320    5.8855 C.ar      1 <0>        -0.1077
     15 C12         4.6928    0.9193    5.7137 C.ar      1 <0>        -0.0725
     16 C13         5.5484    0.3584    4.7742 C.ar      1 <0>        -0.1384
     17 C14         5.1358   -0.6992    3.9939 C.ar      1 <0>        -0.0412
     18 C15         3.8482   -1.2082    4.1526 C.ar      1 <0>        -0.1959
     19 C16         3.3554   -2.3390    3.3531 C.2       1 <0>         0.5542
     20 O2          4.0588   -2.8767    2.5175 O.2       1 <0>        -0.4986
     21 C17        -0.0860   -2.6577    4.7326 C.3       1 <0>         0.1079
     22 N3         -0.7392   -1.8678    5.7848 N.3       1 <0>        -0.5134
     23 C18        -0.0834   -2.0754    7.0828 C.3       1 <0>         0.0389
     24 C19        -0.6731   -1.1038    8.1106 C.3       1 <0>         0.1224
     25 N4         -2.1351   -1.2642    8.1198 N.am      1 <0>        -0.6067
     26 C20        -2.8498   -1.2055    6.8357 C.3       1 <0>         0.1054
     27 C21        -2.1743   -2.1731    5.8580 C.3       1 <0>         0.0414
     28 C22        -2.8024   -1.4593    9.2745 C.2       1 <0>         0.6036
     29 O3         -2.1879   -1.6286   10.3112 O.2       1 <0>        -0.5202
     30 C23        -4.2689   -1.4676    9.2816 C.2       1 <0>        -0.0817
     31 C24        -5.0643   -1.7932   10.3426 C.2       1 <0>        -0.1156
     32 C25        -6.3921   -1.6651    9.9058 C.2       1 <0>        -0.2226
     33 C26        -6.3495   -1.2719    8.6137 C.2       1 <0>        -0.0113
     34 O4         -5.0685   -1.1491    8.2427 O.3       1 <0>        -0.1605
     35 H1          1.0253   -0.2708   -0.5079 H         1 <0>         0.0663
     36 H2         -0.5129   -0.5368   -1.3632 H         1 <0>         0.0823
     37 H3         -0.5170   -0.1260    0.3688 H         1 <0>         0.0676
     38 H4         -0.9384   -2.5456    0.0269 H         1 <0>         0.0664
     39 H5          0.6039   -2.6903   -0.8498 H         1 <0>         0.0654
     40 H6         -0.1115   -4.4737   -0.0271 H         1 <0>         0.1383
     41 H7          0.1470   -6.7737    0.8081 H         1 <0>         0.1350
     42 H8          1.3068   -7.1928    2.9368 H         1 <0>         0.1360
     43 H9          2.2135   -5.3137    4.2410 H         1 <0>         0.1337
     44 H10         2.7604    0.8767    6.6188 H         1 <0>         0.1409
     45 H11         5.0328    1.7482    6.3168 H         1 <0>         0.1349
     46 H12         6.5457    0.7552    4.6541 H         1 <0>         0.1335
     47 H13         5.8053   -1.1309    3.2648 H         1 <0>         0.1363
     48 H14        -0.6510   -2.5651    3.8051 H         1 <0>         0.1078
     49 H15        -0.0505   -3.7047    5.0334 H         1 <0>         0.0689
     50 H16        -0.2492   -3.1005    7.4143 H         1 <0>         0.0336
     51 H17         0.9867   -1.8937    6.9828 H         1 <0>         0.1115
     52 H18        -0.2738   -1.3298    9.0993 H         1 <0>         0.0974
     53 H19        -0.4188   -0.0804    7.8350 H         1 <0>         0.0840
     54 H20        -3.8894   -1.4987    6.9814 H         1 <0>         0.1081
     55 H21        -2.8046   -0.1918    6.4375 H         1 <0>         0.0828
     56 H22        -2.6206   -2.0622    4.8698 H         1 <0>         0.0914
     57 H23        -2.3110   -3.1968    6.2066 H         1 <0>         0.0420
     58 H24        -4.7355   -2.0915   11.3271 H         1 <0>         0.1603
     59 H25        -7.2807   -1.8470   10.4921 H         1 <0>         0.1575
     60 H26        -7.2072   -1.0843    7.9848 H         1 <0>         0.2108
@<TRIPOS>BOND
     1    1    2 1
     2    1   35 1
     3    1   36 1
     4    1   37 1
     5    2    3 1
     6    2   38 1
     7    2   39 1
     8    3    4 1
     9    4    9 ar
    10    4    5 ar
    11    5    6 ar
    12    5   40 1
    13    6    7 ar
    14    6   41 1
    15    7    8 ar
    16    7   42 1
    17    8    9 ar
    18    8   43 1
    19    9   10 1
    20   10   19 am
    21   10   11 1
    22   11   12 2
    23   11   21 1
    24   12   13 1
    25   13   18 ar
    26   13   14 ar
    27   14   15 ar
    28   14   44 1
    29   15   16 ar
    30   15   45 1
    31   16   17 ar
    32   16   46 1
    33   17   18 ar
    34   17   47 1
    35   18   19 1
    36   19   20 2
    37   21   22 1
    38   21   48 1
    39   21   49 1
    40   22   27 1
    41   22   23 1
    42   23   24 1
    43   23   50 1
    44   23   51 1
    45   24   25 1
    46   24   52 1
    47   24   53 1
    48   25   26 1
    49   25   28 am
    50   26   27 1
    51   26   54 1
    52   26   55 1
    53   27   56 1
    54   27   57 1
    55   28   29 2
    56   28   30 1
    57   30   34 1
    58   30   31 2
    59   31   32 1
    60   31   58 1
    61   32   33 2
    62   32   59 1
    63   33   34 1
    64   33   60 1
@<TRIPOS>MOLECULE
ZINC36379693
   49    51     0     0     0
SMALL
USER_CHARGES

@<TRIPOS>ATOM
      1 C1         -1.0398    2.4532    0.1161 C.3       1 <0>         0.0340
      2 O1         -0.9586    1.0507   -0.1455 O.3       1 <0>        -0.3496
      3 C2         -2.1023    0.3446   -0.0552 C.2       1 <0>         0.5067
      4 O2         -3.1400    0.9040    0.2374 O.2       1 <0>        -0.5010
      5 C3         -2.0944   -1.1102   -0.3122 C.ar      1 <0>        -0.1285
      6 C4         -0.9021   -1.7574   -0.6433 C.ar      1 <0>        -0.0533
      7 C5         -0.9018   -3.1159   -0.8820 C.ar      1 <0>        -0.1326
      8 C6         -2.0796   -3.8373   -0.7940 C.ar      1 <0>        -0.0622
      9 C7         -3.2644   -3.2023   -0.4669 C.ar      1 <0>        -0.1191
     10 C8         -3.2778   -1.8450   -0.2195 C.ar      1 <0>        -0.0349
     11 C9         -4.5421   -3.9960   -0.3745 C.3       1 <0>         0.1682
     12 N1         -4.7127   -4.4889    0.9945 N.pl3     1 <0>        -0.7460
     13 C10        -5.8340   -5.2570    1.3268 C.ar      1 <0>         0.2041
     14 C11        -6.7823   -5.5570    0.3576 C.ar      1 <0>        -0.1768
     15 C12        -7.8888   -6.3150    0.6857 C.ar      1 <0>        -0.0678
     16 C13        -8.0536   -6.7769    1.9846 C.ar      1 <0>         0.1011
     17 C14        -7.1059   -6.4767    2.9538 C.ar      1 <0>        -0.0941
     18 C15        -5.9959   -5.7244    2.6246 C.ar      1 <0>        -0.1741
     19 N2         -9.1772   -7.5461    2.3176 N.am      1 <0>        -0.6782
     20 C16        -9.7155   -8.3819    1.4076 C.2       1 <0>         0.7025
     21 O3         -9.1726   -8.5399    0.3311 O.2       1 <0>        -0.5556
     22 N3        -10.8555   -9.0427    1.6908 N.am      1 <0>        -0.6840
     23 C17       -11.3562   -9.9912    0.7919 C.ar      1 <0>         0.1630
     24 C18       -10.4833  -10.7562    0.0296 C.ar      1 <0>        -0.1207
     25 C19       -10.9806  -11.6914   -0.8567 C.ar      1 <0>        -0.0997
     26 C20       -12.3463  -11.8664   -0.9855 C.ar      1 <0>        -0.1367
     27 C21       -13.2182  -11.1061   -0.2278 C.ar      1 <0>        -0.0998
     28 C22       -12.7270  -10.1733    0.6644 C.ar      1 <0>        -0.1482
     29 H1         -0.0515    2.9005    0.0095 H         1 <0>         0.1055
     30 H2         -1.7264    2.9159   -0.5929 H         1 <0>         0.0628
     31 H3         -1.4034    2.6131    1.1311 H         1 <0>         0.0626
     32 H4          0.0176   -1.1956   -0.7126 H         1 <0>         0.1410
     33 H5          0.0195   -3.6177   -1.1385 H         1 <0>         0.1364
     34 H6         -2.0738   -4.9008   -0.9819 H         1 <0>         0.1334
     35 H7         -4.2025   -1.3513    0.0405 H         1 <0>         0.1400
     36 H8         -5.3857   -3.3585   -0.6389 H         1 <0>         0.0715
     37 H9         -4.4955   -4.8408   -1.0617 H         1 <0>         0.0729
     38 H10        -4.0484   -4.2827    1.6706 H         1 <0>         0.4004
     39 H11        -6.6545   -5.1971   -0.6527 H         1 <0>         0.1241
     40 H12        -8.6263   -6.5483   -0.0680 H         1 <0>         0.1347
     41 H13        -7.2346   -6.8355    3.9643 H         1 <0>         0.1244
     42 H14        -5.2561   -5.4952    3.3773 H         1 <0>         0.1241
     43 H15        -9.5674   -7.4768    3.2030 H         1 <0>         0.4058
     44 H16       -11.3289   -8.8609    2.5177 H         1 <0>         0.4079
     45 H17        -9.4166  -10.6198    0.1295 H         1 <0>         0.1359
     46 H18       -10.3022  -12.2865   -1.4501 H         1 <0>         0.1256
     47 H19       -12.7327  -12.5981   -1.6795 H         1 <0>         0.1234
     48 H20       -14.2842  -11.2451   -0.3307 H         1 <0>         0.1264
     49 H21       -13.4084   -9.5832    1.2593 H         1 <0>         0.1246
@<TRIPOS>BOND
     1    1    2 1
     2    1   29 1
     3    1   30 1
     4    1   31 1
     5    2    3 1
     6    3    4 2
     7    3    5 1
     8    5   10 ar
     9    5    6 ar
    10    6    7 ar
    11    6   32 1
    12    7    8 ar
    13    7   33 1
    14    8    9 ar
    15    8   34 1
    16    9   10 ar
    17    9   11 1
    18   10   35 1
    19   11   12 1
    20   11   36 1
    21   11   37 1
    22   12   13 1
    23   12   38 1
    24   13   18 ar
    25   13   14 ar
    26   14   15 ar
    27   14   39 1
    28   15   16 ar
    29   15   40 1
    30   16   17 ar
    31   16   19 1
    32   17   18 ar
    33   17   41 1
    34   18   42 1
    35   19   20 am
    36   19   43 1
    37   20   21 2
    38   20   22 am
    39   22   23 1
    40   22   44 1
    41   23   28 ar
    42   23   24 ar
    43   24   25 ar
    44   24   45 1
    45   25   26 ar
    46   25   46 1
    47   26   27 ar
    48   26   47 1
    49   27   28 ar
    50   27   48 1
    51   28   49 1
@<TRIPOS>MOLECULE
ZINC04258297
   56    60     0     0     0
SMALL
USER_CHARGES
3-[[2-[4-(1-adamantyl)phenoxy]acetyl]amino]benzoic acid
@<TRIPOS>ATOM
      1 C1          3.4533    2.0241    0.6620 C.ar      1 <0>        -0.1242
      2 C2          3.5056    3.2185   -0.0275 C.ar      1 <0>        -0.0869
      3 C3          2.3807    3.6767   -0.7161 C.ar      1 <0>        -0.0979
      4 C4          1.2062    2.9231   -0.7039 C.ar      1 <0>        -0.0820
      5 C5          1.1645    1.7252   -0.0084 C.ar      1 <0>         0.1129
      6 C6          2.2882    1.2805    0.6783 C.ar      1 <0>        -0.1453
      7 N1         -0.0111    0.9658    0.0074 N.am      1 <0>        -0.6667
      8 C7         -1.2104    1.5807    0.0175 C.2       1 <0>         0.5037
      9 O1         -1.2731    2.7890   -0.0665 O.2       1 <0>        -0.4807
     10 C8         -2.4734    0.7668    0.1333 C.3       1 <0>         0.0472
     11 O2         -3.6050    1.6394    0.1219 O.3       1 <0>        -0.2868
     12 C9         -4.8310    1.0611    0.2190 C.ar      1 <0>         0.1281
     13 C10        -4.9428   -0.3182    0.3175 C.ar      1 <0>        -0.2091
     14 C11        -6.1899   -0.9032    0.4223 C.ar      1 <0>        -0.0803
     15 C12        -7.3267   -0.1161    0.4169 C.ar      1 <0>        -0.1101
     16 C13        -7.2182    1.2584    0.3131 C.ar      1 <0>        -0.0741
     17 C14        -5.9731    1.8486    0.2142 C.ar      1 <0>        -0.1436
     18 C15        -8.6862   -0.7574    0.5246 C.3       1 <0>        -0.0058
     19 C16        -9.5122   -0.4132   -0.7164 C.3       1 <0>        -0.0990
     20 C17       -10.8924   -1.0643   -0.6070 C.3       1 <0>        -0.0866
     21 C18       -10.7335   -2.5826   -0.5050 C.3       1 <0>        -0.1083
     22 C19        -9.9075   -2.9267    0.7360 C.3       1 <0>        -0.0862
     23 C20        -8.5272   -2.2757    0.6266 C.3       1 <0>        -0.1038
     24 C21       -10.6206   -2.4036    1.9845 C.3       1 <0>        -0.1082
     25 C22       -10.7795   -0.8853    1.8825 C.3       1 <0>        -0.0865
     26 C23       -11.6056   -0.5412    0.6415 C.3       1 <0>        -0.1084
     27 C24        -9.3993   -0.2342    1.7731 C.3       1 <0>        -0.0989
     28 C25         2.4335    4.9552   -1.4547 C.2       1 <0>         0.4887
     29 O3          1.4535    5.3520   -2.0528 O.co2     1 <0>        -0.6246
     30 H1          4.3244    1.6713    1.1941 H         1 <0>         0.1212
     31 H2          4.4164    3.7989   -0.0341 H         1 <0>         0.1324
     32 H3          0.3330    3.2721   -1.2349 H         1 <0>         0.1437
     33 H4          2.2522    0.3487    1.2230 H         1 <0>         0.1171
     34 H5          0.0373   -0.0030    0.0069 H         1 <0>         0.4061
     35 H6         -2.5388    0.0760   -0.7073 H         1 <0>         0.0939
     36 H7         -2.4584    0.2034    1.0663 H         1 <0>         0.0939
     37 H8         -4.0554   -0.9338    0.3169 H         1 <0>         0.1267
     38 H9         -6.2773   -1.9765    0.5042 H         1 <0>         0.1274
     39 H10        -8.1076    1.8711    0.3098 H         1 <0>         0.1270
     40 H11        -5.8889    2.9223    0.1335 H         1 <0>         0.1331
     41 H12        -9.6254    0.6684   -0.7890 H         1 <0>         0.0641
     42 H13        -9.0042   -0.7859   -1.6058 H         1 <0>         0.0633
     43 H14       -11.4809   -0.8191   -1.4911 H         1 <0>         0.0693
     44 H15       -10.2255   -2.9553   -1.3945 H         1 <0>         0.0612
     45 H16       -11.7168   -3.0464   -0.4271 H         1 <0>         0.0602
     46 H17        -9.7943   -4.0084    0.8086 H         1 <0>         0.0687
     47 H18        -8.0192   -2.6484   -0.2629 H         1 <0>         0.0650
     48 H19        -7.9388   -2.5208    1.5107 H         1 <0>         0.0648
     49 H20       -11.6039   -2.8674    2.0624 H         1 <0>         0.0602
     50 H21       -10.0321   -2.6488    2.8686 H         1 <0>         0.0610
     51 H22       -11.2876   -0.5126    2.7720 H         1 <0>         0.0691
     52 H23       -11.7188    0.5405    0.5689 H         1 <0>         0.0616
     53 H24       -12.5889   -1.0050    0.7194 H         1 <0>         0.0602
     54 H25        -8.8108   -0.4794    2.6572 H         1 <0>         0.0630
     55 H26        -9.5125    0.8474    1.7005 H         1 <0>         0.0640
     56 O4          3.5684    5.6808   -1.4650 O.co2     1 <0>        -0.7548
@<TRIPOS>BOND
     1    1    6 ar
     2    1    2 ar
     3    1   30 1
     4    2    3 ar
     5    2   31 1
     6    3    4 ar
     7    3   28 1
     8    4    5 ar
     9    4   32 1
    10    5    6 ar
    11    5    7 1
    12    6   33 1
    13    7    8 am
    14    7   34 1
    15    8    9 2
    16    8   10 1
    17   10   11 1
    18   10   35 1
    19   10   36 1
    20   11   12 1
    21   12   17 ar
    22   12   13 ar
    23   13   14 ar
    24   13   37 1
    25   14   15 ar
    26   14   38 1
    27   15   16 ar
    28   15   18 1
    29   16   17 ar
    30   16   39 1
    31   17   40 1
    32   18   23 1
    33   18   27 1
    34   18   19 1
    35   19   20 1
    36   19   41 1
    37   19   42 1
    38   20   26 1
    39   20   21 1
    40   20   43 1
    41   21   22 1
    42   21   44 1
    43   21   45 1
    44   22   23 1
    45   22   24 1
    46   22   46 1
    47   23   47 1
    48   23   48 1
    49   24   25 1
    50   24   49 1
    51   24   50 1
    52   25   26 1
    53   25   27 1
    54   25   51 1
    55   26   52 1
    56   26   53 1
    57   27   54 1
    58   27   55 1
    59   28   29 2
    60   28   56 1
@<TRIPOS>MOLECULE
ZINC01492386
   39    42     0     0     0
SMALL
USER_CHARGES

@<TRIPOS>ATOM
      1 C1         -0.0167    1.3781    0.0096 C.ar      1 <0>        -0.1084
      2 C2          1.1709    2.0855    0.0021 C.ar      1 <0>        -0.1221
      3 C3          2.3773    1.4107   -0.0130 C.ar      1 <0>        -0.0984
      4 C4          2.3960    0.0285   -0.0201 C.ar      1 <0>        -0.1218
      5 C5          1.2084   -0.6789   -0.0117 C.ar      1 <0>        -0.0913
      6 C6          0.0021   -0.0041    0.0020 C.ar      1 <0>        -0.1222
      7 C7          3.7112   -0.7071   -0.0376 C.3       1 <0>         0.1820
      8 N1          4.1518   -0.9524    1.3379 N.pl3     1 <0>        -0.3890
      9 C8          4.9321   -0.1063    2.0838 C.ar      1 <0>         0.1332
     10 C9          5.5146    1.1347    1.8352 C.ar      1 <0>        -0.1393
     11 C10         6.2584    1.7433    2.8061 C.ar      1 <0>        -0.0661
     12 C11         6.4430    1.1395    4.0434 C.ar      1 <0>        -0.1553
     13 C12         5.8836   -0.0768    4.3133 C.ar      1 <0>        -0.0364
     14 C13         5.1188   -0.7180    3.3365 C.ar      1 <0>        -0.1617
     15 C14         4.3925   -1.9926    3.2850 C.2       1 <0>         0.1628
     16 N2          3.8378   -2.0832    2.0984 N.2       1 <0>        -0.2152
     17 C15         4.2978   -2.9878    4.3711 C.2       1 <0>         0.0620
     18 C16         3.2183   -3.7685    4.6469 C.2       1 <0>        -0.1619
     19 C17         3.5657   -4.5637    5.7573 C.2       1 <0>        -0.1816
     20 C18         4.8258   -4.2333    6.1009 C.2       1 <0>        -0.0058
     21 O1          5.2673   -3.2850    5.2578 O.3       1 <0>        -0.1574
     22 C19         5.6121   -4.8327    7.2383 C.3       1 <0>         0.1575
     23 O2          6.3357   -5.9720    6.7688 O.3       1 <0>        -0.5659
     24 H1         -0.9591    1.9053    0.0259 H         1 <0>         0.1246
     25 H2          1.1563    3.1654    0.0076 H         1 <0>         0.1253
     26 H3          3.3051    1.9634   -0.0196 H         1 <0>         0.1218
     27 H4          1.2231   -1.7588   -0.0176 H         1 <0>         0.1251
     28 H5         -0.9258   -0.5567    0.0082 H         1 <0>         0.1253
     29 H6          3.5884   -1.6586   -0.5549 H         1 <0>         0.1058
     30 H7          4.4573   -0.1052   -0.5563 H         1 <0>         0.1035
     31 H8          5.3787    1.6142    0.8771 H         1 <0>         0.1260
     32 H9          6.7085    2.7051    2.6092 H         1 <0>         0.1321
     33 H10         7.0343    1.6361    4.7984 H         1 <0>         0.1296
     34 H11         6.0321   -0.5404    5.2774 H         1 <0>         0.1277
     35 H12         2.2769   -3.7769    4.1175 H         1 <0>         0.1566
     36 H13         2.9398   -5.2987    6.2416 H         1 <0>         0.1569
     37 H14         6.3118   -4.0923    7.6261 H         1 <0>         0.0675
     38 H15         4.9291   -5.1375    8.0312 H         1 <0>         0.0848
     39 H16         6.8656   -6.4092    7.4494 H         1 <0>         0.3896
@<TRIPOS>BOND
     1    1    6 ar
     2    1    2 ar
     3    1   24 1
     4    2    3 ar
     5    2   25 1
     6    3    4 ar
     7    3   26 1
     8    4    5 ar
     9    4    7 1
    10    5    6 ar
    11    5   27 1
    12    6   28 1
    13    7    8 1
    14    7   29 1
    15    7   30 1
    16    8   16 1
    17    8    9 1
    18    9   14 ar
    19    9   10 ar
    20   10   11 ar
    21   10   31 1
    22   11   12 ar
    23   11   32 1
    24   12   13 ar
    25   12   33 1
    26   13   14 ar
    27   13   34 1
    28   14   15 1
    29   15   16 2
    30   15   17 1
    31   17   21 1
    32   17   18 2
    33   18   19 1
    34   18   35 1
    35   19   20 2
    36   19   36 1
    37   20   21 1
    38   20   22 1
    39   22   23 1
    40   22   37 1
    41   22   38 1
    42   23   39 1
@<TRIPOS>MOLECULE
ZINC14610083
   42    45     0     0     0
SMALL
USER_CHARGES
5-[(6R)-6-hydroxy-7,7-dimethyl-5,6-dihydropyrano[5,6-f]benzofuran-2-yl]benzene-1,3-diol
@<TRIPOS>ATOM
      1 C1          1.1203   -2.1479   -0.0710 C.3       1 <0>        -0.1390
      2 C2          1.2132   -0.6535   -0.3859 C.3       1 <0>         0.1242
      3 C3          2.3708   -0.0300    0.4042 C.3       1 <0>         0.0773
      4 H1          3.2948   -0.5657    0.1867 H         1 <0>         0.0775
      5 C4          2.5094    1.4336   -0.0217 C.3       1 <0>        -0.1099
      6 C5          1.1567    2.1002    0.0023 C.ar      1 <0>        -0.1609
      7 C6          1.1043    3.4695    0.0147 C.ar      1 <0>        -0.0325
      8 C7         -0.1270    4.1228    0.0323 C.ar      1 <0>        -0.1614
      9 C8         -0.5396    5.5285    0.0480 C.2       1 <0>        -0.1676
     10 C9         -1.8934    5.5225    0.0604 C.2       1 <0>         0.0627
     11 O1         -2.3456    4.2525    0.0541 O.3       1 <0>        -0.1859
     12 C10        -1.3199    3.3770    0.0375 C.ar      1 <0>         0.0988
     13 C11        -1.2500    1.9926    0.0306 C.ar      1 <0>        -0.1521
     14 C12        -0.0164    1.3555    0.0095 C.ar      1 <0>         0.1808
     15 O2          0.0021   -0.0041    0.0020 O.3       1 <0>        -0.2916
     16 C13        -2.7480    6.7283    0.0774 C.ar      1 <0>         0.0124
     17 C14        -2.1676    7.9972    0.0879 C.ar      1 <0>        -0.1324
     18 C15        -2.9721    9.1245    0.0990 C.ar      1 <0>         0.1299
     19 C16        -4.3533    8.9934    0.1103 C.ar      1 <0>        -0.1635
     20 C17        -4.9346    7.7335    0.1052 C.ar      1 <0>         0.1293
     21 C18        -4.1375    6.6010    0.0888 C.ar      1 <0>        -0.1342
     22 O3         -6.2880    7.6106    0.1168 O.3       1 <0>        -0.4932
     23 O4         -2.4078   10.3608    0.1040 O.3       1 <0>        -0.4923
     24 O5          2.0916   -0.1000    1.8039 O.3       1 <0>        -0.5499
     25 C19         1.4468   -0.4555   -1.8849 C.3       1 <0>        -0.1794
     26 H2          0.2849   -2.5834   -0.6193 H         1 <0>         0.0697
     27 H3          2.0462   -2.6401   -0.3684 H         1 <0>         0.0785
     28 H4          0.9634   -2.2847    0.9989 H         1 <0>         0.0760
     29 H5          3.1801    1.9494    0.6656 H         1 <0>         0.0870
     30 H6          2.9191    1.4804   -1.0307 H         1 <0>         0.0909
     31 H7          2.0189    4.0438    0.0111 H         1 <0>         0.1318
     32 H8          0.1058    6.3945    0.0500 H         1 <0>         0.1616
     33 H9         -2.1579    1.4077    0.0382 H         1 <0>         0.1411
     34 H10        -1.0925    8.1001    0.0836 H         1 <0>         0.1399
     35 H11        -4.9778    9.8744    0.1234 H         1 <0>         0.1407
     36 H12        -4.5908    5.6207    0.0845 H         1 <0>         0.1403
     37 H13        -6.6715    7.5681    1.0035 H         1 <0>         0.3961
     38 H14        -2.2366   10.7114    0.9888 H         1 <0>         0.3958
     39 H15         2.7847    0.2776    2.3626 H         1 <0>         0.3807
     40 H16         1.5219    0.6097   -2.1034 H         1 <0>         0.0682
     41 H17         2.3718   -0.9525   -2.1772 H         1 <0>         0.0779
     42 H18         0.6130   -0.8828   -2.4421 H         1 <0>         0.0764
@<TRIPOS>BOND
     1    1    2 1
     2    1   26 1
     3    1   27 1
     4    1   28 1
     5    2   15 1
     6    2    3 1
     7    2   25 1
     8    3    4 1
     9    3    5 1
    10    3   24 1
    11    5    6 1
    12    5   29 1
    13    5   30 1
    14    6   14 ar
    15    6    7 ar
    16    7    8 ar
    17    7   31 1
    18    8   12 ar
    19    8    9 1
    20    9   10 2
    21    9   32 1
    22   10   11 1
    23   10   16 1
    24   11   12 1
    25   12   13 ar
    26   13   14 ar
    27   13   33 1
    28   14   15 1
    29   16   21 ar
    30   16   17 ar
    31   17   18 ar
    32   17   34 1
    33   18   19 ar
    34   18   23 1
    35   19   20 ar
    36   19   35 1
    37   20   21 ar
    38   20   22 1
    39   21   36 1
    40   22   37 1
    41   23   38 1
    42   24   39 1
    43   25   40 1
    44   25   41 1
    45   25   42 1
@<TRIPOS>MOLECULE
ZINC35018256
   55    59     0     0     0
SMALL
NO_CHARGES

@<TRIPOS>ATOM
      1 C1         -0.0187    1.5258    0.0104 C.3       1 <0>        -0.1650
      2 C2          0.0021   -0.0041    0.0020 C.3       1 <0>        -0.1384
      3 C3         -1.4333   -0.5336    0.0129 C.3       1 <0>         0.1544
      4 C4         -1.4160   -2.0425   -0.0128 C.2       1 <0>        -0.0965
      5 C5         -1.1021   -2.7297    1.1701 C.2       1 <0>        -0.0133
      6 C6         -1.0686   -4.0869    1.1700 C.2       1 <0>        -0.0937
      7 N1         -1.0939   -4.7478   -0.0711 N.4       1 <0>        -0.2818
      8 C7         -1.6190   -4.1126   -1.1852 C.2       1 <0>         0.3228
      9 O1         -1.9961   -4.8200   -2.2630 O.3       1 <0>        -0.5560
     10 C8         -1.7463   -2.7447   -1.1648 C.2       1 <0>        -0.2414
     11 C9         -2.2538   -2.0551   -2.4027 C.3       1 <0>         0.1565
     12 O2         -1.9180   -0.6669   -2.3787 O.3       1 <0>        -0.3679
     13 C10        -2.1669   -0.0344   -1.2108 C.2       1 <0>         0.4751
     14 O3         -2.9424    0.8900   -1.1474 O.2       1 <0>        -0.4374
     15 C11        -1.7675   -6.0294    0.1826 C.3       1 <0>         0.0553
     16 C12        -1.3840   -6.3467    1.6166 C.ar      1 <0>        -0.1526
     17 C13        -0.9672   -5.1252    2.2002 C.ar      1 <0>         0.1224
     18 N2         -0.5765   -5.0702    3.4680 N.ar      1 <0>        -0.4138
     19 C14        -0.5504   -6.1537    4.2333 C.ar      1 <0>         0.0783
     20 C15        -0.1315   -6.0947    5.5808 C.2       1 <0>        -0.0402
     21 C16        -0.1128   -7.2211    6.3320 C.2       1 <0>        -0.1733
     22 C17        -0.5054   -8.4673    5.8031 C.2       1 <0>         0.3299
     23 C18        -0.9290   -8.5836    4.4824 C.2       1 <0>        -0.3674
     24 C19        -0.9630   -7.4466    3.6753 C.ar      1 <0>         0.0100
     25 C20        -1.3846   -7.4985    2.3291 C.ar      1 <0>        -0.1086
     26 C21        -1.3461   -9.9226    3.9309 C.3       1 <0>         0.0832
     27 N3         -2.7861  -10.1149    4.1487 N.4       1 <0>        -0.3845
     28 C22        -3.5363   -9.1222    3.3678 C.3       1 <0>        -0.0485
     29 C23        -3.1699  -11.4666    3.7203 C.3       1 <0>        -0.0445
     30 O4         -0.4701   -9.5525    6.5806 O.2       1 <0>        -0.6524
     31 O5         -2.1025   -0.0795    1.1910 O.3       1 <0>        -0.5303
     32 H1          1.0039    1.9031    0.0027 H         1 <0>         0.0715
     33 H2         -0.5459    1.8868   -0.8726 H         1 <0>         0.0577
     34 H3         -0.5289    1.8773    0.9072 H         1 <0>         0.0623
     35 H4          0.5123   -0.3556   -0.8948 H         1 <0>         0.0855
     36 H5          0.5293   -0.3651    0.8851 H         1 <0>         0.0910
     37 H6         -0.8887   -2.1817    2.0759 H         1 <0>         0.1563
     38 H7         -1.8050   -2.5181   -3.2815 H         1 <0>         0.1235
     39 H8         -3.3373   -2.1619   -2.4550 H         1 <0>         0.0771
     40 H9         -2.8480   -5.9213    0.0885 H         1 <0>         0.1330
     41 H10        -1.3967   -6.7994   -0.4940 H         1 <0>         0.1333
     42 H11         0.1731   -5.1523    6.0115 H         1 <0>         0.1319
     43 H12         0.2103   -7.1633    7.3609 H         1 <0>         0.1274
     44 H13        -1.6986   -8.4294    1.8805 H         1 <0>         0.1279
     45 H14        -1.1323   -9.9581    2.8627 H         1 <0>         0.1073
     46 H15        -0.7931  -10.7129    4.4386 H         1 <0>         0.1272
     47 H16        -3.2514   -8.1192    3.6857 H         1 <0>         0.1236
     48 H17        -3.3092   -9.2459    2.3089 H         1 <0>         0.1119
     49 H18        -4.6047   -9.2649    3.5294 H         1 <0>         0.1109
     50 H19        -2.6133  -12.2031    4.2997 H         1 <0>         0.1189
     51 H20        -4.2384  -11.6092    3.8819 H         1 <0>         0.1130
     52 H21        -2.9429  -11.5903    2.6614 H         1 <0>         0.1129
     53 H22        -2.1540    0.8831    1.2678 H         1 <0>         0.3883
     54 H23        -2.9962  -10.0003    5.1289 H         1 <0>         0.4267
     55 H24        -0.1383   -4.9834   -0.2934 H         1 <0>         0.4005
@<TRIPOS>BOND
     1    1    2 1
     2    1   32 1
     3    1   33 1
     4    1   34 1
     5    2    3 1
     6    2   35 1
     7    2   36 1
     8    3   13 1
     9    3    4 1
    10    3   31 1
    11    4   10 1
    12    4    5 2
    13    5    6 1
    14    5   37 1
    15    6   17 2
    16    6    7 1
    17    7    8 1
    18    7   15 1
    19    7   55 1
    20    8    9 1
    21    8   10 2
    22   10   11 1
    23   11   12 1
    24   11   38 1
    25   11   39 1
    26   12   13 1
    27   13   14 2
    28   15   16 1
    29   15   40 1
    30   15   41 1
    31   16   25 ar
    32   16   17 ar
    33   17   18 ar
    34   18   19 ar
    35   19   24 ar
    36   19   20 1
    37   20   21 2
    38   20   42 1
    39   21   22 1
    40   21   43 1
    41   22   23 1
    42   22   30 2
    43   23   24 2
    44   23   26 1
    45   24   25 ar
    46   25   44 1
    47   26   27 1
    48   26   45 1
    49   26   46 1
    50   27   28 1
    51   27   29 1
    52   27   54 1
    53   28   47 1
    54   28   48 1
    55   28   49 1
    56   29   50 1
    57   29   51 1
    58   29   52 1
    59   31   53 1
@<TRIPOS>MOLECULE
ZINC35018256
   54    58     0     0     0
SMALL
NO_CHARGES

@<TRIPOS>ATOM
      1 C1         -0.0187    1.5258    0.0104 C.3       1 <0>        -0.1656
      2 C2          0.0021   -0.0041    0.0020 C.3       1 <0>        -0.1416
      3 C3         -1.4333   -0.5336    0.0129 C.3       1 <0>         0.1280
      4 C4         -1.4160   -2.0425   -0.0128 C.2       1 <0>         0.1061
      5 C5         -1.1021   -2.7297    1.1701 C.2       1 <0>        -0.1485
      6 C6         -1.0686   -4.0869    1.1700 C.2       1 <0>         0.1603
      7 N1         -1.0939   -4.7478   -0.0711 N.4       1 <0>        -0.3480
      8 C7         -1.6190   -4.1126   -1.1852 C.2       1 <0>         0.4376
      9 O1         -1.9961   -4.8200   -2.2630 O.3       1 <0>        -0.4561
     10 C8         -1.7463   -2.7447   -1.1648 C.2       1 <0>        -0.2798
     11 C9         -2.2538   -2.0551   -2.4027 C.3       1 <0>         0.1482
     12 O2         -1.9180   -0.6669   -2.3787 O.3       1 <0>        -0.3553
     13 C10        -2.1669   -0.0344   -1.2108 C.2       1 <0>         0.4690
     14 O3         -2.9424    0.8900   -1.1474 O.2       1 <0>        -0.4105
     15 C11        -1.7675   -6.0294    0.1826 C.3       1 <0>         0.0552
     16 C12        -1.3840   -6.3467    1.6166 C.ar      1 <0>        -0.1517
     17 C13        -0.9672   -5.1252    2.2002 C.ar      1 <0>        -0.0114
     18 N2         -0.5765   -5.0702    3.4680 N.ar      1 <0>        -0.3636
     19 C14        -0.5504   -6.1537    4.2333 C.ar      1 <0>         0.0845
     20 C15        -0.1315   -6.0947    5.5808 C.2       1 <0>        -0.0356
     21 C16        -0.1128   -7.2211    6.3320 C.2       1 <0>        -0.1690
     22 C17        -0.5054   -8.4673    5.8031 C.2       1 <0>         0.3322
     23 C18        -0.9290   -8.5836    4.4824 C.2       1 <0>        -0.2054
     24 C19        -0.9630   -7.4466    3.6753 C.ar      1 <0>         0.0095
     25 C20        -1.3846   -7.4985    2.3291 C.ar      1 <0>        -0.0555
     26 C21        -1.3461   -9.9226    3.9309 C.3       1 <0>         0.1148
     27 N3         -2.7861  -10.1149    4.1487 N.3       1 <0>        -0.5429
     28 C22        -3.2759  -11.2931    3.4208 C.3       1 <0>         0.0226
     29 C23        -3.0929  -10.2162    5.5817 C.3       1 <0>         0.0334
     30 O4         -0.4701   -9.5525    6.5806 O.2       1 <0>        -0.5779
     31 O5         -2.1025   -0.0795    1.1910 O.3       1 <0>        -0.5199
     32 H1          1.0039    1.9031    0.0027 H         1 <0>         0.0804
     33 H2         -0.5459    1.8868   -0.8726 H         1 <0>         0.0619
     34 H3         -0.5289    1.8773    0.9072 H         1 <0>         0.0674
     35 H4          0.5123   -0.3556   -0.8948 H         1 <0>         0.0921
     36 H5          0.5293   -0.3651    0.8851 H         1 <0>         0.1010
     37 H6         -0.8887   -2.1817    2.0759 H         1 <0>         0.1897
     38 H7         -1.8050   -2.5181   -3.2815 H         1 <0>         0.1374
     39 H8         -3.3373   -2.1619   -2.4550 H         1 <0>         0.0965
     40 H9         -2.8480   -5.9213    0.0885 H         1 <0>         0.1491
     41 H10        -1.3967   -6.7994   -0.4940 H         1 <0>         0.1545
     42 H11         0.1731   -5.1523    6.0115 H         1 <0>         0.1383
     43 H12         0.2103   -7.1633    7.3609 H         1 <0>         0.1358
     44 H13        -1.6986   -8.4294    1.8805 H         1 <0>         0.1464
     45 H14        -1.1323   -9.9581    2.8627 H         1 <0>         0.0696
     46 H15        -0.7931  -10.7129    4.4386 H         1 <0>         0.0519
     47 H16        -2.7481  -12.1808    3.7694 H         1 <0>         0.0251
     48 H17        -4.3445  -11.4122    3.5995 H         1 <0>         0.0666
     49 H18        -3.0985  -11.1606    2.3536 H         1 <0>         0.0629
     50 H19        -2.7824   -9.3008    6.0854 H         1 <0>         0.0698
     51 H20        -4.1654  -10.3582    5.7145 H         1 <0>         0.0557
     52 H21        -2.5584  -11.0650    6.0086 H         1 <0>         0.0327
     53 H22        -2.1540    0.8831    1.2678 H         1 <0>         0.4034
     54 H23        -0.1383   -4.9834   -0.2934 H         1 <0>         0.4488
@<TRIPOS>BOND
     1    1    2 1
     2    1   32 1
     3    1   33 1
     4    1   34 1
     5    2    3 1
     6    2   35 1
     7    2   36 1
     8    3   13 1
     9    3    4 1
    10    3   31 1
    11    4   10 1
    12    4    5 2
    13    5    6 1
    14    5   37 1
    15    6   17 2
    16    6    7 1
    17    7    8 1
    18    7   15 1
    19    7   54 1
    20    8    9 1
    21    8   10 2
    22   10   11 1
    23   11   12 1
    24   11   38 1
    25   11   39 1
    26   12   13 1
    27   13   14 2
    28   15   16 1
    29   15   40 1
    30   15   41 1
    31   16   25 ar
    32   16   17 ar
    33   17   18 ar
    34   18   19 ar
    35   19   24 ar
    36   19   20 1
    37   20   21 2
    38   20   42 1
    39   21   22 1
    40   21   43 1
    41   22   23 1
    42   22   30 2
    43   23   24 2
    44   23   26 1
    45   24   25 ar
    46   25   44 1
    47   26   27 1
    48   26   45 1
    49   26   46 1
    50   27   28 1
    51   27   29 1
    52   28   47 1
    53   28   48 1
    54   28   49 1
    55   29   50 1
    56   29   51 1
    57   29   52 1
    58   31   53 1
@<TRIPOS>MOLECULE
ZINC35018256
   54    58     0     0     0
SMALL
USER_CHARGES

@<TRIPOS>ATOM
      1 C1         -0.0187    1.5258    0.0104 C.3       1 <0>        -0.1661
      2 C2          0.0021   -0.0041    0.0020 C.3       1 <0>        -0.1434
      3 C3          0.7182   -0.4975   -1.2568 C.3       1 <0>         0.1362
      4 C4          0.7571   -2.0049   -1.2585 C.2       1 <0>         0.0715
      5 C5         -0.4188   -2.7125   -1.4876 C.2       1 <0>        -0.1274
      6 C6         -0.4023   -4.0989   -1.4819 C.2       1 <0>         0.2856
      7 C7         -1.5040   -5.0666   -1.6951 C.ar      1 <0>        -0.0252
      8 C8         -0.9740   -6.3632   -1.5851 C.ar      1 <0>        -0.1244
      9 C9         -1.7651   -7.4591   -1.7353 C.ar      1 <0>        -0.0934
     10 C10        -3.1340   -7.2557   -2.0042 C.ar      1 <0>         0.0126
     11 C11        -4.0223   -8.3216   -2.1723 C.2       1 <0>        -0.2323
     12 C12        -5.3600   -8.0546   -2.4350 C.2       1 <0>         0.3360
     13 O1         -6.2154   -9.0705   -2.5965 O.2       1 <0>        -0.5945
     14 C13        -5.8289   -6.7310   -2.5333 C.2       1 <0>        -0.1672
     15 C14        -4.9993   -5.6706   -2.3771 C.2       1 <0>        -0.0416
     16 C15        -3.6315   -5.8817   -2.1084 C.ar      1 <0>         0.0703
     17 N1         -2.7890   -4.8649   -1.9493 N.ar      1 <0>        -0.3655
     18 C16        -3.5346   -9.7438   -2.0702 C.3       1 <0>         0.1261
     19 N2         -3.6413  -10.1993   -0.6777 N.3       1 <0>        -0.5360
     20 C17        -3.4019  -11.6451   -0.5769 C.3       1 <0>         0.0267
     21 C18        -2.7236   -9.4518    0.1925 C.3       1 <0>         0.0247
     22 C19         0.4978   -6.2062   -1.2965 C.3       1 <0>         0.1247
     23 N3          0.7616   -4.7615   -1.2517 N.pl3     1 <0>        -0.4062
     24 C20         1.9078   -4.0856   -1.0322 C.2       1 <0>         0.4309
     25 C21         1.9314   -2.6965   -1.0358 C.2       1 <0>        -0.2603
     26 C22         3.2439   -1.9938   -0.8126 C.3       1 <0>         0.1288
     27 O2          3.0318   -0.6193   -0.4872 O.3       1 <0>        -0.3485
     28 C23         2.1374    0.0244   -1.2704 C.2       1 <0>         0.4695
     29 O3          2.4567    0.9719   -1.9488 O.2       1 <0>        -0.4045
     30 O4          3.0497   -4.7693   -0.8052 O.3       1 <0>        -0.4397
     31 O5          0.0250   -0.0316   -2.4163 O.3       1 <0>        -0.5193
     32 H1          1.0039    1.9031    0.0027 H         1 <0>         0.0605
     33 H2         -0.5459    1.8868   -0.8726 H         1 <0>         0.0676
     34 H3         -0.5289    1.8773    0.9072 H         1 <0>         0.0805
     35 H4          0.5293   -0.3651    0.8851 H         1 <0>         0.0913
     36 H5         -1.0205   -0.3814    0.0098 H         1 <0>         0.1023
     37 H6         -1.3425   -2.1831   -1.6692 H         1 <0>         0.1871
     38 H7         -1.3569   -8.4554   -1.6514 H         1 <0>         0.1386
     39 H8         -6.8747   -6.5562   -2.7385 H         1 <0>         0.1312
     40 H9         -5.3855   -4.6653   -2.4583 H         1 <0>         0.1333
     41 H10        -4.1433  -10.3834   -2.7093 H         1 <0>         0.0869
     42 H11        -2.4940   -9.7949   -2.3905 H         1 <0>         0.0258
     43 H12        -2.4014  -11.8742   -0.9439 H         1 <0>         0.0189
     44 H13        -3.4869  -11.9558    0.4644 H         1 <0>         0.0647
     45 H14        -4.1397  -12.1782   -1.1765 H         1 <0>         0.0701
     46 H15        -2.9684   -8.3904    0.1522 H         1 <0>         0.0692
     47 H16        -2.8230   -9.8089    1.2175 H         1 <0>         0.0612
     48 H17        -1.6986   -9.6014   -0.1466 H         1 <0>         0.0163
     49 H18         0.7410   -6.6606   -0.3361 H         1 <0>         0.1348
     50 H19         1.0856   -6.6691   -2.0892 H         1 <0>         0.1344
     51 H20         3.7760   -2.4786    0.0059 H         1 <0>         0.1315
     52 H21         3.8450   -2.0594   -1.7195 H         1 <0>         0.1029
     53 H22         3.8223   -4.2067   -0.6579 H         1 <0>         0.4399
     54 H23        -0.0311    0.9317   -2.4804 H         1 <0>         0.4032
@<TRIPOS>BOND
     1    1    2 1
     2    1   32 1
     3    1   33 1
     4    1   34 1
     5    2    3 1
     6    2   35 1
     7    2   36 1
     8    3   28 1
     9    3    4 1
    10    3   31 1
    11    4   25 1
    12    4    5 2
    13    5    6 1
    14    5   37 1
    15    6   23 1
    16    6    7 2
    17    7   17 ar
    18    7    8 ar
    19    8    9 ar
    20    8   22 1
    21    9   10 ar
    22    9   38 1
    23   10   16 ar
    24   10   11 2
    25   11   12 1
    26   11   18 1
    27   12   13 2
    28   12   14 1
    29   14   15 2
    30   14   39 1
    31   15   16 1
    32   15   40 1
    33   16   17 ar
    34   18   19 1
    35   18   41 1
    36   18   42 1
    37   19   20 1
    38   19   21 1
    39   20   43 1
    40   20   44 1
    41   20   45 1
    42   21   46 1
    43   21   47 1
    44   21   48 1
    45   22   23 1
    46   22   49 1
    47   22   50 1
    48   23   24 1
    49   24   25 2
    50   24   30 1
    51   25   26 1
    52   26   27 1
    53   26   51 1
    54   26   52 1
    55   27   28 1
    56   28   29 2
    57   30   53 1
    58   31   54 1
@<TRIPOS>MOLECULE
ZINC35018256
   53    57     0     0     0
SMALL
NO_CHARGES

@<TRIPOS>ATOM
      1 C1         -0.0187    1.5258    0.0104 C.3       1 <0>        -0.1386
      2 C2          0.0021   -0.0041    0.0020 C.3       1 <0>        -0.1177
      3 C3          0.7182   -0.4975   -1.2568 C.3       1 <0>         0.1681
      4 C4          0.7553   -2.0062   -1.2592 C.2       1 <0>         0.0796
      5 C5         -0.4153   -2.7052   -1.5925 C.2       1 <0>         0.0458
      6 C6         -0.4108   -4.0628   -1.5905 C.2       1 <0>         0.0021
      7 N1          0.6870   -4.7185   -1.0052 N.4       1 <0>        -0.3378
      8 C7          1.9043   -4.0665   -0.8901 C.2       1 <0>         0.4419
      9 O1          3.0372   -4.7603   -0.6920 O.3       1 <0>        -0.4448
     10 C8          1.9290   -2.6959   -0.9832 C.2       1 <0>        -0.2534
     11 C9          3.2440   -1.9894   -0.7899 C.3       1 <0>         0.1527
     12 O2          3.0337   -0.6102   -0.4835 O.3       1 <0>        -0.3840
     13 C10         2.1368    0.0243   -1.2701 C.2       1 <0>         0.4571
     14 O3          2.4550    0.9676   -1.9548 O.2       1 <0>        -0.4164
     15 C11         0.8238   -5.9837   -1.7409 C.3       1 <0>         0.0561
     16 C12        -0.6047   -6.3156   -2.1321 C.ar      1 <0>        -0.1858
     17 C13        -1.3375   -5.1069   -2.0386 C.ar      1 <0>         0.1866
     18 N2         -2.6316   -5.0662   -2.3330 N.ar      1 <0>        -0.4104
     19 C14        -3.2905   -6.1527   -2.7147 C.ar      1 <0>         0.1992
     20 C15        -4.6678   -6.1089   -3.0245 C.2       1 <0>        -0.0606
     21 C16        -5.3102   -7.2380   -3.4064 C.2       1 <0>        -0.1169
     22 C17        -4.6365   -8.4721   -3.5069 C.2       1 <0>         0.2989
     23 C18        -3.2792   -8.5731   -3.2157 C.2       1 <0>        -0.0203
     24 C19        -2.5809   -7.4329   -2.8188 C.ar      1 <0>        -0.0988
     25 C20        -1.2036   -7.4695   -2.5118 C.ar      1 <0>         0.0082
     26 C21        -2.5723   -9.8993   -3.3278 C.3       1 <0>         0.0791
     27 N3         -2.0383  -10.0561   -4.6873 N.3       1 <0>        -0.5303
     28 C22        -0.9804   -9.0725   -4.9541 C.3       1 <0>         0.0088
     29 C23        -1.5523  -11.4248   -4.9074 C.3       1 <0>         0.0230
     30 O4         -5.3106   -9.5606   -3.8867 O.2       1 <0>        -0.4234
     31 O5          0.0252   -0.0308   -2.4161 O.3       1 <0>        -0.7666
     32 H1          1.0039    1.9031    0.0027 H         1 <0>         0.0459
     33 H2         -0.5459    1.8868   -0.8726 H         1 <0>         0.0737
     34 H3         -0.5289    1.8773    0.9072 H         1 <0>         0.0492
     35 H4          0.5293   -0.3651    0.8851 H         1 <0>         0.0484
     36 H5         -1.0205   -0.3814    0.0098 H         1 <0>         0.0679
     37 H6         -1.3149   -2.1658   -1.8496 H         1 <0>         0.2053
     38 H7          3.7880   -2.4605    0.0288 H         1 <0>         0.1270
     39 H8          3.8323   -2.0687   -1.7040 H         1 <0>         0.0885
     40 H9          1.4436   -5.8481   -2.6272 H         1 <0>         0.1577
     41 H10         1.2365   -6.7603   -1.0969 H         1 <0>         0.1628
     42 H11        -5.2077   -5.1759   -2.9573 H         1 <0>         0.1652
     43 H12        -6.3636   -7.1919   -3.6399 H         1 <0>         0.1625
     44 H13        -0.6436   -8.3906   -2.5781 H         1 <0>         0.1633
     45 H14        -1.7535   -9.9365   -2.6093 H         1 <0>         0.0581
     46 H15        -3.2760  -10.7050   -3.1187 H         1 <0>         0.1124
     47 H16        -0.1675   -9.2108   -4.2412 H         1 <0>         0.0300
     48 H17        -0.6027   -9.2109   -5.9672 H         1 <0>         0.0813
     49 H18        -1.3860   -8.0659   -4.8519 H         1 <0>         0.0660
     50 H19        -2.3736  -12.1284   -4.7711 H         1 <0>         0.0779
     51 H20        -1.1625  -11.5133   -5.9214 H         1 <0>         0.0782
     52 H21        -0.7601  -11.6483   -4.1928 H         1 <0>         0.0314
     53 H22         0.4056   -4.9772   -0.0714 H         1 <0>         0.4462
@<TRIPOS>BOND
     1    1    2 1
     2    1   32 1
     3    1   33 1
     4    1   34 1
     5    2    3 1
     6    2   35 1
     7    2   36 1
     8    3   13 1
     9    3    4 1
    10    3   31 1
    11    4   10 1
    12    4    5 2
    13    5    6 1
    14    5   37 1
    15    6   17 2
    16    6    7 1
    17    7    8 1
    18    7   15 1
    19    7   53 1
    20    8    9 1
    21    8   10 2
    22   10   11 1
    23   11   12 1
    24   11   38 1
    25   11   39 1
    26   12   13 1
    27   13   14 2
    28   15   16 1
    29   15   40 1
    30   15   41 1
    31   16   25 ar
    32   16   17 ar
    33   17   18 ar
    34   18   19 ar
    35   19   24 ar
    36   19   20 1
    37   20   21 2
    38   20   42 1
    39   21   22 1
    40   21   43 1
    41   22   23 1
    42   22   30 2
    43   23   24 2
    44   23   26 1
    45   24   25 ar
    46   25   44 1
    47   26   27 1
    48   26   45 1
    49   26   46 1
    50   27   28 1
    51   27   29 1
    52   28   47 1
    53   28   48 1
    54   28   49 1
    55   29   50 1
    56   29   51 1
    57   29   52 1
