@<TRIPOS>MOLECULE
ZINC02894260
   36    37     0     0     0
SMALL
USER_CHARGES
3-[(2-bromo-3,5-dinitro-benzoyl)amino]-1-phenyl-urea
@<TRIPOS>ATOM
      1 C1         -0.0567    4.1618    0.0043 C.ar      1 <0>        -0.1290
      2 C2          0.9942    3.4863    0.5971 C.ar      1 <0>        -0.1001
      3 C3          1.0165    2.1054    0.5982 C.ar      1 <0>        -0.1417
      4 C4         -0.0176    1.3953    0.0026 C.ar      1 <0>         0.1498
      5 C5         -1.0684    2.0766   -0.5974 C.ar      1 <0>        -0.1174
      6 C6         -1.0878    3.4576   -0.5900 C.ar      1 <0>        -0.1005
      7 N1          0.0021   -0.0041    0.0020 N.am      1 <0>        -0.6828
      8 C7         -1.1504   -0.6943    0.1110 C.2       1 <0>         0.7156
      9 O1         -2.2134   -0.1042    0.1245 O.2       1 <0>        -0.5392
     10 N2         -1.1246   -2.0385    0.2051 N.am      1 <0>        -0.5186
     11 N3          0.1003   -2.7184    0.1896 N.am      1 <0>        -0.5198
     12 C8          0.1262   -4.0626    0.2837 C.2       1 <0>         0.5606
     13 O2         -0.9133   -4.6851    0.3820 O.2       1 <0>        -0.4733
     14 C9          1.4182   -4.7798    0.2672 C.ar      1 <0>        -0.1016
     15 C10         2.6141   -4.0680    0.1544 C.ar      1 <0>         0.0228
     16 C11         3.8164   -4.7433    0.1402 C.ar      1 <0>        -0.0371
     17 C12         3.8401   -6.1238    0.2370 C.ar      1 <0>         0.0397
     18 C13         2.6601   -6.8360    0.3490 C.ar      1 <0>        -0.0283
     19 C14         1.4491   -6.1723    0.3704 C.ar      1 <0>         0.0393
     20 Br1        -0.1634   -7.1468    0.5315 Br        1 <0>         0.1071
     21 N4          2.6952   -8.3121    0.4525 N.pl3     1 <0>         0.0195
     22 O3          3.7628   -8.8983    0.4389 O.2       1 <0>        -0.1288
     23 O4          1.6566   -8.9406    0.5512 O.3       1 <0>        -0.1053
     24 N5          5.0848   -3.9898    0.0206 N.pl3     1 <0>         0.0230
     25 O5          5.0658   -2.7749   -0.0650 O.2       1 <0>        -0.1287
     26 O6          6.1476   -4.5846    0.0079 O.3       1 <0>        -0.1206
     27 H1         -0.0721    5.2417    0.0051 H         1 <0>         0.1257
     28 H2          1.7982    4.0392    1.0601 H         1 <0>         0.1290
     29 H3          1.8376    1.5784    1.0613 H         1 <0>         0.1263
     30 H4         -1.8717    1.5272   -1.0656 H         1 <0>         0.1404
     31 H5         -1.9070    3.9881   -1.0525 H         1 <0>         0.1281
     32 H6          0.8452   -0.4772   -0.0769 H         1 <0>         0.3994
     33 H7         -1.9540   -2.5352    0.2836 H         1 <0>         0.4512
     34 H8          0.9298   -2.2216    0.1111 H         1 <0>         0.4182
     35 H9          2.5975   -2.9908    0.0788 H         1 <0>         0.1780
     36 H10         4.7847   -6.6473    0.2246 H         1 <0>         0.1991
@<TRIPOS>BOND
     1    1    6 ar
     2    1    2 ar
     3    1   27 1
     4    2    3 ar
     5    2   28 1
     6    3    4 ar
     7    3   29 1
     8    4    5 ar
     9    4    7 1
    10    5    6 ar
    11    5   30 1
    12    6   31 1
    13    7    8 am
    14    7   32 1
    15    8    9 2
    16    8   10 am
    17   10   11 1
    18   10   33 1
    19   11   12 am
    20   11   34 1
    21   12   13 2
    22   12   14 1
    23   14   19 ar
    24   14   15 ar
    25   15   16 ar
    26   15   35 1
    27   16   17 ar
    28   16   24 1
    29   17   18 ar
    30   17   36 1
    31   18   19 ar
    32   18   21 1
    33   19   20 1
    34   21   22 2
    35   21   23 1
    36   24   25 2
    37   24   26 1
@<TRIPOS>MOLECULE
ZINC00877569
   50    53     0     0     0
SMALL
USER_CHARGES

@<TRIPOS>ATOM
      1 C1         -0.0167    1.3781    0.0096 C.ar      1 <0>        -0.1142
      2 C2          1.1709    2.0855    0.0021 C.ar      1 <0>        -0.1175
      3 C3          2.3773    1.4107   -0.0130 C.ar      1 <0>        -0.0995
      4 C4          2.3960    0.0285   -0.0201 C.ar      1 <0>        -0.1024
      5 C5          1.2084   -0.6789   -0.0117 C.ar      1 <0>        -0.1033
      6 C6          0.0021   -0.0041    0.0020 C.ar      1 <0>        -0.1202
      7 C7          3.7112   -0.7071   -0.0376 C.3       1 <0>         0.2058
      8 H1          4.4960   -0.0399   -0.3940 H         1 <0>         0.1102
      9 C8          4.0489   -1.1818    1.3772 C.3       1 <0>        -0.1413
     10 C9          5.4192   -1.8089    1.3830 C.2       1 <0>         0.5025
     11 O1          6.0623   -1.8702    0.3567 O.2       1 <0>        -0.4398
     12 N1          5.9299   -2.3017    2.5287 N.am      1 <0>        -0.6167
     13 C10         7.1896   -2.8782    2.5341 C.2       1 <0>         0.3989
     14 N2          8.0299   -3.0296    1.5371 N.2       1 <0>        -0.5168
     15 C11         9.2371   -3.6161    1.6879 C.ar      1 <0>         0.1639
     16 C12        10.2282   -3.8399    0.7042 C.ar      1 <0>        -0.0663
     17 C13        11.4092   -4.4550    1.0274 C.ar      1 <0>        -0.0443
     18 C14        11.6756   -4.8788    2.3215 C.ar      1 <0>        -0.0470
     19 C15        10.7290   -4.6760    3.3088 C.ar      1 <0>         0.0219
     20 C16         9.5432   -4.0603    2.9944 C.ar      1 <0>        -0.1771
     21 S1          8.0873   -3.5979    3.9017 S.3       1 <0>         0.0554
     22 N3         12.9599   -5.5415    2.6418 N.pl3     1 <0>         0.0381
     23 O2         13.7830   -5.7160    1.7737 O.2       1 <0>        -0.1483
     24 O3         13.1856   -5.9083    3.7715 O.3       1 <0>        -0.1559
     25 N4          3.6115   -1.8645   -0.9302 N.am      1 <0>        -0.7162
     26 C17         3.8246   -1.7159   -2.2527 C.2       1 <0>         0.5701
     27 O4          4.0994   -0.6216   -2.7048 O.2       1 <0>        -0.5259
     28 C18         3.7240   -2.8839   -3.1535 C.ar      1 <0>        -0.1330
     29 C19         3.4029   -4.1407   -2.6384 C.ar      1 <0>        -0.0866
     30 C20         3.3101   -5.2264   -3.4845 C.ar      1 <0>        -0.1277
     31 C21         3.5351   -5.0715   -4.8408 C.ar      1 <0>        -0.0933
     32 C22         3.8542   -3.8285   -5.3578 C.ar      1 <0>        -0.1261
     33 C23         3.9441   -2.7334   -4.5236 C.ar      1 <0>        -0.0592
     34 H2         -0.9591    1.9053    0.0259 H         1 <0>         0.1229
     35 H3          1.1563    3.1654    0.0076 H         1 <0>         0.1246
     36 H4          3.3051    1.9634   -0.0196 H         1 <0>         0.1241
     37 H5          1.2231   -1.7588   -0.0176 H         1 <0>         0.1178
     38 H6         -0.9258   -0.5567    0.0082 H         1 <0>         0.1227
     39 H7          4.0357   -0.3312    2.0587 H         1 <0>         0.1251
     40 H8          3.3115   -1.9170    1.6995 H         1 <0>         0.1131
     41 H9          5.4155   -2.2527    3.3496 H         1 <0>         0.4338
     42 H10        10.0521   -3.5229   -0.3131 H         1 <0>         0.1584
     43 H11        12.1494   -4.6140    0.2572 H         1 <0>         0.1643
     44 H12        10.9212   -5.0004    4.3209 H         1 <0>         0.1636
     45 H13         3.3922   -2.7378   -0.5694 H         1 <0>         0.3964
     46 H14         3.2277   -4.2631   -1.5797 H         1 <0>         0.1209
     47 H15         3.0617   -6.1995   -3.0872 H         1 <0>         0.1285
     48 H16         3.4616   -5.9247   -5.4989 H         1 <0>         0.1282
     49 H17         4.0290   -3.7143   -6.4175 H         1 <0>         0.1311
     50 H18         4.1885   -1.7627   -4.9290 H         1 <0>         0.1362
@<TRIPOS>BOND
     1    1    6 ar
     2    1    2 ar
     3    1   34 1
     4    2    3 ar
     5    2   35 1
     6    3    4 ar
     7    3   36 1
     8    4    5 ar
     9    4    7 1
    10    5    6 ar
    11    5   37 1
    12    6   38 1
    13    7    8 1
    14    7    9 1
    15    7   25 1
    16    9   10 1
    17    9   39 1
    18    9   40 1
    19   10   11 2
    20   10   12 am
    21   12   13 1
    22   12   41 1
    23   13   21 1
    24   13   14 2
    25   14   15 1
    26   15   20 ar
    27   15   16 ar
    28   16   17 ar
    29   16   42 1
    30   17   18 ar
    31   17   43 1
    32   18   19 ar
    33   18   22 1
    34   19   20 ar
    35   19   44 1
    36   20   21 1
    37   22   23 2
    38   22   24 1
    39   25   26 am
    40   25   45 1
    41   26   27 2
    42   26   28 1
    43   28   33 ar
    44   28   29 ar
    45   29   30 ar
    46   29   46 1
    47   30   31 ar
    48   30   47 1
    49   31   32 ar
    50   31   48 1
    51   32   33 ar
    52   32   49 1
    53   33   50 1
@<TRIPOS>MOLECULE
ZINC00877571
   50    53     0     0     0
SMALL
USER_CHARGES

@<TRIPOS>ATOM
      1 C1         -0.0167    1.3781    0.0096 C.ar      1 <0>        -0.1142
      2 C2          1.1709    2.0855    0.0021 C.ar      1 <0>        -0.1175
      3 C3          2.3773    1.4107   -0.0130 C.ar      1 <0>        -0.0994
      4 C4          2.3960    0.0285   -0.0201 C.ar      1 <0>        -0.1024
      5 C5          1.2084   -0.6789   -0.0117 C.ar      1 <0>        -0.1033
      6 C6          0.0021   -0.0041    0.0020 C.ar      1 <0>        -0.1202
      7 C7          3.7112   -0.7071   -0.0376 C.3       1 <0>         0.2057
      8 H1          4.5034   -0.0434    0.3089 H         1 <0>         0.1102
      9 C8          4.0191   -1.1676   -1.4638 C.3       1 <0>        -0.1412
     10 C9          5.3889   -1.7945   -1.5045 C.2       1 <0>         0.5025
     11 O1          6.0534   -1.8659   -0.4926 O.2       1 <0>        -0.4398
     12 N1          5.8755   -2.2757   -2.6656 N.am      1 <0>        -0.6167
     13 C10         7.1348   -2.8520   -2.7031 C.2       1 <0>         0.3990
     14 N2          7.9911   -3.0237   -1.7232 N.2       1 <0>        -0.5168
     15 C11         9.1955   -3.6069   -1.9055 C.ar      1 <0>         0.1639
     16 C12        10.2026   -3.8499   -0.9429 C.ar      1 <0>        -0.0663
     17 C13        11.3784   -4.4576   -1.2979 C.ar      1 <0>        -0.0443
     18 C14        11.6240   -4.8541   -2.6046 C.ar      1 <0>        -0.0470
     19 C15        10.6612   -4.6322   -3.5719 C.ar      1 <0>         0.0219
     20 C16         9.4802   -4.0245   -3.2256 C.ar      1 <0>        -0.1771
     21 S1          8.0035   -3.5580   -4.0964 S.3       1 <0>         0.0553
     22 N3         12.9038   -5.5077   -2.9597 N.pl3     1 <0>         0.0380
     23 O2         13.7415   -5.6984   -2.1091 O.2       1 <0>        -0.1483
     24 O3         13.1114   -5.8507   -4.1003 O.3       1 <0>        -0.1558
     25 N4          3.6301   -1.8734    0.8453 N.am      1 <0>        -0.7162
     26 C17         3.8709   -1.7379    2.1645 C.2       1 <0>         0.5701
     27 O4          4.1553   -0.6481    2.6217 O.2       1 <0>        -0.5259
     28 C18         3.7891   -2.9149    3.0555 C.ar      1 <0>        -0.1331
     29 C19         3.4684   -4.1687    2.5329 C.ar      1 <0>        -0.0865
     30 C20         3.3942   -5.2630    3.3697 C.ar      1 <0>        -0.1277
     31 C21         3.6363   -5.1195    4.7244 C.ar      1 <0>        -0.0932
     32 C22         3.9542   -3.8793    5.2489 C.ar      1 <0>        -0.1261
     33 C23         4.0378   -2.7781    4.4221 C.ar      1 <0>        -0.0592
     34 H2         -0.9591    1.9053    0.0259 H         1 <0>         0.1229
     35 H3          1.1563    3.1654    0.0076 H         1 <0>         0.1246
     36 H4          3.3051    1.9634   -0.0196 H         1 <0>         0.1241
     37 H5          1.2231   -1.7588   -0.0176 H         1 <0>         0.1178
     38 H6         -0.9258   -0.5567    0.0082 H         1 <0>         0.1227
     39 H7          3.2750   -1.8996   -1.7778 H         1 <0>         0.1131
     40 H8          3.9917   -0.3102   -2.1363 H         1 <0>         0.1251
     41 H9          5.3439   -2.2186   -3.4750 H         1 <0>         0.4338
     42 H10        10.0435   -3.5529    0.0832 H         1 <0>         0.1584
     43 H11        12.1312   -4.6316   -0.5433 H         1 <0>         0.1643
     44 H12        10.8374   -4.9347   -4.5936 H         1 <0>         0.1635
     45 H13         3.4032   -2.7430    0.4805 H         1 <0>         0.3964
     46 H14         3.2785   -4.2820    1.4757 H         1 <0>         0.1209
     47 H15         3.1462   -6.2338    2.9666 H         1 <0>         0.1285
     48 H16         3.5766   -5.9792    5.3752 H         1 <0>         0.1282
     49 H17         4.1417   -3.7739    6.3073 H         1 <0>         0.1311
     50 H18         4.2908   -1.8114    4.8320 H         1 <0>         0.1362
@<TRIPOS>BOND
     1    1    6 ar
     2    1    2 ar
     3    1   34 1
     4    2    3 ar
     5    2   35 1
     6    3    4 ar
     7    3   36 1
     8    4    5 ar
     9    4    7 1
    10    5    6 ar
    11    5   37 1
    12    6   38 1
    13    7    8 1
    14    7    9 1
    15    7   25 1
    16    9   10 1
    17    9   39 1
    18    9   40 1
    19   10   11 2
    20   10   12 am
    21   12   13 1
    22   12   41 1
    23   13   21 1
    24   13   14 2
    25   14   15 1
    26   15   20 ar
    27   15   16 ar
    28   16   17 ar
    29   16   42 1
    30   17   18 ar
    31   17   43 1
    32   18   19 ar
    33   18   22 1
    34   19   20 ar
    35   19   44 1
    36   20   21 1
    37   22   23 2
    38   22   24 1
    39   25   26 am
    40   25   45 1
    41   26   27 2
    42   26   28 1
    43   28   33 ar
    44   28   29 ar
    45   29   30 ar
    46   29   46 1
    47   30   31 ar
    48   30   47 1
    49   31   32 ar
    50   31   48 1
    51   32   33 ar
    52   32   49 1
    53   33   50 1
@<TRIPOS>MOLECULE
ZINC03953823
   43    46     0     0     0
SMALL
USER_CHARGES
3-hydroxy-4-[(1-hydroxy-2-naphthyl)azo]-7-nitro-naphthalene-1-sulfonic acid
@<TRIPOS>ATOM
      1 C1         -0.9987   -4.8865   -0.5948 C.ar      1 <0>        -0.1016
      2 C2         -2.1985   -4.2256   -0.8489 C.ar      1 <0>        -0.1236
      3 C3         -2.2635   -2.8655   -0.8405 C.ar      1 <0>        -0.0855
      4 C4         -1.1062   -2.1154   -0.5722 C.ar      1 <0>        -0.0844
      5 C5          0.1147   -2.7875   -0.3136 C.ar      1 <0>        -0.0206
      6 C6          0.1425   -4.1916   -0.3309 C.ar      1 <0>        -0.1135
      7 C7          1.2789   -2.0428   -0.0443 C.ar      1 <0>        -0.1187
      8 C8          1.2359   -0.6870   -0.0386 C.ar      1 <0>        -0.0934
      9 C9          0.0322   -0.0010   -0.2872 C.ar      1 <0>         0.0213
     10 C10        -1.1391   -0.7079   -0.5569 C.ar      1 <0>         0.1960
     11 O1         -2.2977   -0.0468   -0.8015 O.3       1 <0>        -0.4753
     12 N1          0.0127    1.3618   -0.2698 N.2       1 <0>        -0.1887
     13 N2          1.0943    2.0192   -0.0207 N.2       1 <0>        -0.2133
     14 C11         1.0748    3.3787   -0.0032 C.ar      1 <0>         0.0367
     15 C12         2.2902    4.1400    0.2833 C.ar      1 <0>         0.0235
     16 C13         3.5067    3.5008    0.5481 C.ar      1 <0>        -0.0954
     17 C14         4.6172    4.2472    0.8112 C.ar      1 <0>        -0.0702
     18 C15         4.5577    5.6384    0.8200 C.ar      1 <0>        -0.0475
     19 C16         3.3931    6.2922    0.5527 C.ar      1 <0>        -0.0203
     20 C17         2.2275    5.5545    0.2848 C.ar      1 <0>        -0.0109
     21 C18         1.0023    6.1949    0.0257 C.ar      1 <0>        -0.5843
     22 C19        -0.1197    5.4728   -0.2329 C.ar      1 <0>        -0.0619
     23 C20        -0.1076    4.0788   -0.2529 C.ar      1 <0>         0.1631
     24 O2         -1.2517    3.3982   -0.5161 O.3       1 <0>        -0.4659
     25 S1          0.9213    7.9550    0.0358 S.o2      1 <0>         2.6809
     26 O3          2.1854    8.4224   -0.4145 O.2       1 <0>        -1.0336
     27 O4         -0.2952    8.3093   -0.6075 O.2       1 <0>        -1.0372
     28 N3          5.7821    6.4187    1.1089 N.pl3     1 <0>         0.0298
     29 O5          6.8313    5.8434    1.3366 O.2       1 <0>        -0.1748
     30 O6          5.7403    7.6359    1.1190 O.3       1 <0>        -0.1427
     31 H1         -0.9733   -5.9661   -0.6069 H         1 <0>         0.1259
     32 H2         -3.0895   -4.8000   -1.0551 H         1 <0>         0.1266
     33 H3         -3.2002   -2.3658   -1.0388 H         1 <0>         0.1346
     34 H4          1.0651   -4.7182   -0.1362 H         1 <0>         0.1314
     35 H5          2.2104   -2.5526    0.1531 H         1 <0>         0.1339
     36 H6          2.1363   -0.1263    0.1645 H         1 <0>         0.1410
     37 H7         -2.4436    0.1591   -1.7350 H         1 <0>         0.3994
     38 H8          3.5658    2.4224    0.5439 H         1 <0>         0.1529
     39 H9          5.5553    3.7528    1.0158 H         1 <0>         0.1535
     40 H10         3.3620    7.3717    0.5627 H         1 <0>         0.2078
     41 H11        -1.0457    5.9930   -0.4285 H         1 <0>         0.1597
     42 H12        -1.7736    3.1872    0.2701 H         1 <0>         0.3988
     43 O7          0.7884    8.3910    1.4880 O.3       1 <0>        -1.0535
@<TRIPOS>BOND
     1    1    6 ar
     2    1    2 ar
     3    1   31 1
     4    2    3 ar
     5    2   32 1
     6    3    4 ar
     7    3   33 1
     8    4   10 ar
     9    4    5 ar
    10    5    6 ar
    11    5    7 ar
    12    6   34 1
    13    7    8 ar
    14    7   35 1
    15    8    9 ar
    16    8   36 1
    17    9   10 ar
    18    9   12 1
    19   10   11 1
    20   11   37 1
    21   12   13 2
    22   13   14 1
    23   14   23 ar
    24   14   15 ar
    25   15   20 ar
    26   15   16 ar
    27   16   17 ar
    28   16   38 1
    29   17   18 ar
    30   17   39 1
    31   18   19 ar
    32   18   28 1
    33   19   20 ar
    34   19   40 1
    35   20   21 ar
    36   21   22 ar
    37   21   25 1
    38   22   23 ar
    39   22   41 1
    40   23   24 1
    41   24   42 1
    42   25   26 2
    43   25   27 2
    44   25   43 1
    45   28   29 2
    46   28   30 1
@<TRIPOS>MOLECULE
ZINC00781681
   59    63     0     0     0
SMALL
USER_CHARGES
(4-methoxyphenyl)methyl (4S,7R)-2-methyl-5-oxo-4,7-bis(2-thienyl)-4,6,7,8-tetrahydro-1H-quinoline-3-carboxylate
@<TRIPOS>ATOM
      1 C1         -4.8526    8.2903   -3.7028 C.3       1 <0>        -0.2300
      2 C2         -4.6637    7.5845   -2.3848 C.2       1 <0>         0.2613
      3 C3         -5.2033    8.1012   -1.2673 C.2       1 <0>        -0.2737
      4 C4         -5.0432    7.4221    0.0609 C.3       1 <0>         0.1271
      5 H1         -4.8147    8.1893    0.8153 H         1 <0>         0.1067
      6 C5         -3.9113    6.4262    0.0268 C.2       1 <0>        -0.2775
      7 C6         -3.4233    5.9770   -1.1488 C.2       1 <0>         0.2218
      8 N1         -3.9451    6.4228   -2.3335 N.pl3     1 <0>        -0.6412
      9 C7         -2.2954    4.9757   -1.1933 C.3       1 <0>        -0.0912
     10 C8         -2.3549    4.0797    0.0459 C.3       1 <0>         0.0102
     11 H2         -3.2863    3.4945    0.0503 H         1 <0>         0.1071
     12 C9         -2.2725    4.9642    1.2945 C.3       1 <0>        -0.1626
     13 C10        -3.3836    5.9775    1.2504 C.2       1 <0>         0.4050
     14 O1         -3.8327    6.4163    2.2906 O.2       1 <0>        -0.4569
     15 C11        -1.1962    3.1163    0.0303 C.2       1 <0>        -0.1456
     16 C12        -1.2130    1.7610    0.0173 C.2       1 <0>        -0.1470
     17 C13        -0.0126    1.0758    0.0080 C.2       1 <0>        -0.1579
     18 C14         1.1459    1.7795    0.0007 C.2       1 <0>        -0.1677
     19 S1          0.5548    3.4640    0.0154 S.3       1 <0>         0.0375
     20 C15        -6.3229    6.7050    0.4065 C.2       1 <0>        -0.1064
     21 C16        -7.1540    6.9017    1.4590 C.2       1 <0>        -0.1452
     22 C17        -8.2859    6.1169    1.5751 C.2       1 <0>        -0.1479
     23 C18        -8.5313    5.1737    0.6331 C.2       1 <0>        -0.1837
     24 S2         -7.1415    5.3814   -0.4681 S.3       1 <0>         0.0121
     25 C19        -5.9364    9.3084   -1.3451 C.2       1 <0>         0.5348
     26 O2         -6.0736    9.8689   -2.4164 O.2       1 <0>        -0.5131
     27 O3         -6.4836    9.8385   -0.2313 O.3       1 <0>        -0.3323
     28 C20        -7.2106   11.0593   -0.3834 C.3       1 <0>         0.1115
     29 C21        -7.7444   11.4964    0.9564 C.ar      1 <0>        -0.1346
     30 C22        -8.9957   11.0785    1.3704 C.ar      1 <0>        -0.0508
     31 C23        -9.4849   11.4732    2.6006 C.ar      1 <0>        -0.2109
     32 C24        -8.7244   12.2988    3.4158 C.ar      1 <0>         0.1388
     33 C25        -7.4716   12.7213    2.9956 C.ar      1 <0>        -0.1546
     34 C26        -6.9845   12.3193    1.7670 C.ar      1 <0>        -0.0536
     35 O4         -9.2056   12.6926    4.6242 O.3       1 <0>        -0.3159
     36 C27       -10.5029   12.2190    4.9915 C.3       1 <0>         0.0225
     37 H3         -5.4523    9.1995   -3.5492 H         1 <0>         0.1905
     38 H4         -5.3727    7.6223   -4.4052 H         1 <0>         0.0779
     39 H5         -3.8707    8.5642   -4.1161 H         1 <0>         0.0792
     40 H6         -3.7814    5.8365   -3.2497 H         1 <0>         0.4479
     41 H7         -2.3906    4.3561   -2.0972 H         1 <0>         0.0984
     42 H8         -1.3330    5.5081   -1.2135 H         1 <0>         0.1064
     43 H9         -2.3755    4.3393    2.1939 H         1 <0>         0.1046
     44 H10        -1.3009    5.4795    1.3154 H         1 <0>         0.1048
     45 H11        -2.1503    1.2245    0.0184 H         1 <0>         0.1342
     46 H12         0.0021   -0.0041    0.0020 H         1 <0>         0.1352
     47 H13         2.1627    1.4156   -0.0107 H         1 <0>         0.1864
     48 H14        -6.9354    7.6606    2.1957 H         1 <0>         0.1318
     49 H15        -8.9645    6.2529    2.4043 H         1 <0>         0.1293
     50 H16        -9.3557    4.4794    0.5643 H         1 <0>         0.1809
     51 H17        -6.5426   11.8364   -0.7832 H         1 <0>         0.0783
     52 H18        -8.0486   10.9029   -1.0786 H         1 <0>         0.0770
     53 H19        -9.5892   10.4394    0.7335 H         1 <0>         0.1261
     54 H20       -10.4605   11.1429    2.9254 H         1 <0>         0.1305
     55 H21        -6.8778   13.3643    3.6283 H         1 <0>         0.1340
     56 H22        -6.0091   12.6476    1.4396 H         1 <0>         0.1317
     57 H23       -10.7682   12.6099    5.9849 H         1 <0>         0.1033
     58 H24       -10.4974   11.1194    5.0196 H         1 <0>         0.0579
     59 H25       -11.2416   12.5632    4.2527 H         1 <0>         0.0576
@<TRIPOS>BOND
     1    1    2 1
     2    1   37 1
     3    1   38 1
     4    1   39 1
     5    2    8 1
     6    2    3 2
     7    3    4 1
     8    3   25 1
     9    4    5 1
    10    4    6 1
    11    4   20 1
    12    6   13 1
    13    6    7 2
    14    7    8 1
    15    7    9 1
    16    8   40 1
    17    9   10 1
    18    9   41 1
    19    9   42 1
    20   10   11 1
    21   10   12 1
    22   10   15 1
    23   12   13 1
    24   12   43 1
    25   12   44 1
    26   13   14 2
    27   15   19 1
    28   15   16 2
    29   16   17 1
    30   16   45 1
    31   17   18 2
    32   17   46 1
    33   18   19 1
    34   18   47 1
    35   20   24 1
    36   20   21 2
    37   21   22 1
    38   21   48 1
    39   22   23 2
    40   22   49 1
    41   23   24 1
    42   23   50 1
    43   25   26 2
    44   25   27 1
    45   27   28 1
    46   28   29 1
    47   28   51 1
    48   28   52 1
    49   29   34 ar
    50   29   30 ar
    51   30   31 ar
    52   30   53 1
    53   31   32 ar
    54   31   54 1
    55   32   33 ar
    56   32   35 1
    57   33   34 ar
    58   33   55 1
    59   34   56 1
    60   35   36 1
    61   36   57 1
    62   36   58 1
    63   36   59 1
@<TRIPOS>MOLECULE
ZINC00781682
   59    63     0     0     0
SMALL
USER_CHARGES
(4-methoxyphenyl)methyl (4R,7R)-2-methyl-5-oxo-4,7-bis(2-thienyl)-4,6,7,8-tetrahydro-1H-quinoline-3-carboxylate
@<TRIPOS>ATOM
      1 C1          5.6073    7.0157    3.8526 C.3       1 <0>        -0.2271
      2 C2          4.9412    7.0173    2.5008 C.2       1 <0>         0.2607
      3 C3          5.5480    7.6107    1.4583 C.2       1 <0>        -0.2731
      4 C4          4.9118    7.6377    0.0996 C.3       1 <0>         0.1272
      5 H1          5.6862    7.4144   -0.6491 H         1 <0>         0.1071
      6 C5          3.8225    6.6005   -0.0082 C.2       1 <0>        -0.2777
      7 C6          3.2803    6.0525    1.0999 C.2       1 <0>         0.2222
      8 N1          3.7241    6.4155    2.3432 N.pl3     1 <0>        -0.6414
      9 C7          2.1776    5.0277    1.0001 C.3       1 <0>        -0.0934
     10 C8          2.3417    4.2206   -0.2896 C.3       1 <0>         0.0118
     11 H2          3.2874    3.6591   -0.2735 H         1 <0>         0.1061
     12 C9          2.3117    5.1890   -1.4766 C.3       1 <0>        -0.1629
     13 C10         3.3870    6.2246   -1.2911 C.2       1 <0>         0.4050
     14 O1          3.8880    6.7459   -2.2676 O.2       1 <0>        -0.4568
     15 C11         1.2120    3.2311   -0.4148 C.2       1 <0>        -0.1464
     16 C12         1.2661    1.8788   -0.4903 C.2       1 <0>        -0.1470
     17 C13         0.0871    1.1660   -0.6028 C.2       1 <0>        -0.1582
     18 C14        -1.0879    1.8407   -0.6400 C.2       1 <0>        -0.1677
     19 S1         -0.5449    3.5358   -0.5029 S.3       1 <0>         0.0396
     20 C15         4.3209    9.0029   -0.1419 C.2       1 <0>        -0.1087
     21 C16         4.6295    9.9090   -1.1016 C.2       1 <0>        -0.1459
     22 C17         3.9483   11.1114   -1.1322 C.2       1 <0>        -0.1485
     23 C18         2.9918   11.3488   -0.2016 C.2       1 <0>        -0.1825
     24 S2          3.0274    9.8431    0.7570 S.3       1 <0>         0.0123
     25 C19         6.8103    8.2206    1.6457 C.2       1 <0>         0.5346
     26 O2          7.2885    8.2990    2.7619 O.2       1 <0>        -0.5128
     27 O3          7.4844    8.7157    0.5866 O.3       1 <0>        -0.3335
     28 C20         8.7533    9.3180    0.8491 C.3       1 <0>         0.1117
     29 C21         9.3530    9.8095   -0.4431 C.ar      1 <0>        -0.1348
     30 C22        10.1677    8.9760   -1.1870 C.ar      1 <0>        -0.0530
     31 C23        10.7140    9.4223   -2.3747 C.ar      1 <0>        -0.2114
     32 C24        10.4535   10.7117   -2.8155 C.ar      1 <0>         0.1388
     33 C25         9.6404   11.5480   -2.0645 C.ar      1 <0>        -0.1543
     34 C26         9.0922   11.0952   -0.8800 C.ar      1 <0>        -0.0519
     35 O4         10.9943   11.1549   -3.9808 O.3       1 <0>        -0.3160
     36 C27        11.8215   10.2395   -4.7017 C.3       1 <0>         0.0224
     37 H3          6.5710    7.5420    3.7871 H         1 <0>         0.1882
     38 H4          5.7773    5.9783    4.1763 H         1 <0>         0.0771
     39 H5          4.9598    7.5257    4.5810 H         1 <0>         0.0802
     40 H6          3.0904    6.2183    3.2204 H         1 <0>         0.4484
     41 H7          2.2281    4.3494    1.8646 H         1 <0>         0.0998
     42 H8          1.2029    5.5375    0.9906 H         1 <0>         0.1055
     43 H9          2.4896    4.6323   -2.4085 H         1 <0>         0.1048
     44 H10         1.3284    5.6798   -1.5247 H         1 <0>         0.1049
     45 H11         2.2162    1.3659   -0.4633 H         1 <0>         0.1339
     46 H12         0.1023    0.0879   -0.6646 H         1 <0>         0.1352
     47 H13        -2.0921    1.4532   -0.7285 H         1 <0>         0.1865
     48 H14         5.3960    9.6946   -1.8317 H         1 <0>         0.1322
     49 H15         4.1745   11.8504   -1.8865 H         1 <0>         0.1305
     50 H16         2.3674   12.2209   -0.0753 H         1 <0>         0.1814
     51 H17         8.6214   10.1655    1.5379 H         1 <0>         0.0780
     52 H18         9.4242    8.5754    1.3057 H         1 <0>         0.0773
     53 H19        10.3737    7.9738   -0.8412 H         1 <0>         0.1269
     54 H20        11.3464    8.7692   -2.9578 H         1 <0>         0.1310
     55 H21         9.4358   12.5520   -2.4056 H         1 <0>         0.1337
     56 H22         8.4591   11.7458   -0.2950 H         1 <0>         0.1312
     57 H23        12.1910   10.7228   -5.6182 H         1 <0>         0.1034
     58 H24        11.2355    9.3475   -4.9682 H         1 <0>         0.0581
     59 H25        12.6747    9.9435   -4.0736 H         1 <0>         0.0576
@<TRIPOS>BOND
     1    1    2 1
     2    1   37 1
     3    1   38 1
     4    1   39 1
     5    2    8 1
     6    2    3 2
     7    3    4 1
     8    3   25 1
     9    4    5 1
    10    4    6 1
    11    4   20 1
    12    6   13 1
    13    6    7 2
    14    7    8 1
    15    7    9 1
    16    8   40 1
    17    9   10 1
    18    9   41 1
    19    9   42 1
    20   10   11 1
    21   10   12 1
    22   10   15 1
    23   12   13 1
    24   12   43 1
    25   12   44 1
    26   13   14 2
    27   15   19 1
    28   15   16 2
    29   16   17 1
    30   16   45 1
    31   17   18 2
    32   17   46 1
    33   18   19 1
    34   18   47 1
    35   20   24 1
    36   20   21 2
    37   21   22 1
    38   21   48 1
    39   22   23 2
    40   22   49 1
    41   23   24 1
    42   23   50 1
    43   25   26 2
    44   25   27 1
    45   27   28 1
    46   28   29 1
    47   28   51 1
    48   28   52 1
    49   29   34 ar
    50   29   30 ar
    51   30   31 ar
    52   30   53 1
    53   31   32 ar
    54   31   54 1
    55   32   33 ar
    56   32   35 1
    57   33   34 ar
    58   33   55 1
    59   34   56 1
    60   35   36 1
    61   36   57 1
    62   36   58 1
    63   36   59 1
@<TRIPOS>MOLECULE
ZINC00781683
   59    63     0     0     0
SMALL
USER_CHARGES
(4-methoxyphenyl)methyl (4S,7S)-2-methyl-5-oxo-4,7-bis(2-thienyl)-4,6,7,8-tetrahydro-1H-quinoline-3-carboxylate
@<TRIPOS>ATOM
      1 C1          1.0498    0.6343   -4.7764 C.3       1 <0>        -0.2250
      2 C2         -0.2589    1.3799   -4.7259 C.2       1 <0>         0.2610
      3 C3         -0.9424    1.4513   -3.5706 C.2       1 <0>        -0.2737
      4 C4         -2.2417    2.1964   -3.4797 C.3       1 <0>         0.1281
      5 H1         -2.9449    1.5927   -2.8872 H         1 <0>         0.1052
      6 C5         -2.8327    2.4220   -4.8486 C.2       1 <0>        -0.2780
      7 C6         -2.0690    2.3101   -5.9561 C.2       1 <0>         0.2229
      8 N1         -0.7452    1.9752   -5.8563 N.pl3     1 <0>        -0.6415
      9 C7         -2.6503    2.5465   -7.3280 C.3       1 <0>        -0.0934
     10 C8         -4.1284    2.1502   -7.3353 C.3       1 <0>         0.0118
     11 H2         -4.2387    1.0746   -7.1329 H         1 <0>         0.1063
     12 C9         -4.8583    2.9755   -6.2703 C.3       1 <0>        -0.1629
     13 C10        -4.1970    2.7498   -4.9381 C.2       1 <0>         0.4050
     14 O1         -4.8537    2.8529   -3.9210 O.2       1 <0>        -0.4569
     15 C11        -4.7221    2.4345   -8.6910 C.2       1 <0>        -0.1464
     16 C12        -5.3142    1.5791   -9.5599 C.2       1 <0>        -0.1469
     17 C13        -5.7927    2.0681  -10.7610 C.2       1 <0>        -0.1581
     18 C14        -5.6557    3.3887  -11.0343 C.2       1 <0>        -0.1678
     19 S1         -4.8352    3.9866   -9.5658 S.3       1 <0>         0.0391
     20 C15        -2.0027    3.5291   -2.8180 C.2       1 <0>        -0.1057
     21 C16        -2.5419    4.0248   -1.6774 C.2       1 <0>        -0.1432
     22 C17        -2.1691    5.2862   -1.2528 C.2       1 <0>        -0.1472
     23 C18        -1.2834    5.9946   -1.9951 C.2       1 <0>        -0.1837
     24 S2         -0.9419    4.8679   -3.3372 S.3       1 <0>         0.0103
     25 C19        -0.4241    0.8170   -2.4174 C.2       1 <0>         0.5338
     26 O2          0.5647    0.1130   -2.5028 O.2       1 <0>        -0.5138
     27 O3         -1.0262    0.9927   -1.2225 O.3       1 <0>        -0.3315
     28 C20        -0.4489    0.3222   -0.1004 C.3       1 <0>         0.1114
     29 C21        -1.2500    0.6337    1.1375 C.ar      1 <0>        -0.1342
     30 C22        -0.9172    1.7252    1.9183 C.ar      1 <0>        -0.0506
     31 C23        -1.6534    2.0162    3.0505 C.ar      1 <0>        -0.2108
     32 C24        -2.7204    1.2056    3.4099 C.ar      1 <0>         0.1386
     33 C25        -3.0487    0.1077    2.6279 C.ar      1 <0>        -0.1546
     34 C26        -2.3129   -0.1757    1.4936 C.ar      1 <0>        -0.0536
     35 O4         -3.4430    1.4868    4.5260 O.3       1 <0>        -0.3159
     36 C27        -3.0481    2.6327    5.2829 C.3       1 <0>         0.0226
     37 H3          1.2779    0.2262   -3.7807 H         1 <0>         0.1866
     38 H4          1.8518    1.3217   -5.0835 H         1 <0>         0.0760
     39 H5          0.9749   -0.1892   -5.5019 H         1 <0>         0.0819
     40 H6         -0.0708    2.1901   -6.6983 H         1 <0>         0.4480
     41 H7         -2.5564    3.6113   -7.5875 H         1 <0>         0.1054
     42 H8         -2.1058    1.9397   -8.0665 H         1 <0>         0.1000
     43 H9         -4.8069    4.0422   -6.5341 H         1 <0>         0.1048
     44 H10        -5.9110    2.6605   -6.2201 H         1 <0>         0.1049
     45 H11        -5.4110    0.5311   -9.3173 H         1 <0>         0.1340
     46 H12        -6.2689    1.4080  -11.4708 H         1 <0>         0.1352
     47 H13        -5.9660    3.9375  -11.9112 H         1 <0>         0.1865
     48 H14        -3.2501    3.4416   -1.1075 H         1 <0>         0.1313
     49 H15        -2.5802    5.7028   -0.3451 H         1 <0>         0.1290
     50 H16        -0.8868    6.9838   -1.8199 H         1 <0>         0.1807
     51 H17        -0.4561   -0.7633   -0.2784 H         1 <0>         0.0782
     52 H18         0.5874    0.6642    0.0378 H         1 <0>         0.0767
     53 H19        -0.0838    2.3534    1.6405 H         1 <0>         0.1259
     54 H20        -1.3959    2.8714    3.6576 H         1 <0>         0.1304
     55 H21        -3.8786   -0.5250    2.9058 H         1 <0>         0.1339
     56 H22        -2.5683   -1.0300    0.8843 H         1 <0>         0.1316
     57 H23        -3.7117    2.7438    6.1531 H         1 <0>         0.1033
     58 H24        -3.1177    3.5309    4.6517 H         1 <0>         0.0578
     59 H25        -2.0109    2.5055    5.6265 H         1 <0>         0.0575
@<TRIPOS>BOND
     1    1    2 1
     2    1   37 1
     3    1   38 1
     4    1   39 1
     5    2    8 1
     6    2    3 2
     7    3    4 1
     8    3   25 1
     9    4    5 1
    10    4    6 1
    11    4   20 1
    12    6   13 1
    13    6    7 2
    14    7    8 1
    15    7    9 1
    16    8   40 1
    17    9   10 1
    18    9   41 1
    19    9   42 1
    20   10   11 1
    21   10   12 1
    22   10   15 1
    23   12   13 1
    24   12   43 1
    25   12   44 1
    26   13   14 2
    27   15   19 1
    28   15   16 2
    29   16   17 1
    30   16   45 1
    31   17   18 2
    32   17   46 1
    33   18   19 1
    34   18   47 1
    35   20   24 1
    36   20   21 2
    37   21   22 1
    38   21   48 1
    39   22   23 2
    40   22   49 1
    41   23   24 1
    42   23   50 1
    43   25   26 2
    44   25   27 1
    45   27   28 1
    46   28   29 1
    47   28   51 1
    48   28   52 1
    49   29   34 ar
    50   29   30 ar
    51   30   31 ar
    52   30   53 1
    53   31   32 ar
    54   31   54 1
    55   32   33 ar
    56   32   35 1
    57   33   34 ar
    58   33   55 1
    59   34   56 1
    60   35   36 1
    61   36   57 1
    62   36   58 1
    63   36   59 1
@<TRIPOS>MOLECULE
ZINC00781684
   59    63     0     0     0
SMALL
USER_CHARGES
(4-methoxyphenyl)methyl (4R,7S)-2-methyl-5-oxo-4,7-bis(2-thienyl)-4,6,7,8-tetrahydro-1H-quinoline-3-carboxylate
@<TRIPOS>ATOM
      1 C1          5.1379   -0.8497   -3.0900 C.3       1 <0>        -0.2271
      2 C2          4.3049   -0.0986   -2.0835 C.2       1 <0>         0.2600
      3 C3          4.7529    1.0650   -1.5814 C.2       1 <0>        -0.2725
      4 C4          3.9546    1.8364   -0.5718 C.3       1 <0>         0.1269
      5 H1          3.9881    2.9011   -0.8463 H         1 <0>         0.1072
      6 C5          2.5156    1.3856   -0.5605 C.2       1 <0>        -0.2774
      7 C6          2.1588    0.2044   -1.1078 C.2       1 <0>         0.2217
      8 N1          3.0988   -0.6053   -1.6868 N.pl3     1 <0>        -0.6410
      9 C7          0.7211   -0.2528   -1.1006 C.3       1 <0>        -0.0912
     10 C8          0.0122    0.3011    0.1374 C.3       1 <0>         0.0103
     11 H2          0.4702   -0.0993    1.0539 H         1 <0>         0.1075
     12 C9          0.1108    1.8300    0.1102 C.3       1 <0>        -0.1627
     13 C10         1.5605    2.2257    0.0384 C.2       1 <0>         0.4049
     14 O1          1.9122    3.2905    0.5063 O.2       1 <0>        -0.4570
     15 C11        -1.4366   -0.1133    0.1193 C.2       1 <0>        -0.1455
     16 C12        -2.1289   -0.8368    1.0328 C.2       1 <0>        -0.1469
     17 C13        -3.4670   -1.0989    0.8057 C.2       1 <0>        -0.1577
     18 C14        -4.0473   -0.6245   -0.3237 C.2       1 <0>        -0.1677
     19 S1         -2.6883    0.2280   -1.1071 S.3       1 <0>         0.0369
     20 C15         4.5502    1.6244    0.7963 C.2       1 <0>        -0.1085
     21 C16         5.0911    2.5350    1.6422 C.2       1 <0>        -0.1461
     22 C17         5.5791    2.1086    2.8631 C.2       1 <0>        -0.1482
     23 C18         5.5119    0.7910    3.1741 C.2       1 <0>        -0.1829
     24 S2          4.7334    0.1077    1.7200 S.3       1 <0>         0.0127
     25 C19         6.0006    1.5724   -2.0134 C.2       1 <0>         0.5345
     26 O2          6.7057    0.9077   -2.7494 O.2       1 <0>        -0.5126
     27 O3          6.4089    2.7934   -1.6093 O.3       1 <0>        -0.3334
     28 C20         7.6797    3.2426   -2.0842 C.3       1 <0>         0.1117
     29 C21         7.9651    4.6159   -1.5331 C.ar      1 <0>        -0.1349
     30 C22         7.5699    5.7381   -2.2375 C.ar      1 <0>        -0.0529
     31 C23         7.8254    6.9980   -1.7317 C.ar      1 <0>        -0.2114
     32 C24         8.4887    7.1367   -0.5211 C.ar      1 <0>         0.1388
     33 C25         8.8892    6.0092    0.1810 C.ar      1 <0>        -0.1543
     34 C26         8.6268    4.7515   -0.3266 C.ar      1 <0>        -0.0519
     35 O4          8.7462    8.3751   -0.0241 O.3       1 <0>        -0.3160
     36 C27         8.3048    9.4905   -0.8008 C.3       1 <0>         0.0223
     37 H3          6.0667   -0.2937   -3.2852 H         1 <0>         0.1881
     38 H4          4.5716   -0.9580   -4.0268 H         1 <0>         0.0771
     39 H5          5.3833   -1.8456   -2.6926 H         1 <0>         0.0802
     40 H6          2.8762   -1.6727   -1.8317 H         1 <0>         0.4481
     41 H7          0.2152    0.1138   -2.0060 H         1 <0>         0.1063
     42 H8          0.6860   -1.3521   -1.0806 H         1 <0>         0.0983
     43 H9         -0.4233    2.2162   -0.7704 H         1 <0>         0.1047
     44 H10        -0.3418    2.2429    1.0238 H         1 <0>         0.1045
     45 H11        -1.6424   -1.2029    1.9248 H         1 <0>         0.1343
     46 H12        -4.0416   -1.6726    1.5177 H         1 <0>         0.1352
     47 H13        -5.0679   -0.7312   -0.6604 H         1 <0>         0.1864
     48 H14         5.1376    3.5784    1.3675 H         1 <0>         0.1322
     49 H15         6.0116    2.8141    3.5571 H         1 <0>         0.1304
     50 H16         5.8436    0.2856    4.0690 H         1 <0>         0.1812
     51 H17         8.4626    2.5445   -1.7528 H         1 <0>         0.0781
     52 H18         7.6667    3.2840   -3.1833 H         1 <0>         0.0774
     53 H19         7.0575    5.6296   -3.1820 H         1 <0>         0.1269
     54 H20         7.5123    7.8742   -2.2799 H         1 <0>         0.1310
     55 H21         9.4055    6.1146    1.1237 H         1 <0>         0.1337
     56 H22         8.9383    3.8734    0.2195 H         1 <0>         0.1311
     57 H23         8.5753   10.4249   -0.2872 H         1 <0>         0.1034
     58 H24         7.2127    9.4425   -0.9237 H         1 <0>         0.0581
     59 H25         8.7866    9.4626   -1.7893 H         1 <0>         0.0577
@<TRIPOS>BOND
     1    1    2 1
     2    1   37 1
     3    1   38 1
     4    1   39 1
     5    2    8 1
     6    2    3 2
     7    3    4 1
     8    3   25 1
     9    4    5 1
    10    4    6 1
    11    4   20 1
    12    6   13 1
    13    6    7 2
    14    7    8 1
    15    7    9 1
    16    8   40 1
    17    9   10 1
    18    9   41 1
    19    9   42 1
    20   10   11 1
    21   10   12 1
    22   10   15 1
    23   12   13 1
    24   12   43 1
    25   12   44 1
    26   13   14 2
    27   15   19 1
    28   15   16 2
    29   16   17 1
    30   16   45 1
    31   17   18 2
    32   17   46 1
    33   18   19 1
    34   18   47 1
    35   20   24 1
    36   20   21 2
    37   21   22 1
    38   21   48 1
    39   22   23 2
    40   22   49 1
    41   23   24 1
    42   23   50 1
    43   25   26 2
    44   25   27 1
    45   27   28 1
    46   28   29 1
    47   28   51 1
    48   28   52 1
    49   29   34 ar
    50   29   30 ar
    51   30   31 ar
    52   30   53 1
    53   31   32 ar
    54   31   54 1
    55   32   33 ar
    56   32   35 1
    57   33   34 ar
    58   33   55 1
    59   34   56 1
    60   35   36 1
    61   36   57 1
    62   36   58 1
    63   36   59 1
