@<TRIPOS>MOLECULE
ZINC03812841
   65    67     0     0     0
SMALL
USER_CHARGES

@<TRIPOS>ATOM
      1 C1         -1.1954    0.9630    0.0052 C.3       1 <0>        -0.1531
      2 C2         -1.2210   -0.5519    0.2178 C.3       1 <0>        -0.1100
      3 C3         -0.1596   -0.9402    1.2491 C.3       1 <0>        -0.0847
      4 H1         -0.3169   -0.3700    2.1647 H         1 <0>         0.1064
      5 C4          1.2311   -0.6334    0.6899 C.3       1 <0>        -0.1469
      6 C5         -0.2664   -2.4130    1.5498 C.2       1 <0>         0.4519
      7 O1         -1.1054   -3.0833    0.9961 O.2       1 <0>        -0.5033
      8 O2          0.5705   -2.9801    2.4328 O.3       1 <0>        -0.3188
      9 C6          0.4124   -4.3805    2.6694 C.3       1 <0>         0.0910
     10 H2         -0.6343   -4.6481    2.5247 H         1 <0>         0.0830
     11 C7          1.2657   -5.1530    1.6656 C.3       1 <0>        -0.1281
     12 C8          1.1077   -6.6534    1.9504 C.3       1 <0>        -0.0594
     13 H3          0.0560   -6.9329    1.8878 H         1 <0>         0.0842
     14 C9          1.6229   -6.9102    3.3434 C.2       1 <0>        -0.1384
     15 C10         1.4968   -5.9994    4.2906 C.2       1 <0>        -0.0860
     16 C11         0.8040   -4.6845    4.0951 C.3       1 <0>        -0.0441
     17 H4         -0.1122   -4.7131    4.6849 H         1 <0>         0.0831
     18 C12         1.6831   -3.5881    4.6998 C.3       1 <0>        -0.0600
     19 H5          2.6665   -3.6071    4.2300 H         1 <0>         0.0742
     20 C13         1.8261   -3.8474    6.2006 C.3       1 <0>        -0.0604
     21 H6          2.5865   -3.1798    6.6057 H         1 <0>         0.0818
     22 C14         2.2196   -5.2650    6.4840 C.2       1 <0>        -0.1379
     23 C15         2.0671   -6.2619    5.6320 C.2       1 <0>        -0.1243
     24 C16         0.4900   -3.5557    6.8867 C.3       1 <0>        -0.1566
     25 C17         1.0312   -2.2229    4.4711 C.3       1 <0>        -0.1183
     26 C18         1.6186   -1.2065    5.4522 C.3       1 <0>        -0.1334
     27 C19         0.9668    0.1587    5.2235 C.3       1 <0>         0.1101
     28 H7          1.0824    0.4467    4.1786 H         1 <0>         0.0840
     29 C20         1.6393    1.2027    6.1189 C.3       1 <0>        -0.1541
     30 C21         0.9568    2.5595    5.9177 C.3       1 <0>         0.1044
     31 H8          1.4246    3.3028    6.5632 H         1 <0>         0.0784
     32 C22        -0.5280    2.4263    6.2794 C.3       1 <0>        -0.2056
     33 C23        -1.0995    1.2524    5.5148 C.2       1 <0>         0.4949
     34 O3         -2.1296    1.3583    4.8922 O.2       1 <0>        -0.4528
     35 O4         -0.4261    0.0837    5.5474 O.3       1 <0>        -0.3661
     36 O5          1.0851    2.9622    4.5526 O.3       1 <0>        -0.5628
     37 C24         1.9207   -7.4623    0.9377 C.3       1 <0>        -0.1421
     38 H9         -0.2114    1.2627   -0.3556 H         1 <0>         0.0586
     39 H10        -1.9515    1.2396   -0.7296 H         1 <0>         0.0599
     40 H11        -1.4049    1.4660    0.9492 H         1 <0>         0.0569
     41 H12        -2.2049   -0.8516    0.5786 H         1 <0>         0.0720
     42 H13        -1.0115   -1.0549   -0.7262 H         1 <0>         0.0701
     43 H14         1.9873   -0.9100    1.4246 H         1 <0>         0.0683
     44 H15         1.3885   -1.2035   -0.2257 H         1 <0>         0.0609
     45 H16         1.3084    0.4319    0.4724 H         1 <0>         0.0750
     46 H17         0.9289   -4.9342    0.6523 H         1 <0>         0.0718
     47 H18         2.3116   -4.8665    1.7755 H         1 <0>         0.0758
     48 H19         2.1012   -7.8517    3.5697 H         1 <0>         0.1157
     49 H20         2.6523   -5.4861    7.4485 H         1 <0>         0.1061
     50 H21         2.3619   -7.2630    5.9101 H         1 <0>         0.1183
     51 H22        -0.2805   -4.2064    6.4733 H         1 <0>         0.0552
     52 H23         0.5838   -3.7383    7.9572 H         1 <0>         0.0534
     53 H24         0.2149   -2.5145    6.7184 H         1 <0>         0.0768
     54 H25         1.2237   -1.8950    3.4495 H         1 <0>         0.1085
     55 H26        -0.0441   -2.3025    4.6307 H         1 <0>         0.0668
     56 H27         1.4262   -1.5344    6.4738 H         1 <0>         0.0876
     57 H28         2.6939   -1.1270    5.2926 H         1 <0>         0.0852
     58 H29         1.5473    0.9005    7.1621 H         1 <0>         0.0948
     59 H30         2.6937    1.2833    5.8548 H         1 <0>         0.0977
     60 H31        -0.6311    2.2524    7.3505 H         1 <0>         0.1174
     61 H32        -1.0570    3.3380    6.0021 H         1 <0>         0.1069
     62 H33         0.6746    3.8148    4.3538 H         1 <0>         0.3858
     63 H34         2.9731   -7.1897    1.0159 H         1 <0>         0.0574
     64 H35         1.8045   -8.5260    1.1451 H         1 <0>         0.0592
     65 H36         1.5636   -7.2474   -0.0695 H         1 <0>         0.0581
@<TRIPOS>BOND
     1    1    2 1
     2    1   38 1
     3    1   39 1
     4    1   40 1
     5    2    3 1
     6    2   41 1
     7    2   42 1
     8    3    4 1
     9    3    5 1
    10    3    6 1
    11    5   43 1
    12    5   44 1
    13    5   45 1
    14    6    7 2
    15    6    8 1
    16    8    9 1
    17    9   10 1
    18    9   16 1
    19    9   11 1
    20   11   12 1
    21   11   46 1
    22   11   47 1
    23   12   13 1
    24   12   14 1
    25   12   37 1
    26   14   15 2
    27   14   48 1
    28   15   23 1
    29   15   16 1
    30   16   17 1
    31   16   18 1
    32   18   19 1
    33   18   20 1
    34   18   25 1
    35   20   21 1
    36   20   22 1
    37   20   24 1
    38   22   23 2
    39   22   49 1
    40   23   50 1
    41   24   51 1
    42   24   52 1
    43   24   53 1
    44   25   26 1
    45   25   54 1
    46   25   55 1
    47   26   27 1
    48   26   56 1
    49   26   57 1
    50   27   28 1
    51   27   35 1
    52   27   29 1
    53   29   30 1
    54   29   58 1
    55   29   59 1
    56   30   31 1
    57   30   32 1
    58   30   36 1
    59   32   33 1
    60   32   60 1
    61   32   61 1
    62   33   34 2
    63   33   35 1
    64   36   62 1
    65   37   63 1
    66   37   64 1
    67   37   65 1
