@<TRIPOS>MOLECULE
ZINC01085679
   40    44     0     0     0
SMALL
USER_CHARGES
2-(3-benzooxazol-2-ylphenyl)-1,3-dioxo-isoindoline-5-carboxylic acid
@<TRIPOS>ATOM
      1 C1         10.3356    8.6068   -0.0564 C.ar      1 <0>        -0.1195
      2 C2          9.1300    9.2930   -0.0414 C.ar      1 <0>        -0.0948
      3 C3          7.9337    8.6061   -0.0326 C.ar      1 <0>        -0.0902
      4 C4          7.9327    7.2198   -0.0387 C.ar      1 <0>         0.0093
      5 C5          9.1508    6.5209   -0.0538 C.ar      1 <0>         0.0259
      6 C6         10.3545    7.2303   -0.0626 C.ar      1 <0>        -0.0627
      7 N1          8.8417    5.1989   -0.0566 N.2       1 <0>        -0.4706
      8 C7          7.5392    5.0712   -0.0442 C.2       1 <0>         0.3038
      9 O1          6.9566    6.2850   -0.0382 O.3       1 <0>        -0.2024
     10 C8          6.8140    3.7830   -0.0435 C.ar      1 <0>        -0.0177
     11 C9          7.5227    2.5801   -0.0566 C.ar      1 <0>        -0.0734
     12 C10         6.8432    1.3793   -0.0559 C.ar      1 <0>        -0.0999
     13 C11         5.4608    1.3620   -0.0426 C.ar      1 <0>        -0.1131
     14 C12         4.7466    2.5535   -0.0295 C.ar      1 <0>         0.1340
     15 C13         5.4196    3.7651   -0.0354 C.ar      1 <0>        -0.1055
     16 N2          3.3452    2.5304   -0.0161 N.am      1 <0>        -0.5242
     17 C14         2.5663    3.6270   -0.0033 C.2       1 <0>         0.5812
     18 O2          2.9594    4.7758   -0.0016 O.2       1 <0>        -0.4578
     19 C15         1.1493    3.1982    0.0078 C.ar      1 <0>        -0.1530
     20 C16        -0.0620    3.8713    0.0225 C.ar      1 <0>        -0.0496
     21 C17        -1.2482    3.1575    0.0300 C.ar      1 <0>        -0.0537
     22 C18        -1.2305    1.7625    0.0174 C.ar      1 <0>        -0.0838
     23 C19        -0.0126    1.0758    0.0080 C.ar      1 <0>        -0.0021
     24 C20         1.1742    1.7881    0.0005 C.ar      1 <0>        -0.1613
     25 C21         2.6028    1.4088   -0.0148 C.2       1 <0>         0.5836
     26 O3          3.0343    0.2736   -0.0249 O.2       1 <0>        -0.4534
     27 C22        -2.5028    1.0083    0.0198 C.2       1 <0>         0.4881
     28 O4         -2.4889   -0.2060    0.0136 O.co2     1 <0>        -0.6163
     29 H1         11.2655    9.1561   -0.0636 H         1 <0>         0.1378
     30 H2          9.1280   10.3729   -0.0370 H         1 <0>         0.1412
     31 H3          6.9993    9.1476   -0.0213 H         1 <0>         0.1375
     32 H4         11.2958    6.7010   -0.0747 H         1 <0>         0.1368
     33 H5          8.6026    2.5896   -0.0677 H         1 <0>         0.1440
     34 H6          7.3930    0.4497   -0.0660 H         1 <0>         0.1441
     35 H7          4.9343    0.4190   -0.0421 H         1 <0>         0.1651
     36 H8          4.8659    4.6924   -0.0297 H         1 <0>         0.1667
     37 H9         -0.0806    4.9511    0.0277 H         1 <0>         0.1408
     38 H10        -2.1917    3.6830    0.0418 H         1 <0>         0.1543
     39 H11         0.0021   -0.0041    0.0020 H         1 <0>         0.1496
     40 O5         -3.6769    1.6683    0.0289 O.co2     1 <0>        -0.7391
@<TRIPOS>BOND
     1    1    6 ar
     2    1    2 ar
     3    1   29 1
     4    2    3 ar
     5    2   30 1
     6    3    4 ar
     7    3   31 1
     8    4    9 1
     9    4    5 ar
    10    5    6 ar
    11    5    7 1
    12    6   32 1
    13    7    8 2
    14    8    9 1
    15    8   10 1
    16   10   15 ar
    17   10   11 ar
    18   11   12 ar
    19   11   33 1
    20   12   13 ar
    21   12   34 1
    22   13   14 ar
    23   13   35 1
    24   14   15 ar
    25   14   16 1
    26   15   36 1
    27   16   25 am
    28   16   17 am
    29   17   18 2
    30   17   19 1
    31   19   24 ar
    32   19   20 ar
    33   20   21 ar
    34   20   37 1
    35   21   22 ar
    36   21   38 1
    37   22   23 ar
    38   22   27 1
    39   23   24 ar
    40   23   39 1
    41   24   25 1
    42   25   26 2
    43   27   28 2
    44   27   40 1
@<TRIPOS>MOLECULE
ZINC03959835
   47    50     0     0     0
SMALL
USER_CHARGES
2-[2-[4-[3-(4-bromophenyl)prop-2-enoylamino]-3-fluoro-phenyl]benzooxazol-5-yl]acetic acid
@<TRIPOS>ATOM
      1 C1         -2.5491    0.0369    0.5682 C.ar      1 <0>        -0.0950
      2 C2         -3.7259   -0.6808    0.5670 C.ar      1 <0>        -0.0923
      3 C3         -3.7796   -1.9304    1.1624 C.ar      1 <0>        -0.0809
      4 C4         -2.6517   -2.4703    1.7581 C.ar      1 <0>        -0.0927
      5 C5         -1.4666   -1.7662    1.7627 C.ar      1 <0>        -0.0864
      6 C6         -1.4048   -0.5039    1.1635 C.ar      1 <0>        -0.0621
      7 C7         -0.1434    0.2541    1.1647 C.2       1 <0>        -0.0123
      8 C8         -0.0875    1.4711    0.5860 C.2       1 <0>        -0.2075
      9 C9          1.1669    2.2249    0.5872 C.2       1 <0>         0.5504
     10 O1          2.1596    1.7537    1.1105 O.2       1 <0>        -0.5162
     11 N1          1.2228    3.4410    0.0089 N.am      1 <0>        -0.6641
     12 C10         2.3916    4.2004    0.0916 C.ar      1 <0>         0.1303
     13 C11         3.6309    3.5703    0.0759 C.ar      1 <0>        -0.0957
     14 C12         4.7864    4.3166    0.1517 C.ar      1 <0>        -0.0563
     15 C13         4.7129    5.7077    0.2555 C.ar      1 <0>         0.0015
     16 C14         3.4670    6.3390    0.2770 C.ar      1 <0>        -0.1028
     17 C15         2.3137    5.5870    0.1955 C.ar      1 <0>         0.0730
     18 F1          1.1078    6.1958    0.2161 F         1 <0>        -0.1329
     19 C16         5.9501    6.5094    0.3430 C.2       1 <0>         0.2641
     20 N2          7.1645    6.0196    0.3317 N.2       1 <0>        -0.4526
     21 C17         8.0495    7.0449    0.4286 C.ar      1 <0>         0.0246
     22 C18         9.4444    7.1150    0.4638 C.ar      1 <0>        -0.0542
     23 C19        10.0640    8.3399    0.5703 C.ar      1 <0>        -0.0303
     24 C20         9.3123    9.5034    0.6424 C.ar      1 <0>        -0.0705
     25 C21         7.9341    9.4497    0.6088 C.ar      1 <0>        -0.0992
     26 C22         7.2926    8.2255    0.5024 C.ar      1 <0>         0.0030
     27 O2          5.9951    7.8517    0.4403 O.3       1 <0>        -0.2122
     28 C23        11.5686    8.4170    0.6083 C.3       1 <0>        -0.1302
     29 C24        12.1003    8.5506   -0.7954 C.2       1 <0>         0.4652
     30 O3         11.3360    8.5801   -1.7307 O.co2     1 <0>        -0.6298
     31 Br1        -5.4009   -2.9037    1.1625 Br        1 <0>        -0.0458
     32 H1         -2.5098    1.0129    0.1075 H         1 <0>         0.1382
     33 H2         -4.6094   -0.2660    0.1048 H         1 <0>         0.1375
     34 H3         -2.7009   -3.4451    2.2204 H         1 <0>         0.1381
     35 H4         -0.5881   -2.1881    2.2282 H         1 <0>         0.1403
     36 H5          0.7374   -0.1640    1.6291 H         1 <0>         0.1432
     37 H6         -0.9672    1.8873    0.1177 H         1 <0>         0.1353
     38 H7          0.4511    3.7887   -0.4649 H         1 <0>         0.4165
     39 H8          3.6880    2.4945   -0.0003 H         1 <0>         0.1595
     40 H9          5.7484    3.8262    0.1349 H         1 <0>         0.1533
     41 H10         3.4070    7.4144    0.3568 H         1 <0>         0.1508
     42 H11        10.0343    6.2121    0.4073 H         1 <0>         0.1329
     43 H12         9.8096   10.4585    0.7257 H         1 <0>         0.1387
     44 H13         7.3558   10.3601    0.6658 H         1 <0>         0.1323
     45 H14        11.8732    9.2828    1.1962 H         1 <0>         0.0817
     46 H15        11.9675    7.5104    1.0632 H         1 <0>         0.0809
     47 O4         13.4231    8.6367   -1.0066 O.co2     1 <0>        -0.7690
@<TRIPOS>BOND
     1    1    6 ar
     2    1    2 ar
     3    1   32 1
     4    2    3 ar
     5    2   33 1
     6    3    4 ar
     7    3   31 1
     8    4    5 ar
     9    4   34 1
    10    5    6 ar
    11    5   35 1
    12    6    7 1
    13    7    8 2
    14    7   36 1
    15    8    9 1
    16    8   37 1
    17    9   10 2
    18    9   11 am
    19   11   12 1
    20   11   38 1
    21   12   17 ar
    22   12   13 ar
    23   13   14 ar
    24   13   39 1
    25   14   15 ar
    26   14   40 1
    27   15   16 ar
    28   15   19 1
    29   16   17 ar
    30   16   41 1
    31   17   18 1
    32   19   27 1
    33   19   20 2
    34   20   21 1
    35   21   26 ar
    36   21   22 ar
    37   22   23 ar
    38   22   42 1
    39   23   24 ar
    40   23   28 1
    41   24   25 ar
    42   24   43 1
    43   25   26 ar
    44   25   44 1
    45   26   27 1
    46   28   29 1
    47   28   45 1
    48   28   46 1
    49   29   30 2
    50   29   47 1
@<TRIPOS>MOLECULE
ZINC02884084
   43    46     0     0     0
SMALL
USER_CHARGES
N-[4-(1H-benzoimidazol-2-yl)phenyl]-3-bromo-4-methoxy-benzamide
@<TRIPOS>ATOM
      1 C1          8.3664    7.2890    0.4793 C.3       1 <0>         0.0208
      2 O1          8.3718    6.0105   -0.1591 O.3       1 <0>        -0.2958
      3 C2          7.1841    5.3589   -0.2434 C.ar      1 <0>         0.1880
      4 C3          6.0354    5.9414    0.2790 C.ar      1 <0>        -0.2109
      5 C4          4.8276    5.2859    0.1912 C.ar      1 <0>        -0.0274
      6 C5          4.7591    4.0286   -0.4152 C.ar      1 <0>        -0.1759
      7 C6          5.9158    3.4460   -0.9397 C.ar      1 <0>         0.0139
      8 C7          7.1197    4.1106   -0.8527 C.ar      1 <0>        -0.1381
      9 Br1         8.6863    3.3240   -1.5620 Br        1 <0>        -0.0198
     10 C8          3.4675    3.3207   -0.5066 C.2       1 <0>         0.5669
     11 O2          3.4088    2.2291   -1.0389 O.2       1 <0>        -0.5069
     12 N1          2.3529    3.8842   -0.0000 N.am      1 <0>        -0.6708
     13 C9          1.1538    3.1698    0.0131 C.ar      1 <0>         0.1659
     14 C10         1.1697    1.7905    0.1902 C.ar      1 <0>        -0.1198
     15 C11        -0.0120    1.0827    0.2036 C.ar      1 <0>        -0.0457
     16 C12        -1.2264    1.7509    0.0339 C.ar      1 <0>        -0.0469
     17 C13        -1.2394    3.1366   -0.1389 C.ar      1 <0>        -0.0796
     18 C14        -0.0543    3.8388   -0.1514 C.ar      1 <0>        -0.1434
     19 C15        -2.4955    0.9938    0.0417 C.2       1 <0>         0.3294
     20 N2         -3.7408    1.5424   -0.1095 N.pl3     1 <0>        -0.5999
     21 H1         -3.9505    2.5114   -0.2405 H         1 <0>         0.4280
     22 C16        -4.6535    0.5071   -0.0473 C.ar      1 <0>         0.0518
     23 C17        -6.0369    0.4359   -0.1346 C.ar      1 <0>        -0.1134
     24 C18        -6.6669   -0.7858   -0.0229 C.ar      1 <0>        -0.0991
     25 C19        -5.9275   -1.9430    0.1770 C.ar      1 <0>        -0.1268
     26 C20        -4.5653   -1.8930    0.2656 C.ar      1 <0>        -0.0634
     27 C21        -3.9041   -0.6654    0.1548 C.ar      1 <0>         0.0495
     28 N3         -2.5988   -0.3036    0.2000 N.2       1 <0>        -0.4795
     29 H2          7.7008    7.9621   -0.0610 H         1 <0>         0.0624
     30 H3          8.0181    7.1807    1.5065 H         1 <0>         0.0625
     31 H4          9.3763    7.6993    0.4794 H         1 <0>         0.1091
     32 H5          6.0894    6.9114    0.7508 H         1 <0>         0.1468
     33 H6          3.9349    5.7412    0.5941 H         1 <0>         0.1362
     34 H7          5.8663    2.4765   -1.4130 H         1 <0>         0.1558
     35 H8          2.3840    4.7862    0.3554 H         1 <0>         0.4114
     36 H9          2.1095    1.2738    0.3176 H         1 <0>         0.1439
     37 H10         0.0010    0.0115    0.3408 H         1 <0>         0.1445
     38 H11        -2.1772    3.6566   -0.2667 H         1 <0>         0.1254
     39 H12        -0.0635    4.9100   -0.2887 H         1 <0>         0.1339
     40 H13        -6.6174    1.3332   -0.2898 H         1 <0>         0.1237
     41 H14        -7.7432   -0.8423   -0.0910 H         1 <0>         0.1315
     42 H15        -6.4342   -2.8928    0.2631 H         1 <0>         0.1311
     43 H16        -3.9997   -2.7999    0.4205 H         1 <0>         0.1308
@<TRIPOS>BOND
     1    1    2 1
     2    1   29 1
     3    1   30 1
     4    1   31 1
     5    2    3 1
     6    3    8 ar
     7    3    4 ar
     8    4    5 ar
     9    4   32 1
    10    5    6 ar
    11    5   33 1
    12    6    7 ar
    13    6   10 1
    14    7    8 ar
    15    7   34 1
    16    8    9 1
    17   10   11 2
    18   10   12 am
    19   12   13 1
    20   12   35 1
    21   13   18 ar
    22   13   14 ar
    23   14   15 ar
    24   14   36 1
    25   15   16 ar
    26   15   37 1
    27   16   17 ar
    28   16   19 1
    29   17   18 ar
    30   17   38 1
    31   18   39 1
    32   19   28 2
    33   19   20 1
    34   20   21 1
    35   20   22 1
    36   22   27 ar
    37   22   23 ar
    38   23   24 ar
    39   23   40 1
    40   24   25 ar
    41   24   41 1
    42   25   26 ar
    43   25   42 1
    44   26   27 ar
    45   26   43 1
    46   27   28 1
@<TRIPOS>MOLECULE
ZINC00830093
   46    49     0     0     0
SMALL
USER_CHARGES
N-[4-(1H-benzoimidazol-2-yl)phenyl]-3-bromo-4-ethoxy-benzamide
@<TRIPOS>ATOM
      1 C1          9.7838    7.8651    0.4789 C.3       1 <0>        -0.1540
      2 C2          8.3664    7.2891    0.4792 C.3       1 <0>         0.0495
      3 O1          8.3717    6.0107   -0.1593 O.3       1 <0>        -0.2949
      4 C3          7.1841    5.3590   -0.2433 C.ar      1 <0>         0.1916
      5 C4          6.0355    5.9412    0.2796 C.ar      1 <0>        -0.2118
      6 C5          4.8276    5.2858    0.1917 C.ar      1 <0>        -0.0270
      7 C6          4.7590    4.0287   -0.4151 C.ar      1 <0>        -0.1767
      8 C7          5.9156    3.4464   -0.9402 C.ar      1 <0>         0.0143
      9 C8          7.1197    4.1107   -0.8527 C.ar      1 <0>        -0.1387
     10 Br1         8.6860    3.3243   -1.5626 Br        1 <0>        -0.0200
     11 C9          3.4674    3.3209   -0.5065 C.2       1 <0>         0.5670
     12 O2          3.4086    2.2295   -1.0392 O.2       1 <0>        -0.5071
     13 N1          2.3529    3.8842    0.0005 N.am      1 <0>        -0.6708
     14 C10         1.1538    3.1698    0.0136 C.ar      1 <0>         0.1661
     15 C11         1.1698    1.7904    0.1902 C.ar      1 <0>        -0.1199
     16 C12        -0.0119    1.0826    0.2036 C.ar      1 <0>        -0.0457
     17 C13        -1.2263    1.7508    0.0339 C.ar      1 <0>        -0.0470
     18 C14        -1.2394    3.1366   -0.1378 C.ar      1 <0>        -0.0796
     19 C15        -0.0543    3.8389   -0.1503 C.ar      1 <0>        -0.1435
     20 C16        -2.4955    0.9937    0.0417 C.2       1 <0>         0.3295
     21 N2         -3.7408    1.5423   -0.1095 N.pl3     1 <0>        -0.6000
     22 H1         -3.9505    2.5112   -0.2405 H         1 <0>         0.4279
     23 C17        -4.6535    0.5070   -0.0472 C.ar      1 <0>         0.0519
     24 C18        -6.0368    0.4358   -0.1346 C.ar      1 <0>        -0.1135
     25 C19        -6.6668   -0.7859   -0.0228 C.ar      1 <0>        -0.0991
     26 C20        -5.9274   -1.9431    0.1770 C.ar      1 <0>        -0.1268
     27 C21        -4.5652   -1.8931    0.2656 C.ar      1 <0>        -0.0633
     28 C22        -3.9041   -0.6655    0.1548 C.ar      1 <0>         0.0495
     29 N3         -2.5987   -0.3036    0.2000 N.2       1 <0>        -0.4795
     30 H2         10.4497    7.1920    1.0189 H         1 <0>         0.0695
     31 H3         10.1317    7.9735   -0.5484 H         1 <0>         0.0694
     32 H4          9.7798    8.8403    0.9660 H         1 <0>         0.0824
     33 H5          7.7005    7.9622   -0.0608 H         1 <0>         0.0684
     34 H6          8.0185    7.1807    1.5065 H         1 <0>         0.0685
     35 H7          6.0895    6.9112    0.7514 H         1 <0>         0.1460
     36 H8          3.9350    5.7410    0.5947 H         1 <0>         0.1360
     37 H9          5.8659    2.4772   -1.4142 H         1 <0>         0.1555
     38 H10         2.3841    4.7861    0.3563 H         1 <0>         0.4114
     39 H11         2.1096    1.2737    0.3172 H         1 <0>         0.1439
     40 H12         0.0011    0.0115    0.3408 H         1 <0>         0.1444
     41 H13        -2.1773    3.6567   -0.2656 H         1 <0>         0.1254
     42 H14        -0.0635    4.9101   -0.2872 H         1 <0>         0.1339
     43 H15        -6.6174    1.3332   -0.2897 H         1 <0>         0.1237
     44 H16        -7.7432   -0.8423   -0.0910 H         1 <0>         0.1315
     45 H17        -6.4341   -2.8929    0.2631 H         1 <0>         0.1310
     46 H18        -3.9997   -2.8000    0.4205 H         1 <0>         0.1308
@<TRIPOS>BOND
     1    1    2 1
     2    1   30 1
     3    1   31 1
     4    1   32 1
     5    2    3 1
     6    2   33 1
     7    2   34 1
     8    3    4 1
     9    4    9 ar
    10    4    5 ar
    11    5    6 ar
    12    5   35 1
    13    6    7 ar
    14    6   36 1
    15    7    8 ar
    16    7   11 1
    17    8    9 ar
    18    8   37 1
    19    9   10 1
    20   11   12 2
    21   11   13 am
    22   13   14 1
    23   13   38 1
    24   14   19 ar
    25   14   15 ar
    26   15   16 ar
    27   15   39 1
    28   16   17 ar
    29   16   40 1
    30   17   18 ar
    31   17   20 1
    32   18   19 ar
    33   18   41 1
    34   19   42 1
    35   20   29 2
    36   20   21 1
    37   21   22 1
    38   21   23 1
    39   23   28 ar
    40   23   24 ar
    41   24   25 ar
    42   24   43 1
    43   25   26 ar
    44   25   44 1
    45   26   27 ar
    46   26   45 1
    47   27   28 ar
    48   27   46 1
    49   28   29 1
