@<TRIPOS>MOLECULE
ZINC00001850
   48    50     0     0     0
SMALL
USER_CHARGES
2-(3-dimethylaminopropylideneBLAHyl)acetic acid
@<TRIPOS>ATOM
      1 C1          5.3319    7.9193   -0.5966 C.3       1 <0>        -0.0520
      2 C2          4.0625    9.6873    0.4642 C.3       1 <0>        -0.0407
      3 C3          3.2365    7.4116    0.5052 C.3       1 <0>         0.0031
      4 C4          3.6413    5.9668    0.8040 C.3       1 <0>        -0.1309
      5 C5          2.4155    5.0901    0.7981 C.2       1 <0>        -0.1568
      6 C6          2.3672    4.0125    0.0055 C.2       1 <0>        -0.0011
      7 C7          1.1569    3.1579    0.0081 C.ar      1 <0>        -0.0398
      8 C8         -0.0781    3.8238    0.0214 C.ar      1 <0>        -0.1079
      9 C9         -1.2581    3.1167    0.0288 C.ar      1 <0>        -0.1187
     10 C10        -1.2218    1.7335    0.0173 C.ar      1 <0>        -0.1098
     11 C11        -0.0126    1.0758    0.0080 C.ar      1 <0>        -0.1194
     12 C12         1.1949    1.7757    0.0002 C.ar      1 <0>        -0.0991
     13 C13         2.4306    0.9154   -0.0183 C.3       1 <0>         0.1150
     14 O1          3.6316    1.5988    0.2345 O.3       1 <0>        -0.3235
     15 C14         4.1378    2.4622   -0.6686 C.ar      1 <0>         0.0965
     16 C15         3.5240    3.6915   -0.8614 C.ar      1 <0>        -0.0912
     17 C16         4.0020    4.5874   -1.8085 C.ar      1 <0>        -0.0957
     18 C17         5.1192    4.2497   -2.5514 C.ar      1 <0>        -0.0323
     19 C18         5.7466    3.0334   -2.3482 C.ar      1 <0>        -0.0890
     20 C19         5.2630    2.1367   -1.4128 C.ar      1 <0>        -0.1212
     21 C20         5.6541    5.2087   -3.5834 C.3       1 <0>        -0.1389
     22 C21         6.6667    6.1227   -2.9429 C.2       1 <0>         0.4695
     23 O2          6.9273    6.0071   -1.7687 O.co2     1 <0>        -0.6385
     24 H1          4.8107    8.0537   -1.5445 H         1 <0>         0.1137
     25 H2          6.2082    8.5670   -0.5689 H         1 <0>         0.1206
     26 H3          5.6451    6.8799   -0.4984 H         1 <0>         0.1561
     27 H4          3.4528    9.9332    1.3336 H         1 <0>         0.1137
     28 H5          4.9656   10.2975    0.4695 H         1 <0>         0.1199
     29 H6          3.4952    9.8857   -0.4452 H         1 <0>         0.1186
     30 H7          2.7597    7.4603   -0.4738 H         1 <0>         0.1258
     31 H8          2.5382    7.7583    1.2670 H         1 <0>         0.1229
     32 H9          4.1181    5.9181    1.7830 H         1 <0>         0.0926
     33 H10         4.3396    5.6201    0.0422 H         1 <0>         0.1144
     34 H11         1.5761    5.3313    1.4335 H         1 <0>         0.1264
     35 H12        -0.1025    4.9035    0.0256 H         1 <0>         0.1233
     36 H13        -2.2046    3.6367    0.0393 H         1 <0>         0.1276
     37 H14        -2.1429    1.1695    0.0198 H         1 <0>         0.1271
     38 H15         0.0021   -0.0041    0.0020 H         1 <0>         0.1264
     39 H16         2.3159    0.1326    0.7315 H         1 <0>         0.1164
     40 H17         2.5061    0.4430   -0.9977 H         1 <0>         0.0661
     41 H18         3.5084    5.5355   -1.9629 H         1 <0>         0.1184
     42 H19         6.6234    2.7815   -2.9264 H         1 <0>         0.1278
     43 H20         5.7585    1.1890   -1.2619 H         1 <0>         0.1316
     44 H21         6.1287    4.6482   -4.3888 H         1 <0>         0.0831
     45 H22         4.8339    5.8019   -3.9879 H         1 <0>         0.0768
     46 N1          4.4455    8.2615    0.5355 N.4       1 <0>        -0.3984
     47 H23         4.9483    8.0949    1.4150 H         1 <0>         0.4263
     48 O3          7.2791    7.0651   -3.6767 O.co2     1 <0>        -0.7549
@<TRIPOS>BOND
     1    1   24 1
     2    1   25 1
     3    1   26 1
     4    1   46 1
     5    2   27 1
     6    2   28 1
     7    2   29 1
     8    2   46 1
     9    3    4 1
    10    3   30 1
    11    3   31 1
    12    3   46 1
    13    4    5 1
    14    4   32 1
    15    4   33 1
    16    5    6 2
    17    5   34 1
    18    6   16 1
    19    6    7 1
    20    7   12 ar
    21    7    8 ar
    22    8    9 ar
    23    8   35 1
    24    9   10 ar
    25    9   36 1
    26   10   11 ar
    27   10   37 1
    28   11   12 ar
    29   11   38 1
    30   12   13 1
    31   13   14 1
    32   13   39 1
    33   13   40 1
    34   14   15 1
    35   15   20 ar
    36   15   16 ar
    37   16   17 ar
    38   17   18 ar
    39   17   41 1
    40   18   19 ar
    41   18   21 1
    42   19   20 ar
    43   19   42 1
    44   20   43 1
    45   21   22 1
    46   21   44 1
    47   21   45 1
    48   22   23 2
    49   22   48 1
    50   46   47 1
@<TRIPOS>MOLECULE
ZINC01542113
   61    65     0     0     0
SMALL
USER_CHARGES
5-[4-[4-(5-cyano-1H-indol-3-yl)butyl]piperazin-1-yl]benzofuran-2-carboxamide
@<TRIPOS>ATOM
      1 C1         -0.6908   -1.8418   -9.9564 C.ar      1 <0>        -0.0533
      2 C2          0.2910   -0.9109  -10.1276 C.ar      1 <0>        -0.1223
      3 C3          0.4306    0.1367   -9.2201 C.ar      1 <0>         0.1217
      4 C4         -0.4445    0.2270   -8.1198 C.ar      1 <0>        -0.1088
      5 C5         -1.4499   -0.7217   -7.9498 C.ar      1 <0>        -0.0176
      6 C6         -1.5715   -1.7604   -8.8687 C.ar      1 <0>        -0.0509
      7 C7         -2.5971   -2.7459   -8.7030 C.1       1 <0>         0.2516
      8 N1         -3.4107   -3.5277   -8.5716 N.1       1 <0>        -0.4148
      9 C8         -0.0376    1.4225   -7.3759 C.2       1 <0>        -0.1737
     10 C9          1.0082    1.9522   -8.0291 C.2       1 <0>         0.0644
     11 N2          1.3011    1.1974   -9.1324 N.pl3     1 <0>        -0.5878
     12 H1          2.0171    1.3832   -9.7598 H         1 <0>         0.4230
     13 C10        -0.6691    1.9522   -6.1143 C.3       1 <0>        -0.0421
     14 C11        -0.0683    1.2355   -4.9034 C.3       1 <0>        -0.1132
     15 C12        -0.7095    1.7734   -3.6226 C.3       1 <0>        -0.1528
     16 C13        -0.1087    1.0567   -2.4117 C.3       1 <0>        -0.0044
     17 C14        -0.0127    1.0858    0.0080 C.3       1 <0>         0.0031
     18 C15        -0.7300    1.5798    1.2666 C.3       1 <0>         0.0230
     19 N3         -0.7832    3.0484    1.2523 N.pl3     1 <0>        -0.4826
     20 C16        -1.4948    3.5356    0.0624 C.3       1 <0>         0.0189
     21 C17        -0.7771    3.0416   -1.1959 C.3       1 <0>        -0.0039
     22 C18        -1.3696    3.5402    2.4236 C.ar      1 <0>         0.0698
     23 C19        -2.4823    4.3771    2.3463 C.ar      1 <0>        -0.1261
     24 C20        -3.0715    4.8698    3.4890 C.ar      1 <0>        -0.0768
     25 C21        -2.5589    4.5359    4.7374 C.ar      1 <0>         0.0632
     26 C22        -1.4363    3.6918    4.8192 C.ar      1 <0>        -0.1171
     27 C23        -0.8480    3.1911    3.6550 C.ar      1 <0>        -0.0686
     28 C24        -1.1565    3.5406    6.2468 C.2       1 <0>        -0.1139
     29 C25        -2.0959    4.2771    6.8946 C.2       1 <0>        -0.0141
     30 O1         -2.9174    4.8595    5.9964 O.3       1 <0>        -0.1814
     31 C26        -2.2018    4.4184    8.3536 C.2       1 <0>         0.6027
     32 O2         -1.4080    3.8496    9.0791 O.2       1 <0>        -0.5088
     33 N4         -3.1784    5.1782    8.8880 N.am      1 <0>        -0.8362
     34 H2         -0.7910   -2.6497  -10.6661 H         1 <0>         0.1384
     35 H3          0.9625   -0.9859  -10.9702 H         1 <0>         0.1339
     36 H4         -2.1260   -0.6548   -7.1103 H         1 <0>         0.1300
     37 H5          1.5403    2.8426   -7.7283 H         1 <0>         0.1729
     38 H6         -1.7443    1.7758   -6.1444 H         1 <0>         0.0747
     39 H7         -0.4787    3.0225   -6.0344 H         1 <0>         0.0746
     40 H8          1.0069    1.4120   -4.8733 H         1 <0>         0.0747
     41 H9         -0.2587    0.1653   -4.9833 H         1 <0>         0.0754
     42 H10        -1.7847    1.5969   -3.6527 H         1 <0>         0.0872
     43 H11        -0.5191    2.8436   -3.5426 H         1 <0>         0.0900
     44 H12         0.9665    1.2331   -2.3816 H         1 <0>         0.1321
     45 H13        -0.2991   -0.0136   -2.4916 H         1 <0>         0.1300
     46 H14         0.0021   -0.0041    0.0020 H         1 <0>         0.1381
     47 H15         1.0098    1.4634    0.0003 H         1 <0>         0.1410
     48 H16        -1.7436    1.1797    1.2882 H         1 <0>         0.0704
     49 H17        -0.1871    1.2439    2.1500 H         1 <0>         0.1282
     50 H18        -1.5096    4.6255    0.0684 H         1 <0>         0.1303
     51 H19        -2.5172    3.1577    0.0699 H         1 <0>         0.0721
     52 H20         0.2366    3.4417   -1.2171 H         1 <0>         0.1411
     53 H21        -1.3193    3.3776   -2.0798 H         1 <0>         0.1421
     54 H22        -2.8860    4.6416    1.3801 H         1 <0>         0.1422
     55 H23        -3.9329    5.5171    3.4154 H         1 <0>         0.1438
     56 H24         0.0111    2.5395    3.7168 H         1 <0>         0.1379
     57 H25        -0.3635    2.9604    6.6952 H         1 <0>         0.1760
     58 H26        -3.8114    5.6317    8.3096 H         1 <0>         0.4096
     59 H27        -3.2483    5.2714    9.8509 H         1 <0>         0.4159
     60 N5         -0.7506    1.5637   -1.1801 N.4       1 <0>        -0.3985
     61 H28        -1.7146    1.2130   -1.1376 H         1 <0>         0.4256
@<TRIPOS>BOND
     1    1    6 ar
     2    1    2 ar
     3    1   34 1
     4    2    3 ar
     5    2   35 1
     6    3   11 1
     7    3    4 ar
     8    4    5 ar
     9    4    9 1
    10    5    6 ar
    11    5   36 1
    12    6    7 1
    13    7    8 3
    14    9   10 2
    15    9   13 1
    16   10   11 1
    17   10   37 1
    18   11   12 1
    19   13   14 1
    20   13   38 1
    21   13   39 1
    22   14   15 1
    23   14   40 1
    24   14   41 1
    25   15   16 1
    26   15   42 1
    27   15   43 1
    28   16   44 1
    29   16   45 1
    30   16   60 1
    31   17   18 1
    32   17   46 1
    33   17   47 1
    34   17   60 1
    35   18   19 1
    36   18   48 1
    37   18   49 1
    38   19   20 1
    39   19   22 1
    40   20   21 1
    41   20   50 1
    42   20   51 1
    43   21   52 1
    44   21   53 1
    45   21   60 1
    46   22   27 ar
    47   22   23 ar
    48   23   24 ar
    49   23   54 1
    50   24   25 ar
    51   24   55 1
    52   25   30 1
    53   25   26 ar
    54   26   27 ar
    55   26   28 1
    56   27   56 1
    57   28   29 2
    58   28   57 1
    59   29   30 1
    60   29   31 1
    61   31   32 2
    62   31   33 am
    63   33   58 1
    64   33   59 1
    65   60   61 1
@<TRIPOS>MOLECULE
ZINC26954229
   59    62     0     0     0
SMALL
USER_CHARGES
N-[4-[4-(m-tolyl)piperazin-1-yl]butyl]benzofuran-2-carboxamide
@<TRIPOS>ATOM
      1 C1         -0.8551    3.3094    6.1594 C.3       1 <0>        -0.1254
      2 C2         -1.4241    3.6825    4.8148 C.ar      1 <0>        -0.0543
      3 C3         -2.5272    4.5132    4.7379 C.ar      1 <0>        -0.1282
      4 C4         -3.0525    4.8580    3.5063 C.ar      1 <0>        -0.0868
      5 C5         -2.4735    4.3777    2.3479 C.ar      1 <0>        -0.1703
      6 C6         -1.3685    3.5394    2.4216 C.ar      1 <0>         0.0903
      7 C7         -0.8433    3.1949    3.6608 C.ar      1 <0>        -0.1325
      8 N1         -0.7832    3.0484    1.2523 N.pl3     1 <0>        -0.4869
      9 C8         -0.7300    1.5798    1.2666 C.3       1 <0>         0.0254
     10 C9         -0.0127    1.0858    0.0080 C.3       1 <0>         0.0006
     11 N2         -0.7243    1.5730   -1.1819 N.4       1 <0>        -0.4016
     12 C10        -0.7771    3.0416   -1.1959 C.3       1 <0>        -0.0079
     13 C11        -1.4948    3.5356    0.0624 C.3       1 <0>         0.0207
     14 C12        -0.1087    1.0567   -2.4117 C.3       1 <0>        -0.0049
     15 C13        -0.7095    1.7734   -3.6226 C.3       1 <0>        -0.1491
     16 C14        -0.0683    1.2355   -4.9034 C.3       1 <0>        -0.1308
     17 C15        -0.6691    1.9522   -6.1143 C.3       1 <0>         0.1203
     18 N3         -0.0552    1.4373   -7.3407 N.am      1 <0>        -0.7360
     19 C16        -0.4318    1.9254   -8.5392 C.2       1 <0>         0.6076
     20 O1         -1.2816    2.7936   -8.6026 O.2       1 <0>        -0.5139
     21 C17         0.1841    1.4087   -9.7696 C.2       1 <0>        -0.0431
     22 C18        -0.1156    1.8239  -11.0275 C.2       1 <0>        -0.0971
     23 C19         0.7337    1.0418  -11.9253 C.ar      1 <0>        -0.1496
     24 C20         0.9018    0.9944  -13.3113 C.ar      1 <0>        -0.0561
     25 C21         1.8058    0.1259  -13.8544 C.ar      1 <0>        -0.1350
     26 C22         2.5578   -0.7084  -13.0383 C.ar      1 <0>        -0.0748
     27 C23         2.4070   -0.6770  -11.6690 C.ar      1 <0>        -0.1142
     28 C24         1.4929    0.1981  -11.0933 C.ar      1 <0>         0.0727
     29 O2          1.1368    0.4543   -9.8196 O.3       1 <0>        -0.1892
     30 H1         -1.4459    3.7893    6.9535 H         1 <0>         0.0725
     31 H2          0.1891    3.6495    6.2228 H         1 <0>         0.0760
     32 H3         -0.8932    2.2171    6.2833 H         1 <0>         0.0744
     33 H4         -2.9792    4.8937    5.6420 H         1 <0>         0.1289
     34 H5         -3.9139    5.5069    3.4498 H         1 <0>         0.1296
     35 H6         -2.8815    4.6510    1.3860 H         1 <0>         0.1259
     36 H7          0.0181    2.5463    3.7215 H         1 <0>         0.1264
     37 H8         -0.1825    1.2414    2.1586 H         1 <0>         0.1284
     38 H9         -1.7530    1.1760    1.2892 H         1 <0>         0.0697
     39 H10         1.0192    1.4668    0.0007 H         1 <0>         0.1370
     40 H11         0.0025   -0.0141    0.0024 H         1 <0>         0.1404
     41 H12         0.2460    3.4451   -1.2179 H         1 <0>         0.1374
     42 H13        -1.3241    3.3804   -2.0881 H         1 <0>         0.1440
     43 H14        -2.5266    3.1545    0.0706 H         1 <0>         0.0717
     44 H15        -1.5101    4.6355    0.0690 H         1 <0>         0.1299
     45 H16         0.9763    1.2349   -2.3813 H         1 <0>         0.1296
     46 H17        -0.3008   -0.0234   -2.4924 H         1 <0>         0.1343
     47 H18        -1.7946    1.5953   -3.6529 H         1 <0>         0.0926
     48 H19        -0.5174    2.8535   -3.5420 H         1 <0>         0.0941
     49 H20         1.0168    1.4136   -4.8730 H         1 <0>         0.0839
     50 H21        -0.2604    0.1554   -4.9840 H         1 <0>         0.0842
     51 H22        -1.7542    1.7740   -6.1447 H         1 <0>         0.0737
     52 H23        -0.4770    3.0323   -6.0336 H         1 <0>         0.0735
     53 H24         0.7132    0.6522   -7.2834 H         1 <0>         0.4322
     54 H25        -0.8350    2.5789  -11.3080 H         1 <0>         0.1711
     55 H26         0.3199    1.6417  -13.9507 H         1 <0>         0.1342
     56 H27         1.9367    0.0883  -14.9258 H         1 <0>         0.1364
     57 H28         3.2692   -1.3894  -13.4817 H         1 <0>         0.1414
     58 H29         2.9978   -1.3306  -11.0444 H         1 <0>         0.1363
     59 H30        -1.7568    1.1962   -1.1382 H         1 <0>         0.4401
@<TRIPOS>BOND
     1    1    2 1
     2    1   30 1
     3    1   31 1
     4    1   32 1
     5    2    7 ar
     6    2    3 ar
     7    3    4 ar
     8    3   33 1
     9    4    5 ar
    10    4   34 1
    11    5    6 ar
    12    5   35 1
    13    6    7 ar
    14    6    8 1
    15    7   36 1
    16    8   13 1
    17    8    9 1
    18    9   10 1
    19    9   37 1
    20    9   38 1
    21   10   11 1
    22   10   39 1
    23   10   40 1
    24   11   12 1
    25   11   14 1
    26   11   59 1
    27   12   13 1
    28   12   41 1
    29   12   42 1
    30   13   43 1
    31   13   44 1
    32   14   15 1
    33   14   45 1
    34   14   46 1
    35   15   16 1
    36   15   47 1
    37   15   48 1
    38   16   17 1
    39   16   49 1
    40   16   50 1
    41   17   18 1
    42   17   51 1
    43   17   52 1
    44   18   19 am
    45   18   53 1
    46   19   20 2
    47   19   21 1
    48   21   29 1
    49   21   22 2
    50   22   23 1
    51   22   54 1
    52   23   28 ar
    53   23   24 ar
    54   24   25 ar
    55   24   55 1
    56   25   26 ar
    57   25   56 1
    58   26   27 ar
    59   26   57 1
    60   27   28 ar
    61   27   58 1
    62   28   29 1
@<TRIPOS>MOLECULE
ZINC26954229
   58    61     0     0     0
SMALL
USER_CHARGES
N-[4-[4-(m-tolyl)piperazin-1-yl]butyl]benzofuran-2-carboxamide
@<TRIPOS>ATOM
      1 C1         -0.8551    3.3094    6.1594 C.3       1 <0>        -0.1185
      2 C2         -1.4241    3.6825    4.8148 C.ar      1 <0>        -0.0610
      3 C3         -2.5272    4.5132    4.7379 C.ar      1 <0>        -0.1473
      4 C4         -3.0525    4.8580    3.5063 C.ar      1 <0>        -0.0893
      5 C5         -2.4735    4.3777    2.3479 C.ar      1 <0>        -0.1766
      6 C6         -1.3685    3.5394    2.4216 C.ar      1 <0>         0.1157
      7 C7         -0.8433    3.1949    3.6608 C.ar      1 <0>        -0.1426
      8 N1         -0.7832    3.0484    1.2523 N.pl3     1 <0>        -0.4913
      9 C8         -0.7300    1.5798    1.2666 C.3       1 <0>         0.0597
     10 C9         -0.0127    1.0858    0.0080 C.3       1 <0>         0.0543
     11 N2         -0.7243    1.5730   -1.1819 N.3       1 <0>        -0.5393
     12 C10        -0.7771    3.0416   -1.1959 C.3       1 <0>         0.0479
     13 C11        -1.4948    3.5356    0.0624 C.3       1 <0>         0.0511
     14 C12        -0.1087    1.0567   -2.4117 C.3       1 <0>         0.0561
     15 C13        -0.7095    1.7734   -3.6226 C.3       1 <0>        -0.1219
     16 C14        -0.0683    1.2355   -4.9034 C.3       1 <0>        -0.1300
     17 C15        -0.6691    1.9522   -6.1143 C.3       1 <0>         0.1199
     18 N3         -0.0552    1.4373   -7.3407 N.am      1 <0>        -0.7291
     19 C16        -0.4318    1.9254   -8.5392 C.2       1 <0>         0.6009
     20 O1         -1.2816    2.7936   -8.6026 O.2       1 <0>        -0.5174
     21 C17         0.1841    1.4087   -9.7696 C.2       1 <0>        -0.0298
     22 C18        -0.1156    1.8239  -11.0275 C.2       1 <0>        -0.1085
     23 C19         0.7337    1.0418  -11.9253 C.ar      1 <0>        -0.1464
     24 C20         0.9018    0.9944  -13.3113 C.ar      1 <0>        -0.0584
     25 C21         1.8058    0.1259  -13.8544 C.ar      1 <0>        -0.1373
     26 C22         2.5578   -0.7084  -13.0383 C.ar      1 <0>        -0.0802
     27 C23         2.4070   -0.6770  -11.6690 C.ar      1 <0>        -0.1120
     28 C24         1.4929    0.1981  -11.0933 C.ar      1 <0>         0.0705
     29 O2          1.1368    0.4543   -9.8196 O.3       1 <0>        -0.1867
     30 H1         -1.4459    3.7893    6.9535 H         1 <0>         0.0667
     31 H2          0.1891    3.6495    6.2228 H         1 <0>         0.0709
     32 H3         -0.8932    2.2171    6.2833 H         1 <0>         0.0703
     33 H4         -2.9792    4.8937    5.6420 H         1 <0>         0.1206
     34 H5         -3.9139    5.5069    3.4498 H         1 <0>         0.1223
     35 H6         -2.8815    4.6510    1.3860 H         1 <0>         0.1258
     36 H7          0.0181    2.5463    3.7215 H         1 <0>         0.1228
     37 H8         -0.1825    1.2414    2.1586 H         1 <0>         0.0872
     38 H9         -1.7530    1.1760    1.2892 H         1 <0>         0.0537
     39 H10         1.0192    1.4668    0.0007 H         1 <0>         0.0455
     40 H11         0.0025   -0.0141    0.0024 H         1 <0>         0.0856
     41 H12         0.2460    3.4451   -1.2179 H         1 <0>         0.0444
     42 H13        -1.3241    3.3804   -2.0881 H         1 <0>         0.0920
     43 H14        -2.5266    3.1545    0.0706 H         1 <0>         0.0563
     44 H15        -1.5101    4.6355    0.0690 H         1 <0>         0.0878
     45 H16         0.9763    1.2349   -2.3813 H         1 <0>         0.0367
     46 H17        -0.3008   -0.0234   -2.4924 H         1 <0>         0.0791
     47 H18        -1.7946    1.5953   -3.6529 H         1 <0>         0.0777
     48 H19        -0.5174    2.8535   -3.5420 H         1 <0>         0.0707
     49 H20         1.0168    1.4136   -4.8730 H         1 <0>         0.0715
     50 H21        -0.2604    0.1554   -4.9840 H         1 <0>         0.0741
     51 H22        -1.7542    1.7740   -6.1447 H         1 <0>         0.0727
     52 H23        -0.4770    3.0323   -6.0336 H         1 <0>         0.0713
     53 H24         0.7132    0.6522   -7.2834 H         1 <0>         0.4302
     54 H25        -0.8350    2.5789  -11.3080 H         1 <0>         0.1705
     55 H26         0.3199    1.6417  -13.9507 H         1 <0>         0.1324
     56 H27         1.9367    0.0883  -14.9258 H         1 <0>         0.1338
     57 H28         3.2692   -1.3894  -13.4817 H         1 <0>         0.1391
     58 H29         2.9978   -1.3306  -11.0444 H         1 <0>         0.1360
@<TRIPOS>BOND
     1    1    2 1
     2    1   30 1
     3    1   31 1
     4    1   32 1
     5    2    7 ar
     6    2    3 ar
     7    3    4 ar
     8    3   33 1
     9    4    5 ar
    10    4   34 1
    11    5    6 ar
    12    5   35 1
    13    6    7 ar
    14    6    8 1
    15    7   36 1
    16    8   13 1
    17    8    9 1
    18    9   10 1
    19    9   37 1
    20    9   38 1
    21   10   11 1
    22   10   39 1
    23   10   40 1
    24   11   12 1
    25   11   14 1
    26   12   13 1
    27   12   41 1
    28   12   42 1
    29   13   43 1
    30   13   44 1
    31   14   15 1
    32   14   45 1
    33   14   46 1
    34   15   16 1
    35   15   47 1
    36   15   48 1
    37   16   17 1
    38   16   49 1
    39   16   50 1
    40   17   18 1
    41   17   51 1
    42   17   52 1
    43   18   19 am
    44   18   53 1
    45   19   20 2
    46   19   21 1
    47   21   29 1
    48   21   22 2
    49   22   23 1
    50   22   54 1
    51   23   28 ar
    52   23   24 ar
    53   24   25 ar
    54   24   55 1
    55   25   26 ar
    56   25   56 1
    57   26   27 ar
    58   26   57 1
    59   27   28 ar
    60   27   58 1
    61   28   29 1
@<TRIPOS>MOLECULE
ZINC00002002
   46    47     0     0     0
SMALL
USER_CHARGES

@<TRIPOS>ATOM
      1 C1         -0.0178    1.4648    0.0101 C.3       1 <0>        -0.0587
      2 N1          0.0021   -0.0041    0.0020 N.4       1 <0>        -0.3835
      3 C2          0.7126   -0.4907    1.1921 C.3       1 <0>        -0.0490
      4 C3         -1.3761   -0.5125    0.0124 C.3       1 <0>        -0.0390
      5 C4         -2.0780   -0.1101   -1.2861 C.3       1 <0>         0.0881
      6 N2         -3.4524   -0.6172   -1.2757 N.pl3     1 <0>        -0.5880
      7 C5         -4.5324    0.2051   -0.7248 C.3       1 <0>         0.1454
      8 C6         -5.1228    1.0574   -1.8185 C.ar      1 <0>        -0.1912
      9 C7         -4.6016    2.3125   -2.0728 C.ar      1 <0>        -0.0544
     10 C8         -5.1414    3.0959   -3.0745 C.ar      1 <0>        -0.1449
     11 C9         -6.2070    2.6220   -3.8259 C.ar      1 <0>         0.1632
     12 C10        -6.7279    1.3621   -3.5690 C.ar      1 <0>        -0.2017
     13 C11        -6.1812    0.5805   -2.5696 C.ar      1 <0>        -0.0681
     14 O1         -6.7400    3.3909   -4.8116 O.3       1 <0>        -0.3058
     15 C12        -7.8354    2.8386   -5.5445 C.3       1 <0>         0.0209
     16 C13        -3.7317   -1.8786   -1.7886 C.ar      1 <0>         0.4377
     17 C14        -2.7004   -2.6567   -2.3052 C.ar      1 <0>        -0.2074
     18 C15        -2.9925   -3.9098   -2.8122 C.ar      1 <0>         0.0471
     19 C16        -4.3113   -4.3446   -2.7857 C.ar      1 <0>        -0.1588
     20 C17        -5.2845   -3.5202   -2.2583 C.ar      1 <0>         0.1568
     21 N3         -4.9759   -2.3311   -1.7763 N.ar      1 <0>        -0.4985
     22 H1          1.0047    1.8421    0.0024 H         1 <0>         0.1352
     23 H2         -0.5450    1.8259   -0.8730 H         1 <0>         0.1236
     24 H3         -0.5280    1.8163    0.9069 H         1 <0>         0.1281
     25 H4          0.2024   -0.1392    2.0889 H         1 <0>         0.1260
     26 H5          0.7273   -1.5806    1.1861 H         1 <0>         0.1262
     27 H6          1.7352   -0.1134    1.1844 H         1 <0>         0.1337
     28 H7         -1.3618   -1.5992    0.0961 H         1 <0>         0.1366
     29 H8         -1.9129   -0.0898    0.8617 H         1 <0>         0.1413
     30 H9         -2.0923    0.9766   -1.3697 H         1 <0>         0.1251
     31 H10        -1.5412   -0.5328   -2.1354 H         1 <0>         0.1159
     32 H11        -5.3060   -0.4413   -0.3102 H         1 <0>         0.0925
     33 H12        -4.1354    0.8470    0.0617 H         1 <0>         0.1207
     34 H13        -3.7721    2.6810   -1.4875 H         1 <0>         0.1301
     35 H14        -4.7344    4.0765   -3.2723 H         1 <0>         0.1438
     36 H15        -7.5574    0.9910   -4.1526 H         1 <0>         0.1399
     37 H16        -6.5834   -0.4021   -2.3722 H         1 <0>         0.1082
     38 H17        -8.6582    2.6252   -4.8622 H         1 <0>         0.0635
     39 H18        -8.1649    3.5531   -6.2988 H         1 <0>         0.1144
     40 H19        -7.5186    1.9163   -6.0314 H         1 <0>         0.0607
     41 H20        -1.6857   -2.2870   -2.3104 H         1 <0>         0.1724
     42 H21        -2.2128   -4.5359   -3.2200 H         1 <0>         0.1797
     43 H22        -4.5726   -5.3179   -3.1742 H         1 <0>         0.1883
     44 H23        -6.3113   -3.8543   -2.2360 H         1 <0>         0.2135
     45 H24        -5.6786   -1.7731   -1.4076 H         1 <0>         0.4404
     46 H25         0.4743   -0.3295   -0.8281 H         1 <0>         0.4299
@<TRIPOS>BOND
     1    1    2 1
     2    1   22 1
     3    1   23 1
     4    1   24 1
     5    2    3 1
     6    2    4 1
     7    2   46 1
     8    3   25 1
     9    3   26 1
    10    3   27 1
    11    4    5 1
    12    4   28 1
    13    4   29 1
    14    5    6 1
    15    5   30 1
    16    5   31 1
    17    6    7 1
    18    6   16 1
    19    7    8 1
    20    7   32 1
    21    7   33 1
    22    8   13 ar
    23    8    9 ar
    24    9   10 ar
    25    9   34 1
    26   10   11 ar
    27   10   35 1
    28   11   12 ar
    29   11   14 1
    30   12   13 ar
    31   12   36 1
    32   13   37 1
    33   14   15 1
    34   15   38 1
    35   15   39 1
    36   15   40 1
    37   16   21 ar
    38   16   17 ar
    39   17   18 ar
    40   17   41 1
    41   18   19 ar
    42   18   42 1
    43   19   20 ar
    44   19   43 1
    45   20   21 ar
    46   20   44 1
    47   21   45 1
@<TRIPOS>MOLECULE
ZINC00000504
   41    44     0     0     0
SMALL
USER_CHARGES

@<TRIPOS>ATOM
      1 C1         -0.0178    1.4648    0.0101 C.3       1 <0>        -0.0457
      2 N1          0.0021   -0.0041    0.0020 N.4       1 <0>        -0.3851
      3 C2         -1.3782   -0.5248    0.0610 C.3       1 <0>        -0.0107
      4 C3         -1.3147   -2.0017   -0.3247 C.3       1 <0>         0.1097
      5 N2         -0.2536   -2.6823    0.4304 N.pl3     1 <0>        -0.6570
      6 C4         -0.1632   -4.0681    0.2474 C.ar      1 <0>         0.1515
      7 C5          0.1651   -4.5655   -1.0110 C.ar      1 <0>        -0.1283
      8 C6          0.3219   -5.9257   -1.1894 C.ar      1 <0>        -0.1053
      9 C7          0.1595   -6.7897   -0.1216 C.ar      1 <0>        -0.1122
     10 C8         -0.1903   -6.2968    1.1226 C.ar      1 <0>        -0.0978
     11 C9         -0.3794   -4.9379    1.2936 C.ar      1 <0>        -0.0863
     12 C10        -0.9055   -4.4020    2.5876 C.3       1 <0>        -0.0401
     13 C11         0.0255   -3.4607    3.2849 C.ar      1 <0>        -0.0434
     14 C12         0.2033   -3.7275    4.6483 C.ar      1 <0>        -0.1164
     15 C13         1.0009   -2.9352    5.4386 C.ar      1 <0>        -0.1037
     16 C14         1.6407   -1.8450    4.8776 C.ar      1 <0>        -0.1092
     17 C15         1.4792   -1.5873    3.5373 C.ar      1 <0>        -0.1345
     18 C16         0.6836   -2.4040    2.7249 C.ar      1 <0>        -0.1120
     19 C17         0.6957   -2.0166    1.2712 C.3       1 <0>         0.2145
     20 H1          1.6762   -2.3177    0.9022 H         1 <0>         0.0814
     21 C18         0.7079   -0.4980    1.1840 C.3       1 <0>        -0.0096
     22 H2          1.0047    1.8421    0.0024 H         1 <0>         0.1256
     23 H3         -0.5450    1.8259   -0.8730 H         1 <0>         0.1278
     24 H4         -0.5280    1.8163    0.9069 H         1 <0>         0.1233
     25 H5         -1.7720   -0.4210    1.0720 H         1 <0>         0.1359
     26 H6         -2.0104    0.0166   -0.6429 H         1 <0>         0.1459
     27 H7         -2.2727   -2.4732   -0.1054 H         1 <0>         0.1007
     28 H8         -1.1096   -2.0872   -1.3918 H         1 <0>         0.0828
     29 H9          0.2970   -3.8905   -1.8436 H         1 <0>         0.1222
     30 H10         0.5722   -6.3158   -2.1649 H         1 <0>         0.1292
     31 H11         0.3058   -7.8509   -0.2596 H         1 <0>         0.1304
     32 H12        -0.3156   -6.9709    1.9570 H         1 <0>         0.1304
     33 H13        -1.8427   -3.8810    2.3915 H         1 <0>         0.0851
     34 H14        -1.1118   -5.2412    3.2519 H         1 <0>         0.0847
     35 H15        -0.2988   -4.5760    5.0892 H         1 <0>         0.1275
     36 H16         1.1270   -3.1618    6.4870 H         1 <0>         0.1317
     37 H17         2.2602   -1.2030    5.4861 H         1 <0>         0.1308
     38 H18         1.9776   -0.7345    3.1006 H         1 <0>         0.1191
     39 H19         1.7417   -0.1544    1.1475 H         1 <0>         0.1407
     40 H20         0.2329   -0.0891    2.0758 H         1 <0>         0.1370
     41 H21         0.4593   -0.3360   -0.8339 H         1 <0>         0.4294
@<TRIPOS>BOND
     1    1    2 1
     2    1   22 1
     3    1   23 1
     4    1   24 1
     5    2   21 1
     6    2    3 1
     7    2   41 1
     8    3    4 1
     9    3   25 1
    10    3   26 1
    11    4    5 1
    12    4   27 1
    13    4   28 1
    14    5   19 1
    15    5    6 1
    16    6   11 ar
    17    6    7 ar
    18    7    8 ar
    19    7   29 1
    20    8    9 ar
    21    8   30 1
    22    9   10 ar
    23    9   31 1
    24   10   11 ar
    25   10   32 1
    26   11   12 1
    27   12   13 1
    28   12   33 1
    29   12   34 1
    30   13   18 ar
    31   13   14 ar
    32   14   15 ar
    33   14   35 1
    34   15   16 ar
    35   15   36 1
    36   16   17 ar
    37   16   37 1
    38   17   18 ar
    39   17   38 1
    40   18   19 1
    41   19   20 1
    42   19   21 1
    43   21   39 1
    44   21   40 1
@<TRIPOS>MOLECULE
ZINC00897253
   48    50     0     0     0
SMALL
USER_CHARGES

@<TRIPOS>ATOM
      1 C1         -0.0149    1.2628    0.2861 C.3       1 <0>        -0.0521
      2 N1          0.0115   -0.1872    0.0521 N.4       1 <0>        -0.3863
      3 C2          0.7357   -0.8467    1.1468 C.3       1 <0>        -0.0464
      4 C3         -1.3642   -0.6994   -0.0035 C.3       1 <0>        -0.0096
      5 C4         -2.0805   -0.1063   -1.2184 C.3       1 <0>        -0.1183
      6 C5         -3.4918   -0.6317   -1.2754 C.2       1 <0>        -0.1702
      7 C6         -4.5204    0.2206   -1.3621 C.2       1 <0>         0.0088
      8 C7         -4.2582    1.6620   -1.5859 C.ar      1 <0>        -0.0407
      9 C8         -3.2708    1.9745   -2.5333 C.ar      1 <0>        -0.1171
     10 C9         -2.9512    3.2834   -2.8103 C.ar      1 <0>        -0.1249
     11 C10        -3.6124    4.3005   -2.1446 C.ar      1 <0>        -0.1104
     12 C11        -4.5820    3.9989   -1.2151 C.ar      1 <0>        -0.1190
     13 C12        -4.9216    2.6771   -0.9230 C.ar      1 <0>        -0.0936
     14 C13        -6.0072    2.5107    0.1077 C.3       1 <0>         0.1098
     15 O1         -6.1705    1.2003    0.5864 O.3       1 <0>        -0.3220
     16 C14        -6.6771    0.2362   -0.2064 C.ar      1 <0>         0.0822
     17 C15        -5.9054   -0.2908   -1.2388 C.ar      1 <0>        -0.0960
     18 C16        -6.4130   -1.2532   -2.1006 C.ar      1 <0>        -0.0806
     19 C17        -7.7061   -1.7089   -1.9145 C.ar      1 <0>        -0.0139
     20 C18        -8.4756   -1.2082   -0.8793 C.ar      1 <0>        -0.0930
     21 C19        -7.9687   -0.2356   -0.0158 C.ar      1 <0>        -0.1237
     22 C20        -8.2772   -2.7514   -2.8408 C.3       1 <0>        -0.1632
     23 C21        -7.9830   -4.1245   -2.2939 C.2       1 <0>         0.4977
     24 O2         -7.3667   -4.2454   -1.2489 O.co2     1 <0>        -0.6899
     25 O3         -8.3613   -5.1146   -2.8965 O.co2     1 <0>        -0.6943
     26 H1          1.0058    1.6429    0.3273 H         1 <0>         0.1221
     27 H2         -0.5523    1.7522   -0.5262 H         1 <0>         0.1233
     28 H3         -0.5179    1.4693    1.2308 H         1 <0>         0.1219
     29 H4          0.2327   -0.6403    2.0915 H         1 <0>         0.1214
     30 H5          0.7554   -1.9226    0.9731 H         1 <0>         0.1238
     31 H6          1.7565   -0.4667    1.1880 H         1 <0>         0.1217
     32 H7         -1.3442   -1.7859   -0.0881 H         1 <0>         0.1345
     33 H8         -1.8946   -0.4154    0.9054 H         1 <0>         0.1322
     34 H9         -2.1005    0.9802   -1.1338 H         1 <0>         0.0993
     35 H10        -1.5501   -0.3902   -2.1273 H         1 <0>         0.0922
     36 H11        -3.6734   -1.6960   -1.2464 H         1 <0>         0.1363
     37 H12        -2.7564    1.1783   -3.0508 H         1 <0>         0.1257
     38 H13        -2.1904    3.5152   -3.5410 H         1 <0>         0.1271
     39 H14        -3.3674    5.3312   -2.3541 H         1 <0>         0.1269
     40 H15        -5.0904    4.8015   -0.7016 H         1 <0>         0.1269
     41 H16        -5.7816    3.1605    0.9533 H         1 <0>         0.1134
     42 H17        -6.9505    2.8374   -0.3300 H         1 <0>         0.0668
     43 H18        -5.8068   -1.6408   -2.9060 H         1 <0>         0.1233
     44 H19        -9.4807   -1.5761   -0.7350 H         1 <0>         0.1264
     45 H20        -8.5750    0.1521    0.7895 H         1 <0>         0.1296
     46 H21        -9.3558   -2.6153   -2.9200 H         1 <0>         0.0748
     47 H22        -7.8246   -2.6484   -3.8270 H         1 <0>         0.0720
     48 H23         0.4771   -0.3783   -0.8224 H         1 <0>         0.4251
@<TRIPOS>BOND
     1    1    2 1
     2    1   26 1
     3    1   27 1
     4    1   28 1
     5    2    3 1
     6    2    4 1
     7    2   48 1
     8    3   29 1
     9    3   30 1
    10    3   31 1
    11    4    5 1
    12    4   32 1
    13    4   33 1
    14    5    6 1
    15    5   34 1
    16    5   35 1
    17    6    7 2
    18    6   36 1
    19    7   17 1
    20    7    8 1
    21    8   13 ar
    22    8    9 ar
    23    9   10 ar
    24    9   37 1
    25   10   11 ar
    26   10   38 1
    27   11   12 ar
    28   11   39 1
    29   12   13 ar
    30   12   40 1
    31   13   14 1
    32   14   15 1
    33   14   41 1
    34   14   42 1
    35   15   16 1
    36   16   21 ar
    37   16   17 ar
    38   17   18 ar
    39   18   19 ar
    40   18   43 1
    41   19   20 ar
    42   19   22 1
    43   20   21 ar
    44   20   44 1
    45   21   45 1
    46   22   23 1
    47   22   46 1
    48   22   47 1
    49   23   24 2
    50   23   25 1
@<TRIPOS>MOLECULE
ZINC01999529
   52    55     0     0     0
SMALL
USER_CHARGES

@<TRIPOS>ATOM
      1 C1         -0.0166    1.3718    0.0096 C.ar      1 <0>        -0.0777
      2 C2          1.1605    2.0994    0.0023 C.ar      1 <0>        -0.0864
      3 C3          2.3767    1.4321   -0.0129 C.ar      1 <0>         0.0073
      4 C4          2.3992    0.0662   -0.0204 C.ar      1 <0>        -0.6175
      5 C5          1.2246   -0.6975   -0.0133 C.ar      1 <0>        -0.1240
      6 C6          0.0021   -0.0041    0.0020 C.ar      1 <0>        -0.0321
      7 C7          1.4909   -2.1423   -0.0240 C.2       1 <0>         0.5408
      8 O1          0.5787   -2.9456   -0.0200 O.2       1 <0>        -0.4623
      9 N1          2.7689   -2.5506   -0.0387 N.am      1 <0>        -0.9253
     10 S1          3.6863   -1.1515   -0.0397 S.o2      1 <0>         2.6548
     11 O2          4.3669   -1.0804    1.2056 O.2       1 <0>        -0.9145
     12 O3          4.3426   -1.0663   -1.2972 O.2       1 <0>        -0.9196
     13 C8          3.2582   -3.9315   -0.0505 C.3       1 <0>         0.1395
     14 C9          3.2964   -4.4467   -1.4906 C.3       1 <0>        -0.1474
     15 C10         3.8074   -5.8888   -1.5029 C.3       1 <0>        -0.1473
     16 C11         3.8456   -6.4041   -2.9430 C.3       1 <0>        -0.0102
     17 N2          4.3362   -7.7887   -2.9548 N.4       1 <0>        -0.3846
     18 C12         5.7269   -7.8173   -2.4842 C.3       1 <0>        -0.0271
     19 C13         6.2023   -9.2707   -2.3871 C.3       1 <0>         0.1084
     20 N3          5.9887   -9.9193   -3.6901 N.pl3     1 <0>        -0.6062
     21 C14         4.6622   -9.8000   -4.3147 C.3       1 <0>         0.1079
     22 C15         4.2595   -8.3216   -4.3209 C.3       1 <0>        -0.0203
     23 C16         7.0071  -10.6215   -4.3109 C.ar      1 <0>         0.5561
     24 N4          8.1872  -10.7115   -3.7152 N.ar      1 <0>        -0.5663
     25 C17         9.1814  -11.3755   -4.2811 C.ar      1 <0>         0.1960
     26 C18         8.9767  -11.9805   -5.5112 C.ar      1 <0>        -0.2677
     27 C19         7.7301  -11.8667   -6.1064 C.ar      1 <0>         0.1958
     28 N5          6.7772  -11.1924   -5.4842 N.ar      1 <0>        -0.5665
     29 H1         -0.9633    1.8912    0.0260 H         1 <0>         0.1509
     30 H2          1.1326    3.1791    0.0079 H         1 <0>         0.1535
     31 H3          3.3014    1.9899   -0.0191 H         1 <0>         0.1494
     32 H4         -0.9274   -0.5540    0.0083 H         1 <0>         0.1485
     33 H5          4.2615   -3.9650    0.3742 H         1 <0>         0.1015
     34 H6          2.5917   -4.5582    0.5421 H         1 <0>         0.1059
     35 H7          2.2931   -4.4131   -1.9152 H         1 <0>         0.0892
     36 H8          3.9629   -3.8200   -2.0832 H         1 <0>         0.0898
     37 H9          4.8107   -5.9224   -1.0783 H         1 <0>         0.0933
     38 H10         3.1409   -6.5155   -0.9103 H         1 <0>         0.0955
     39 H11         2.8423   -6.3705   -3.3677 H         1 <0>         0.1353
     40 H12         4.5121   -5.7774   -3.5356 H         1 <0>         0.1327
     41 H13         6.3594   -7.2742   -3.1864 H         1 <0>         0.1335
     42 H14         5.7879   -7.3485   -1.5021 H         1 <0>         0.1458
     43 H15         7.2628   -9.2931   -2.1362 H         1 <0>         0.1405
     44 H16         5.6303   -9.7927   -1.6200 H         1 <0>         0.0917
     45 H17         4.7045  -10.1723   -5.3383 H         1 <0>         0.1405
     46 H18         3.9347  -10.3754   -3.7423 H         1 <0>         0.0917
     47 H19         3.2393   -8.2244   -4.6922 H         1 <0>         0.1446
     48 H20         4.9364   -7.7632   -4.9675 H         1 <0>         0.1326
     49 H21        10.1412  -11.4451   -3.7908 H         1 <0>         0.1760
     50 H22         9.7713  -12.5285   -5.9956 H         1 <0>         0.1542
     51 H23         7.5380  -12.3261   -7.0647 H         1 <0>         0.1759
     52 H24         3.7650   -8.3518   -2.3428 H         1 <0>         0.4236
@<TRIPOS>BOND
     1    1    6 ar
     2    1    2 ar
     3    1   29 1
     4    2    3 ar
     5    2   30 1
     6    3    4 ar
     7    3   31 1
     8    4   10 1
     9    4    5 ar
    10    5    6 ar
    11    5    7 1
    12    6   32 1
    13    7    8 2
    14    7    9 am
    15    9   10 1
    16    9   13 1
    17   10   11 2
    18   10   12 2
    19   13   14 1
    20   13   33 1
    21   13   34 1
    22   14   15 1
    23   14   35 1
    24   14   36 1
    25   15   16 1
    26   15   37 1
    27   15   38 1
    28   16   17 1
    29   16   39 1
    30   16   40 1
    31   17   22 1
    32   17   18 1
    33   17   52 1
    34   18   19 1
    35   18   41 1
    36   18   42 1
    37   19   20 1
    38   19   43 1
    39   19   44 1
    40   20   21 1
    41   20   23 1
    42   21   22 1
    43   21   45 1
    44   21   46 1
    45   22   47 1
    46   22   48 1
    47   23   28 ar
    48   23   24 ar
    49   24   25 ar
    50   25   26 ar
    51   25   49 1
    52   26   27 ar
    53   26   50 1
    54   27   28 ar
    55   27   51 1
@<TRIPOS>MOLECULE
ZINC01999529
   51    54     0     0     0
SMALL
USER_CHARGES

@<TRIPOS>ATOM
      1 C1         -0.0166    1.3718    0.0096 C.ar      1 <0>        -0.0797
      2 C2          1.1605    2.0994    0.0023 C.ar      1 <0>        -0.0925
      3 C3          2.3767    1.4321   -0.0129 C.ar      1 <0>         0.0055
      4 C4          2.3992    0.0662   -0.0204 C.ar      1 <0>        -0.6181
      5 C5          1.2246   -0.6975   -0.0133 C.ar      1 <0>        -0.1153
      6 C6          0.0021   -0.0041    0.0020 C.ar      1 <0>        -0.0365
      7 C7          1.4909   -2.1423   -0.0240 C.2       1 <0>         0.5361
      8 O1          0.5787   -2.9456   -0.0200 O.2       1 <0>        -0.4603
      9 N1          2.7689   -2.5506   -0.0387 N.am      1 <0>        -0.9199
     10 S1          3.6863   -1.1515   -0.0397 S.o2      1 <0>         2.6544
     11 O2          4.3669   -1.0804    1.2056 O.2       1 <0>        -0.9194
     12 O3          4.3426   -1.0663   -1.2972 O.2       1 <0>        -0.9182
     13 C8          3.2582   -3.9315   -0.0505 C.3       1 <0>         0.1391
     14 C9          3.2964   -4.4467   -1.4906 C.3       1 <0>        -0.1462
     15 C10         3.8074   -5.8888   -1.5029 C.3       1 <0>        -0.1140
     16 C11         3.8456   -6.4041   -2.9430 C.3       1 <0>         0.0557
     17 N2          4.3362   -7.7887   -2.9548 N.3       1 <0>        -0.5381
     18 C12         5.7363   -7.8548   -2.5151 C.3       1 <0>         0.0366
     19 C13         6.1531   -9.3220   -2.3677 C.3       1 <0>         0.1319
     20 N3          5.8642  -10.0190   -3.6302 N.pl3     1 <0>        -0.5851
     21 C14         4.5174   -9.8860   -4.2060 C.3       1 <0>         0.1323
     22 C15         4.1649   -8.3966   -4.2811 C.3       1 <0>         0.0413
     23 C16         6.8339  -10.7801   -4.2595 C.ar      1 <0>         0.5658
     24 N4          8.0345  -10.8821   -3.7086 N.ar      1 <0>        -0.5729
     25 C17         8.9835  -11.6019   -4.2839 C.ar      1 <0>         0.1940
     26 C18         8.7091  -12.2531   -5.4763 C.ar      1 <0>        -0.2967
     27 C19         7.4428  -12.1251   -6.0250 C.ar      1 <0>         0.1939
     28 N5          6.5378  -11.3939   -5.3958 N.ar      1 <0>        -0.5731
     29 H1         -0.9633    1.8912    0.0260 H         1 <0>         0.1479
     30 H2          1.1326    3.1791    0.0079 H         1 <0>         0.1502
     31 H3          3.3014    1.9899   -0.0191 H         1 <0>         0.1474
     32 H4         -0.9274   -0.5540    0.0083 H         1 <0>         0.1478
     33 H5          4.2615   -3.9650    0.3742 H         1 <0>         0.0985
     34 H6          2.5917   -4.5582    0.5421 H         1 <0>         0.1041
     35 H7          2.2931   -4.4131   -1.9152 H         1 <0>         0.0780
     36 H8          3.9629   -3.8200   -2.0832 H         1 <0>         0.0764
     37 H9          4.8107   -5.9224   -1.0783 H         1 <0>         0.0686
     38 H10         3.1409   -6.5155   -0.9103 H         1 <0>         0.0799
     39 H11         2.8423   -6.3705   -3.3677 H         1 <0>         0.0786
     40 H12         4.5121   -5.7774   -3.5356 H         1 <0>         0.0367
     41 H13         6.3730   -7.3683   -3.2541 H         1 <0>         0.0381
     42 H14         5.8404   -7.3489   -1.5553 H         1 <0>         0.0926
     43 H15         7.2203   -9.3798   -2.1535 H         1 <0>         0.1013
     44 H16         5.5887   -9.7834   -1.5573 H         1 <0>         0.0736
     45 H17         4.5031  -10.3166   -5.2073 H         1 <0>         0.1015
     46 H18         3.7957  -10.4015   -3.5724 H         1 <0>         0.0737
     47 H19         3.1294   -8.2836   -4.6020 H         1 <0>         0.0896
     48 H20         4.8235   -7.9025   -4.9955 H         1 <0>         0.0380
     49 H21         9.9604  -11.6810   -3.8302 H         1 <0>         0.1667
     50 H22         9.4658  -12.8471   -5.9673 H         1 <0>         0.1437
     51 H23         7.1969  -12.6195   -6.9532 H         1 <0>         0.1666
@<TRIPOS>BOND
     1    1    6 ar
     2    1    2 ar
     3    1   29 1
     4    2    3 ar
     5    2   30 1
     6    3    4 ar
     7    3   31 1
     8    4   10 1
     9    4    5 ar
    10    5    6 ar
    11    5    7 1
    12    6   32 1
    13    7    8 2
    14    7    9 am
    15    9   10 1
    16    9   13 1
    17   10   11 2
    18   10   12 2
    19   13   14 1
    20   13   33 1
    21   13   34 1
    22   14   15 1
    23   14   35 1
    24   14   36 1
    25   15   16 1
    26   15   37 1
    27   15   38 1
    28   16   17 1
    29   16   39 1
    30   16   40 1
    31   17   22 1
    32   17   18 1
    33   18   19 1
    34   18   41 1
    35   18   42 1
    36   19   20 1
    37   19   43 1
    38   19   44 1
    39   20   21 1
    40   20   23 1
    41   21   22 1
    42   21   45 1
    43   21   46 1
    44   22   47 1
    45   22   48 1
    46   23   28 ar
    47   23   24 ar
    48   24   25 ar
    49   25   26 ar
    50   25   49 1
    51   26   27 ar
    52   26   50 1
    53   27   28 ar
    54   27   51 1
