@<TRIPOS>MOLECULE
ZINC14951170
   39    40     0     0     0
SMALL
USER_CHARGES

@<TRIPOS>ATOM
      1 C1         -0.0167    1.3782    0.0096 C.ar      1 <0>        -0.0763
      2 C2          1.1706    2.0858    0.0021 C.ar      1 <0>        -0.1096
      3 C3          2.3780    1.4104   -0.0130 C.ar      1 <0>        -0.0066
      4 C4          2.3961    0.0270   -0.0206 C.ar      1 <0>        -0.1095
      5 C5          1.2082   -0.6795   -0.0130 C.ar      1 <0>        -0.0760
      6 C6          0.0021   -0.0041    0.0020 C.ar      1 <0>        -0.1499
      7 C7         -1.2928   -0.7750    0.0107 C.3       1 <0>         0.1275
      8 N1         -1.7261   -1.0173   -1.3676 N.pl3     1 <0>        -0.5917
      9 C8         -2.8302   -1.6720   -1.5986 C.cat     1 <0>         0.4623
     10 N2         -3.2371   -1.8996   -2.8928 N.pl3     1 <0>        -0.8007
     11 S1         -3.8008   -2.2649   -0.2528 S.3       1 <0>         0.0840
     12 C9         -5.2034   -3.0908   -1.0536 C.3       1 <0>        -0.1548
     13 C10        -6.1386   -3.6595    0.0155 C.3       1 <0>        -0.1084
     14 C11        -7.3215   -4.3561   -0.6600 C.3       1 <0>        -0.0544
     15 C12        -8.2426   -4.9162    0.3930 C.2       1 <0>         0.0191
     16 C13        -8.1105   -6.1072    1.0077 C.2       1 <0>         0.0438
     17 N3         -9.1543   -6.2174    1.8862 N.pl3     1 <0>        -0.5082
     18 C14        -9.8885   -5.0892    1.7779 C.cat     1 <0>         0.3182
     19 N4         -9.3345   -4.3135    0.8866 N.pl3     1 <0>        -0.4762
     20 H1         -9.3333   -6.9661    2.4765 H         1 <0>         0.4716
     21 Cl1         3.8696    2.2984   -0.0231 Cl        1 <0>        -0.0368
     22 H2         -0.9592    1.9053    0.0259 H         1 <0>         0.1385
     23 H3          1.1558    3.1656    0.0076 H         1 <0>         0.1466
     24 H4          3.3383   -0.5007   -0.0327 H         1 <0>         0.1467
     25 H5          1.2222   -1.7594   -0.0193 H         1 <0>         0.1387
     26 H6         -1.1447   -1.7283    0.5180 H         1 <0>         0.1228
     27 H7         -2.0551   -0.1989    0.5352 H         1 <0>         0.1224
     28 H8         -2.7028   -1.5732   -3.6337 H         1 <0>         0.4322
     29 H9         -4.0583   -2.3865   -3.0646 H         1 <0>         0.4353
     30 H10        -5.7469   -2.3716   -1.6664 H         1 <0>         0.1184
     31 H11        -4.8365   -3.9011   -1.6837 H         1 <0>         0.1208
     32 H12        -5.5951   -4.3787    0.6283 H         1 <0>         0.0974
     33 H13        -6.5055   -2.8492    0.6455 H         1 <0>         0.0904
     34 H14        -7.8650   -3.6369   -1.2728 H         1 <0>         0.1042
     35 H15        -6.9546   -5.1663   -1.2900 H         1 <0>         0.1200
     36 H16        -7.3310   -6.8355    0.8394 H         1 <0>         0.2277
     37 H17       -10.7836   -4.8643    2.3388 H         1 <0>         0.2697
     38 H18        -1.1917   -0.6909   -2.1085 H         1 <0>         0.4350
     39 H19        -9.6617   -3.4397    0.6215 H         1 <0>         0.4658
@<TRIPOS>BOND
     1    1    6 ar
     2    1    2 ar
     3    1   22 1
     4    2    3 ar
     5    2   23 1
     6    3    4 ar
     7    3   21 1
     8    4    5 ar
     9    4   24 1
    10    5    6 ar
    11    5   25 1
    12    6    7 1
    13    7    8 1
    14    7   26 1
    15    7   27 1
    16    8    9 2
    17    8   38 1
    18    9   10 1
    19    9   11 1
    20   10   28 1
    21   10   29 1
    22   11   12 1
    23   12   13 1
    24   12   30 1
    25   12   31 1
    26   13   14 1
    27   13   32 1
    28   13   33 1
    29   14   34 1
    30   14   35 1
    31   14   15 1
    32   15   19 1
    33   15   16 2
    34   16   36 1
    35   16   17 1
    36   17   18 1
    37   17   20 1
    38   18   37 1
    39   18   19 2
    40   19   39 1
@<TRIPOS>MOLECULE
ZINC14951170
   38    39     0     0     0
SMALL
USER_CHARGES

@<TRIPOS>ATOM
      1 C1         -0.0167    1.3782    0.0096 C.ar      1 <0>        -0.0773
      2 C2          1.1706    2.0858    0.0021 C.ar      1 <0>        -0.1097
      3 C3          2.3780    1.4104   -0.0130 C.ar      1 <0>        -0.0104
      4 C4          2.3961    0.0270   -0.0206 C.ar      1 <0>        -0.1099
      5 C5          1.2082   -0.6795   -0.0130 C.ar      1 <0>        -0.0775
      6 C6          0.0021   -0.0041    0.0020 C.ar      1 <0>        -0.1381
      7 C7         -1.2928   -0.7750    0.0107 C.3       1 <0>         0.1298
      8 N1         -1.7261   -1.0173   -1.3676 N.pl3     1 <0>        -0.6435
      9 C8         -2.8907   -1.7079   -1.6112 C.cat     1 <0>         0.4683
     10 N2         -3.6091   -2.1467   -0.6150 N.pl3     1 <0>        -0.7533
     11 S1         -3.4118   -1.9994   -3.2689 S.3       1 <0>         0.0755
     12 C9         -4.9616   -2.9240   -3.0856 C.3       1 <0>        -0.1439
     13 C10        -5.5297   -3.2466   -4.4691 C.3       1 <0>        -0.0992
     14 C11        -6.8370   -4.0265   -4.3145 C.3       1 <0>        -0.0205
     15 C12        -7.3965   -4.3443   -5.6772 C.2       1 <0>        -0.0136
     16 C13        -7.7232   -5.5687   -6.1327 C.2       1 <0>        -0.0442
     17 N3         -8.1905   -5.4049   -7.4088 N.pl3     1 <0>        -0.5673
     18 H1         -8.5043   -6.1060   -8.0012 H         1 <0>         0.4255
     19 C14        -8.1331   -4.0851   -7.6889 C.2       1 <0>         0.1946
     20 N4         -7.6619   -3.4564   -6.6469 N.2       1 <0>        -0.4919
     21 Cl1         3.8696    2.2984   -0.0231 Cl        1 <0>        -0.0438
     22 H2         -0.9592    1.9053    0.0259 H         1 <0>         0.1380
     23 H3          1.1558    3.1656    0.0076 H         1 <0>         0.1447
     24 H4          3.3383   -0.5007   -0.0327 H         1 <0>         0.1446
     25 H5          1.2222   -1.7594   -0.0193 H         1 <0>         0.1377
     26 H6         -1.1447   -1.7283    0.5180 H         1 <0>         0.1053
     27 H7         -2.0551   -0.1989    0.5352 H         1 <0>         0.1054
     28 H8         -1.1917   -0.6909   -2.1085 H         1 <0>         0.4436
     29 H9         -4.4303   -2.6336   -0.7868 H         1 <0>         0.4414
     30 H10        -4.7697   -3.8516   -2.5463 H         1 <0>         0.1142
     31 H11        -5.6801   -2.3222   -2.5291 H         1 <0>         0.1154
     32 H12        -5.7217   -2.3190   -5.0084 H         1 <0>         0.0945
     33 H13        -4.8113   -3.8485   -5.0256 H         1 <0>         0.0841
     34 H14        -6.6450   -4.9541   -3.7752 H         1 <0>         0.0812
     35 H15        -7.5554   -3.4247   -3.7580 H         1 <0>         0.0815
     36 H16        -7.6334   -6.5009   -5.5946 H         1 <0>         0.1772
     37 H17        -8.4315   -3.6256   -8.6195 H         1 <0>         0.2111
     38 H18        -3.3223   -1.9862    0.2976 H         1 <0>         0.4303
@<TRIPOS>BOND
     1    1    6 ar
     2    1    2 ar
     3    1   22 1
     4    2    3 ar
     5    2   23 1
     6    3    4 ar
     7    3   21 1
     8    4    5 ar
     9    4   24 1
    10    5    6 ar
    11    5   25 1
    12    6    7 1
    13    7    8 1
    14    7   26 1
    15    7   27 1
    16    8    9 1
    17    8   28 1
    18    9   10 2
    19    9   11 1
    20   10   29 1
    21   10   38 1
    22   11   12 1
    23   12   13 1
    24   12   30 1
    25   12   31 1
    26   13   14 1
    27   13   32 1
    28   13   33 1
    29   14   15 1
    30   14   34 1
    31   14   35 1
    32   15   20 1
    33   15   16 2
    34   16   17 1
    35   16   36 1
    36   17   18 1
    37   17   19 1
    38   19   20 2
    39   19   37 1
@<TRIPOS>MOLECULE
ZINC14951170
   38    39     0     0     0
SMALL
USER_CHARGES

@<TRIPOS>ATOM
      1 C1         -0.0167    1.3782    0.0096 C.ar      1 <0>        -0.0770
      2 C2          1.1706    2.0858    0.0021 C.ar      1 <0>        -0.1104
      3 C3          2.3780    1.4104   -0.0130 C.ar      1 <0>        -0.0098
      4 C4          2.3961    0.0270   -0.0206 C.ar      1 <0>        -0.1102
      5 C5          1.2082   -0.6795   -0.0130 C.ar      1 <0>        -0.0766
      6 C6          0.0021   -0.0041    0.0020 C.ar      1 <0>        -0.1423
      7 C7         -1.2928   -0.7750    0.0107 C.3       1 <0>         0.1279
      8 N1         -1.7261   -1.0173   -1.3676 N.pl3     1 <0>        -0.6001
      9 C8         -2.8302   -1.6720   -1.5986 C.cat     1 <0>         0.4596
     10 N2         -3.2371   -1.8996   -2.8928 N.pl3     1 <0>        -0.8019
     11 S1         -3.8008   -2.2649   -0.2528 S.3       1 <0>         0.0819
     12 C9         -5.2034   -3.0908   -1.0536 C.3       1 <0>        -0.1446
     13 C10        -6.1386   -3.6595    0.0155 C.3       1 <0>        -0.0993
     14 C11        -7.3215   -4.3561   -0.6600 C.3       1 <0>        -0.0210
     15 C12        -8.2426   -4.9162    0.3930 C.2       1 <0>        -0.0131
     16 C13        -9.5614   -4.6673    0.5044 C.2       1 <0>        -0.0445
     17 N3        -10.0073   -5.3726    1.5895 N.pl3     1 <0>        -0.5673
     18 C14        -8.9447   -6.0283    2.1038 C.2       1 <0>         0.1943
     19 N4         -7.8938   -5.7546    1.3802 N.2       1 <0>        -0.4919
     20 H1        -10.9167   -5.3968    1.9261 H         1 <0>         0.4254
     21 Cl1         3.8696    2.2984   -0.0231 Cl        1 <0>        -0.0434
     22 H2         -0.9592    1.9053    0.0259 H         1 <0>         0.1391
     23 H3          1.1558    3.1656    0.0076 H         1 <0>         0.1449
     24 H4          3.3383   -0.5007   -0.0327 H         1 <0>         0.1450
     25 H5          1.2222   -1.7594   -0.0193 H         1 <0>         0.1394
     26 H6         -1.1447   -1.7283    0.5180 H         1 <0>         0.1222
     27 H7         -2.0551   -0.1989    0.5352 H         1 <0>         0.1217
     28 H8         -2.7028   -1.5732   -3.6337 H         1 <0>         0.4278
     29 H9         -4.0583   -2.3865   -3.0646 H         1 <0>         0.4373
     30 H10        -5.7469   -2.3716   -1.6664 H         1 <0>         0.1138
     31 H11        -4.8365   -3.9011   -1.6837 H         1 <0>         0.1150
     32 H12        -5.5951   -4.3787    0.6283 H         1 <0>         0.0936
     33 H13        -6.5055   -2.8492    0.6455 H         1 <0>         0.0831
     34 H14        -7.8650   -3.6369   -1.2728 H         1 <0>         0.0811
     35 H15        -6.9546   -5.1663   -1.2900 H         1 <0>         0.0813
     36 H16       -10.1534   -4.0330   -0.1387 H         1 <0>         0.1771
     37 H17        -8.9625   -6.6754    2.9684 H         1 <0>         0.2110
     38 H18        -1.1917   -0.6909   -2.1085 H         1 <0>         0.4308
@<TRIPOS>BOND
     1    1    6 ar
     2    1    2 ar
     3    1   22 1
     4    2    3 ar
     5    2   23 1
     6    3    4 ar
     7    3   21 1
     8    4    5 ar
     9    4   24 1
    10    5    6 ar
    11    5   25 1
    12    6    7 1
    13    7    8 1
    14    7   26 1
    15    7   27 1
    16    8    9 2
    17    8   38 1
    18    9   10 1
    19    9   11 1
    20   10   28 1
    21   10   29 1
    22   11   12 1
    23   12   13 1
    24   12   30 1
    25   12   31 1
    26   13   14 1
    27   13   32 1
    28   13   33 1
    29   14   34 1
    30   14   35 1
    31   14   15 1
    32   15   19 1
    33   15   16 2
    34   16   36 1
    35   16   17 1
    36   17   18 1
    37   17   20 1
    38   18   37 1
    39   18   19 2
@<TRIPOS>MOLECULE
ZINC14951170
   38    39     0     0     0
SMALL
USER_CHARGES

@<TRIPOS>ATOM
      1 C1         -0.0167    1.3782    0.0096 C.ar      1 <0>        -0.0764
      2 C2          1.1706    2.0858    0.0021 C.ar      1 <0>        -0.1092
      3 C3          2.3780    1.4104   -0.0130 C.ar      1 <0>        -0.0085
      4 C4          2.3961    0.0270   -0.0206 C.ar      1 <0>        -0.1094
      5 C5          1.2082   -0.6795   -0.0130 C.ar      1 <0>        -0.0767
      6 C6          0.0021   -0.0041    0.0020 C.ar      1 <0>        -0.1442
      7 C7         -1.2928   -0.7750    0.0107 C.3       1 <0>         0.1192
      8 N1         -1.7261   -1.0173   -1.3676 N.pl3     1 <0>        -0.5973
      9 C8         -2.8302   -1.6720   -1.5986 C.cat     1 <0>         0.4675
     10 N2         -3.5880   -2.1349   -0.5479 N.pl3     1 <0>        -0.7982
     11 S1         -3.3513   -1.9636   -3.2563 S.3       1 <0>         0.0686
     12 C9         -4.9012   -2.8882   -3.0730 C.3       1 <0>        -0.1398
     13 C10        -5.4693   -3.2108   -4.4565 C.3       1 <0>        -0.1052
     14 C11        -6.7765   -3.9907   -4.3018 C.3       1 <0>        -0.0310
     15 C12        -7.3361   -4.3084   -5.6645 C.2       1 <0>        -0.0447
     16 C13        -8.1073   -3.5059   -6.4227 C.2       1 <0>        -0.0093
     17 N3         -8.3925   -4.1579   -7.5597 N.2       1 <0>        -0.4916
     18 C14        -7.8274   -5.3339   -7.5348 C.2       1 <0>         0.1983
     19 N4         -7.1533   -5.4659   -6.3720 N.pl3     1 <0>        -0.5676
     20 Cl1         3.8696    2.2984   -0.0231 Cl        1 <0>        -0.0414
     21 H1         -0.9592    1.9053    0.0259 H         1 <0>         0.1387
     22 H2          1.1558    3.1656    0.0076 H         1 <0>         0.1458
     23 H3          3.3383   -0.5007   -0.0327 H         1 <0>         0.1456
     24 H4          1.2222   -1.7594   -0.0193 H         1 <0>         0.1383
     25 H5         -1.1447   -1.7283    0.5180 H         1 <0>         0.1145
     26 H6         -2.0551   -0.1989    0.5352 H         1 <0>         0.1149
     27 H7         -3.3011   -1.9744    0.3647 H         1 <0>         0.4281
     28 H8         -4.4092   -2.6218   -0.7196 H         1 <0>         0.4372
     29 H9         -4.7093   -3.8158   -2.5337 H         1 <0>         0.1148
     30 H10        -5.6197   -2.2864   -2.5165 H         1 <0>         0.1179
     31 H11        -5.6612   -2.2832   -4.9958 H         1 <0>         0.0930
     32 H12        -4.7508   -3.8126   -5.0130 H         1 <0>         0.0843
     33 H13        -6.5846   -4.9183   -3.7625 H         1 <0>         0.0781
     34 H14        -7.4950   -3.3888   -3.7453 H         1 <0>         0.0962
     35 H15        -8.4381   -2.5117   -6.1612 H         1 <0>         0.1699
     36 H16        -7.8857   -6.0770   -8.3164 H         1 <0>         0.2122
     37 H17        -1.1917   -0.6909   -2.1085 H         1 <0>         0.4474
     38 H18        -6.6377   -6.2375   -6.0900 H         1 <0>         0.4200
@<TRIPOS>BOND
     1    1    6 ar
     2    1    2 ar
     3    1   21 1
     4    2    3 ar
     5    2   22 1
     6    3    4 ar
     7    3   20 1
     8    4    5 ar
     9    4   23 1
    10    5    6 ar
    11    5   24 1
    12    6    7 1
    13    7    8 1
    14    7   25 1
    15    7   26 1
    16    8    9 2
    17    8   37 1
    18    9   10 1
    19    9   11 1
    20   10   27 1
    21   10   28 1
    22   11   12 1
    23   12   13 1
    24   12   29 1
    25   12   30 1
    26   13   14 1
    27   13   31 1
    28   13   32 1
    29   14   33 1
    30   14   34 1
    31   14   15 1
    32   15   19 1
    33   15   16 2
    34   16   35 1
    35   16   17 1
    36   17   18 2
    37   18   36 1
    38   18   19 1
    39   19   38 1
@<TRIPOS>MOLECULE
ZINC14951170
   38    39     0     0     0
SMALL
USER_CHARGES

@<TRIPOS>ATOM
      1 C1         -0.0167    1.3782    0.0096 C.ar      1 <0>        -0.0766
      2 C2          1.1706    2.0858    0.0021 C.ar      1 <0>        -0.1093
      3 C3          2.3780    1.4104   -0.0130 C.ar      1 <0>        -0.0090
      4 C4          2.3961    0.0270   -0.0206 C.ar      1 <0>        -0.1095
      5 C5          1.2082   -0.6795   -0.0130 C.ar      1 <0>        -0.0768
      6 C6          0.0021   -0.0041    0.0020 C.ar      1 <0>        -0.1431
      7 C7         -1.2928   -0.7750    0.0107 C.3       1 <0>         0.1194
      8 N1         -1.7261   -1.0173   -1.3676 N.pl3     1 <0>        -0.5991
      9 C8         -2.8302   -1.6720   -1.5986 C.cat     1 <0>         0.4669
     10 N2         -3.5880   -2.1349   -0.5479 N.pl3     1 <0>        -0.7986
     11 S1         -3.3513   -1.9636   -3.2563 S.3       1 <0>         0.0683
     12 C9         -4.9012   -2.8882   -3.0730 C.3       1 <0>        -0.1379
     13 C10        -5.4693   -3.2108   -4.4565 C.3       1 <0>        -0.1002
     14 C11        -6.7765   -3.9907   -4.3018 C.3       1 <0>        -0.0206
     15 C12        -7.3361   -4.3084   -5.6645 C.2       1 <0>        -0.0132
     16 C13        -7.6628   -5.5329   -6.1200 C.2       1 <0>        -0.0445
     17 N3         -8.1301   -5.3691   -7.3961 N.pl3     1 <0>        -0.5673
     18 C14        -8.0727   -4.0493   -7.6762 C.2       1 <0>         0.1943
     19 N4         -7.6015   -3.4206   -6.6342 N.2       1 <0>        -0.4919
     20 H1         -8.4439   -6.0701   -7.9886 H         1 <0>         0.4255
     21 Cl1         3.8696    2.2984   -0.0231 Cl        1 <0>        -0.0423
     22 H2         -0.9592    1.9053    0.0259 H         1 <0>         0.1387
     23 H3          1.1558    3.1656    0.0076 H         1 <0>         0.1455
     24 H4          3.3383   -0.5007   -0.0327 H         1 <0>         0.1453
     25 H5          1.2222   -1.7594   -0.0193 H         1 <0>         0.1384
     26 H6         -1.1447   -1.7283    0.5180 H         1 <0>         0.1140
     27 H7         -2.0551   -0.1989    0.5352 H         1 <0>         0.1141
     28 H8         -3.3011   -1.9744    0.3647 H         1 <0>         0.4272
     29 H9         -4.4092   -2.6218   -0.7196 H         1 <0>         0.4375
     30 H10        -4.7093   -3.8158   -2.5337 H         1 <0>         0.1142
     31 H11        -5.6197   -2.2864   -2.5165 H         1 <0>         0.1154
     32 H12        -5.6612   -2.2832   -4.9958 H         1 <0>         0.0938
     33 H13        -4.7508   -3.8126   -5.0130 H         1 <0>         0.0833
     34 H14        -6.5846   -4.9183   -3.7625 H         1 <0>         0.0812
     35 H15        -7.4950   -3.3888   -3.7453 H         1 <0>         0.0815
     36 H16        -7.5730   -6.4650   -5.5820 H         1 <0>         0.1771
     37 H17        -8.3711   -3.5898   -8.6069 H         1 <0>         0.2111
     38 H18        -1.1917   -0.6909   -2.1085 H         1 <0>         0.4471
@<TRIPOS>BOND
     1    1    6 ar
     2    1    2 ar
     3    1   22 1
     4    2    3 ar
     5    2   23 1
     6    3    4 ar
     7    3   21 1
     8    4    5 ar
     9    4   24 1
    10    5    6 ar
    11    5   25 1
    12    6    7 1
    13    7    8 1
    14    7   26 1
    15    7   27 1
    16    8    9 2
    17    8   38 1
    18    9   10 1
    19    9   11 1
    20   10   28 1
    21   10   29 1
    22   11   12 1
    23   12   13 1
    24   12   30 1
    25   12   31 1
    26   13   14 1
    27   13   32 1
    28   13   33 1
    29   14   34 1
    30   14   35 1
    31   14   15 1
    32   15   19 1
    33   15   16 2
    34   16   36 1
    35   16   17 1
    36   17   18 1
    37   17   20 1
    38   18   37 1
    39   18   19 2
@<TRIPOS>MOLECULE
ZINC14951170
   38    39     0     0     0
SMALL
USER_CHARGES

@<TRIPOS>ATOM
      1 C1         -0.0167    1.3782    0.0096 C.ar      1 <0>        -0.0769
      2 C2          1.1706    2.0858    0.0021 C.ar      1 <0>        -0.1102
      3 C3          2.3780    1.4104   -0.0130 C.ar      1 <0>        -0.0092
      4 C4          2.3961    0.0270   -0.0206 C.ar      1 <0>        -0.1100
      5 C5          1.2082   -0.6795   -0.0130 C.ar      1 <0>        -0.0764
      6 C6          0.0021   -0.0041    0.0020 C.ar      1 <0>        -0.1435
      7 C7         -1.2928   -0.7750    0.0107 C.3       1 <0>         0.1276
      8 N1         -1.7261   -1.0173   -1.3676 N.pl3     1 <0>        -0.5983
      9 C8         -2.8302   -1.6720   -1.5986 C.cat     1 <0>         0.4603
     10 N2         -3.2371   -1.8996   -2.8928 N.pl3     1 <0>        -0.8016
     11 S1         -3.8008   -2.2649   -0.2528 S.3       1 <0>         0.0825
     12 C9         -5.2034   -3.0908   -1.0536 C.3       1 <0>        -0.1465
     13 C10        -6.1386   -3.6595    0.0155 C.3       1 <0>        -0.1043
     14 C11        -7.3215   -4.3561   -0.6600 C.3       1 <0>        -0.0313
     15 C12        -8.2426   -4.9162    0.3930 C.2       1 <0>        -0.0446
     16 C13        -8.1222   -6.1045    1.0152 C.2       1 <0>        -0.0094
     17 N3         -9.1407   -6.2256    1.8794 N.2       1 <0>        -0.4917
     18 C14        -9.8878   -5.1574    1.8165 C.2       1 <0>         0.1982
     19 N4         -9.3592   -4.3124    0.9053 N.pl3     1 <0>        -0.5675
     20 Cl1         3.8696    2.2984   -0.0231 Cl        1 <0>        -0.0424
     21 H1         -0.9592    1.9053    0.0259 H         1 <0>         0.1390
     22 H2          1.1558    3.1656    0.0076 H         1 <0>         0.1451
     23 H3          3.3383   -0.5007   -0.0327 H         1 <0>         0.1454
     24 H4          1.2222   -1.7594   -0.0193 H         1 <0>         0.1394
     25 H5         -1.1447   -1.7283    0.5180 H         1 <0>         0.1225
     26 H6         -2.0551   -0.1989    0.5352 H         1 <0>         0.1219
     27 H7         -2.7028   -1.5732   -3.6337 H         1 <0>         0.4287
     28 H8         -4.0583   -2.3865   -3.0646 H         1 <0>         0.4370
     29 H9         -5.7469   -2.3716   -1.6664 H         1 <0>         0.1144
     30 H10        -4.8365   -3.9011   -1.6837 H         1 <0>         0.1175
     31 H11        -5.5951   -4.3787    0.6283 H         1 <0>         0.0928
     32 H12        -6.5055   -2.8492    0.6455 H         1 <0>         0.0841
     33 H13        -7.8650   -3.6369   -1.2728 H         1 <0>         0.0780
     34 H14        -6.9546   -5.1663   -1.2900 H         1 <0>         0.0961
     35 H15        -7.3421   -6.8324    0.8476 H         1 <0>         0.1699
     36 H16       -10.7789   -4.9773    2.3995 H         1 <0>         0.2121
     37 H17        -1.1917   -0.6909   -2.1085 H         1 <0>         0.4316
     38 H18        -9.7070   -3.4413    0.6583 H         1 <0>         0.4200
@<TRIPOS>BOND
     1    1    6 ar
     2    1    2 ar
     3    1   21 1
     4    2    3 ar
     5    2   22 1
     6    3    4 ar
     7    3   20 1
     8    4    5 ar
     9    4   23 1
    10    5    6 ar
    11    5   24 1
    12    6    7 1
    13    7    8 1
    14    7   25 1
    15    7   26 1
    16    8    9 2
    17    8   37 1
    18    9   10 1
    19    9   11 1
    20   10   27 1
    21   10   28 1
    22   11   12 1
    23   12   13 1
    24   12   29 1
    25   12   30 1
    26   13   14 1
    27   13   31 1
    28   13   32 1
    29   14   33 1
    30   14   34 1
    31   14   15 1
    32   15   19 1
    33   15   16 2
    34   16   35 1
    35   16   17 1
    36   17   18 2
    37   18   36 1
    38   18   19 1
    39   19   38 1
@<TRIPOS>MOLECULE
ZINC14951170
   38    39     0     0     0
SMALL
USER_CHARGES

@<TRIPOS>ATOM
      1 C1         -0.0167    1.3782    0.0096 C.ar      1 <0>        -0.0772
      2 C2          1.1706    2.0858    0.0021 C.ar      1 <0>        -0.1096
      3 C3          2.3780    1.4104   -0.0130 C.ar      1 <0>        -0.0099
      4 C4          2.3961    0.0270   -0.0206 C.ar      1 <0>        -0.1098
      5 C5          1.2082   -0.6795   -0.0130 C.ar      1 <0>        -0.0774
      6 C6          0.0021   -0.0041    0.0020 C.ar      1 <0>        -0.1391
      7 C7         -1.2928   -0.7750    0.0107 C.3       1 <0>         0.1296
      8 N1         -1.7261   -1.0173   -1.3676 N.pl3     1 <0>        -0.6417
      9 C8         -2.8907   -1.7079   -1.6112 C.cat     1 <0>         0.4690
     10 N2         -3.6091   -2.1467   -0.6150 N.pl3     1 <0>        -0.7529
     11 S1         -3.4118   -1.9994   -3.2689 S.3       1 <0>         0.0759
     12 C9         -4.9616   -2.9240   -3.0856 C.3       1 <0>        -0.1458
     13 C10        -5.5297   -3.2466   -4.4691 C.3       1 <0>        -0.1042
     14 C11        -6.8370   -4.0265   -4.3145 C.3       1 <0>        -0.0308
     15 C12        -7.3965   -4.3443   -5.6772 C.2       1 <0>        -0.0452
     16 C13        -8.1677   -3.5418   -6.4354 C.2       1 <0>        -0.0089
     17 N3         -8.4529   -4.1938   -7.5723 N.2       1 <0>        -0.4916
     18 C14        -7.8878   -5.3698   -7.5474 C.2       1 <0>         0.1986
     19 N4         -7.2137   -5.5017   -6.3847 N.pl3     1 <0>        -0.5675
     20 Cl1         3.8696    2.2984   -0.0231 Cl        1 <0>        -0.0429
     21 H1         -0.9592    1.9053    0.0259 H         1 <0>         0.1380
     22 H2          1.1558    3.1656    0.0076 H         1 <0>         0.1450
     23 H3          3.3383   -0.5007   -0.0327 H         1 <0>         0.1448
     24 H4          1.2222   -1.7594   -0.0193 H         1 <0>         0.1376
     25 H5         -1.1447   -1.7283    0.5180 H         1 <0>         0.1058
     26 H6         -2.0551   -0.1989    0.5352 H         1 <0>         0.1061
     27 H7         -1.1917   -0.6909   -2.1085 H         1 <0>         0.4440
     28 H8         -4.4303   -2.6336   -0.7868 H         1 <0>         0.4411
     29 H9         -4.7697   -3.8516   -2.5463 H         1 <0>         0.1147
     30 H10        -5.6801   -2.3222   -2.5291 H         1 <0>         0.1178
     31 H11        -5.7217   -2.3190   -5.0084 H         1 <0>         0.0937
     32 H12        -4.8113   -3.8485   -5.0256 H         1 <0>         0.0850
     33 H13        -6.6450   -4.9541   -3.7752 H         1 <0>         0.0781
     34 H14        -7.5554   -3.4247   -3.7580 H         1 <0>         0.0962
     35 H15        -8.4985   -2.5475   -6.1738 H         1 <0>         0.1700
     36 H16        -7.9461   -6.1128   -8.3290 H         1 <0>         0.2123
     37 H17        -3.3223   -1.9862    0.2976 H         1 <0>         0.4312
     38 H18        -6.6981   -6.2734   -6.1026 H         1 <0>         0.4201
@<TRIPOS>BOND
     1    1    6 ar
     2    1    2 ar
     3    1   21 1
     4    2    3 ar
     5    2   22 1
     6    3    4 ar
     7    3   20 1
     8    4    5 ar
     9    4   23 1
    10    5    6 ar
    11    5   24 1
    12    6    7 1
    13    7    8 1
    14    7   25 1
    15    7   26 1
    16    8    9 1
    17    8   27 1
    18    9   10 2
    19    9   11 1
    20   10   28 1
    21   10   37 1
    22   11   12 1
    23   12   13 1
    24   12   29 1
    25   12   30 1
    26   13   14 1
    27   13   31 1
    28   13   32 1
    29   14   15 1
    30   14   33 1
    31   14   34 1
    32   15   19 1
    33   15   16 2
    34   16   17 1
    35   16   35 1
    36   17   18 2
    37   18   19 1
    38   18   36 1
    39   19   38 1
@<TRIPOS>MOLECULE
ZINC05425255
   23    23     0     0     0
SMALL
USER_CHARGES

@<TRIPOS>ATOM
      1 C1         -0.0165    1.3646    0.0095 C.2       1 <0>         0.0534
      2 C2          1.2671    1.7717   -0.0005 C.2       1 <0>         0.0154
      3 N1          2.0482    0.6814   -0.0138 N.pl3     1 <0>        -0.4756
      4 H1         -0.7708   -0.5902    0.0060 H         1 <0>         0.4736
      5 C3          1.2973   -0.3859   -0.0124 C.cat     1 <0>         0.3267
      6 N2          0.0021   -0.0041    0.0020 N.pl3     1 <0>        -0.5083
      7 C4          1.7427    3.2017    0.0026 C.3       1 <0>        -0.0449
      8 C5          1.7980    3.7176    1.4420 C.3       1 <0>        -0.1498
      9 S1          2.3704    5.4389    1.4457 S.3       1 <0>         0.0829
     10 C6          2.3798    5.8813    3.1513 C.cat     1 <0>         0.4865
     11 N3          3.2533    6.7821    3.6014 N.pl3     1 <0>        -0.7266
     12 N4          1.5135    5.3152    3.9914 N.pl3     1 <0>        -0.7640
     13 H2         -0.8922    1.9965    0.0253 H         1 <0>         0.2304
     14 H3          1.6529   -1.4057   -0.0218 H         1 <0>         0.2722
     15 H4          2.7369    3.2550   -0.4409 H         1 <0>         0.1188
     16 H5          1.0529    3.8153   -0.5770 H         1 <0>         0.1334
     17 H6          0.8038    3.6644    1.8855 H         1 <0>         0.1179
     18 H7          2.4878    3.1041    2.0215 H         1 <0>         0.1201
     19 H8          3.8837    7.1940    2.9900 H         1 <0>         0.4543
     20 H9          0.8779    4.6597    3.6639 H         1 <0>         0.4407
     21 H10         1.5187    5.5587    4.9303 H         1 <0>         0.4366
     22 H11         3.2584    7.0256    4.5403 H         1 <0>         0.4388
     23 H12         3.0181    0.6856   -0.0234 H         1 <0>         0.4676
@<TRIPOS>BOND
     1    1    6 1
     2    1    2 2
     3    1   13 1
     4    2    3 1
     5    2    7 1
     6    3    5 2
     7    3   23 1
     8    4    6 1
     9    5   14 1
    10    5    6 1
    11    7    8 1
    12    7   15 1
    13    7   16 1
    14    8    9 1
    15    8   17 1
    16    8   18 1
    17    9   10 1
    18   10   11 2
    19   10   12 1
    20   11   19 1
    21   11   22 1
    22   12   20 1
    23   12   21 1
@<TRIPOS>MOLECULE
ZINC05425255
   22    22     0     0     0
SMALL
USER_CHARGES

@<TRIPOS>ATOM
      1 C1         -0.0165    1.3646    0.0095 C.2       1 <0>        -0.0313
      2 C2          1.2671    1.7717   -0.0005 C.2       1 <0>        -0.0163
      3 N1          2.0482    0.6814   -0.0138 N.2       1 <0>        -0.4937
      4 H1         -0.7708   -0.5902    0.0060 H         1 <0>         0.4283
      5 C3          1.2973   -0.3859   -0.0124 C.2       1 <0>         0.1996
      6 N2          0.0021   -0.0041    0.0020 N.pl3     1 <0>        -0.5648
      7 C4          1.7427    3.2017    0.0026 C.3       1 <0>        -0.0137
      8 C5          2.7000    3.4183    1.1763 C.3       1 <0>        -0.1205
      9 S1          3.2724    5.1396    1.1801 S.3       1 <0>         0.0524
     10 C6          4.3507    5.2272    2.5708 C.cat     1 <0>         0.4880
     11 N3          5.3767    6.0782    2.5662 N.pl3     1 <0>        -0.7379
     12 N4          4.1406    4.4424    3.6276 N.pl3     1 <0>        -0.7646
     13 H2         -0.8922    1.9965    0.0253 H         1 <0>         0.1812
     14 H3          1.6529   -1.4057   -0.0218 H         1 <0>         0.2134
     15 H4          2.2605    3.4145   -0.9326 H         1 <0>         0.0965
     16 H5          0.8868    3.8690    0.1039 H         1 <0>         0.0958
     17 H6          2.1821    3.2055    2.1116 H         1 <0>         0.1056
     18 H7          3.5559    2.7510    1.0750 H         1 <0>         0.1241
     19 H8          5.5296    6.6493    1.7972 H         1 <0>         0.4511
     20 H9          3.3940    3.8231    3.6310 H         1 <0>         0.4433
     21 H10         4.7342    4.4906    4.3932 H         1 <0>         0.4310
     22 H11         5.9703    6.1264    3.3318 H         1 <0>         0.4326
@<TRIPOS>BOND
     1    1    6 1
     2    1    2 2
     3    1   13 1
     4    2    3 1
     5    2    7 1
     6    3    5 2
     7    4    6 1
     8    5   14 1
     9    5    6 1
    10    7    8 1
    11    7   15 1
    12    7   16 1
    13    8    9 1
    14    8   17 1
    15    8   18 1
    16    9   10 1
    17   10   11 2
    18   10   12 1
    19   11   19 1
    20   11   22 1
    21   12   20 1
    22   12   21 1
@<TRIPOS>MOLECULE
ZINC13108134
   45    47     0     0     0
SMALL
USER_CHARGES

@<TRIPOS>ATOM
      1 C1         -0.0199    1.3395    0.0024 C.2       1 <0>         0.0064
      2 C2          1.2554    1.7720   -0.0081 C.2       1 <0>         0.0672
      3 N1          2.0511    0.6584   -0.0267 N.pl3     1 <0>        -0.5106
      4 H1          3.0210    0.6441   -0.0376 H         1 <0>         0.4636
      5 C3          1.2338   -0.4166   -0.0268 C.cat     1 <0>         0.3070
      6 N2         -0.0033   -0.0016   -0.0094 N.pl3     1 <0>        -0.4716
      7 C4          1.7176    3.2064   -0.0013 C.3       1 <0>        -0.0300
      8 C5          1.9762    3.6655   -1.4382 C.3       1 <0>        -0.1277
      9 C6          2.4124    5.1340   -1.4300 C.3       1 <0>         0.1020
     10 N3          3.5670    5.2793   -0.5331 N.pl3     1 <0>        -0.5817
     11 C7          3.4561    4.7869    0.8468 C.3       1 <0>         0.0974
     12 C8          3.0081    3.3223    0.8131 C.3       1 <0>        -0.1362
     13 C9          4.7065    5.8530   -0.9679 C.2       1 <0>         0.5634
     14 S1          4.8665    6.2992   -2.6130 S.2       1 <0>        -0.6245
     15 N4          5.7199    6.0755   -0.1077 N.pl3     1 <0>        -0.6784
     16 C10         6.9143    6.7970   -0.5537 C.3       1 <0>         0.1390
     17 C11         6.6752    8.3033   -0.4326 C.3       1 <0>        -0.1253
     18 C12         7.9226    9.0568   -0.8984 C.3       1 <0>        -0.1161
     19 C13         9.1147    8.6579   -0.0263 C.3       1 <0>        -0.1249
     20 C14         9.3539    7.1516   -0.1474 C.3       1 <0>        -0.1154
     21 C15         8.1064    6.3981    0.3184 C.3       1 <0>        -0.1258
     22 H2         -0.9014    1.9632    0.0217 H         1 <0>         0.2255
     23 H3          1.5514   -1.4488   -0.0393 H         1 <0>         0.2669
     24 H4          0.9475    3.8339    0.4472 H         1 <0>         0.1243
     25 H5          2.7637    3.0545   -1.8792 H         1 <0>         0.0764
     26 H6          1.0627    3.5607   -2.0236 H         1 <0>         0.0957
     27 H7          2.6928    5.4375   -2.4387 H         1 <0>         0.1389
     28 H8          1.5921    5.7569   -1.0735 H         1 <0>         0.0852
     29 H9          4.4251    4.8614    1.3403 H         1 <0>         0.0880
     30 H10         2.7209    5.3815    1.3889 H         1 <0>         0.0928
     31 H11         2.8291    2.9732    1.8300 H         1 <0>         0.0932
     32 H12         3.7859    2.7145    0.3508 H         1 <0>         0.0723
     33 H13         5.6583    5.7578    0.8068 H         1 <0>         0.3933
     34 H14         7.1241    6.5448   -1.5932 H         1 <0>         0.1206
     35 H15         5.8259    8.5875   -1.0539 H         1 <0>         0.0770
     36 H16         6.4654    8.5554    0.6069 H         1 <0>         0.0591
     37 H17         8.1324    8.8047   -1.9379 H         1 <0>         0.0705
     38 H18         7.7522   10.1300   -0.8121 H         1 <0>         0.0692
     39 H19        10.0034    9.1947   -0.3581 H         1 <0>         0.0689
     40 H20         8.9050    8.9101    1.0132 H         1 <0>         0.0622
     41 H21         9.5637    6.8995   -1.1869 H         1 <0>         0.0699
     42 H22        10.2032    6.8674    0.4739 H         1 <0>         0.0708
     43 H23         7.8967    6.6502    1.3579 H         1 <0>         0.0660
     44 H24         8.2768    5.3249    0.2321 H         1 <0>         0.0672
     45 H25        -0.7872   -0.5729   -0.0051 H         1 <0>         0.4684
@<TRIPOS>BOND
     1    1    6 1
     2    1    2 2
     3    1   22 1
     4    2    3 1
     5    2    7 1
     6    3    4 1
     7    3    5 1
     8    5    6 2
     9    5   23 1
    10    6   45 1
    11    7   12 1
    12    7    8 1
    13    7   24 1
    14    8    9 1
    15    8   25 1
    16    8   26 1
    17    9   10 1
    18    9   27 1
    19    9   28 1
    20   10   11 1
    21   10   13 1
    22   11   12 1
    23   11   29 1
    24   11   30 1
    25   12   31 1
    26   12   32 1
    27   13   14 2
    28   13   15 1
    29   15   16 1
    30   15   33 1
    31   16   21 1
    32   16   17 1
    33   16   34 1
    34   17   18 1
    35   17   35 1
    36   17   36 1
    37   18   19 1
    38   18   37 1
    39   18   38 1
    40   19   20 1
    41   19   39 1
    42   19   40 1
    43   20   21 1
    44   20   41 1
    45   20   42 1
    46   21   43 1
    47   21   44 1
@<TRIPOS>MOLECULE
ZINC13108134
   45    47     0     0     0
SMALL
USER_CHARGES

@<TRIPOS>ATOM
      1 C1         -0.0111    1.3583    0.0120 C.2       1 <0>         0.0383
      2 C2          1.2720    1.7671    0.0013 C.2       1 <0>         0.0369
      3 N1          2.0544    0.6778   -0.0124 N.pl3     1 <0>        -0.4750
      4 C3          1.3050   -0.3905   -0.0106 C.cat     1 <0>         0.3075
      5 N2          0.0092   -0.0103    0.0045 N.pl3     1 <0>        -0.5077
      6 H1         -0.7629   -0.5975    0.0094 H         1 <0>         0.4689
      7 C4          1.7456    3.1978    0.0042 C.3       1 <0>        -0.0302
      8 C5          2.0381    3.6351    1.4413 C.3       1 <0>        -0.1285
      9 C6          2.4861    5.1000    1.4439 C.3       1 <0>         0.1035
     10 N3          3.6227    5.2486    0.5247 N.pl3     1 <0>        -0.5814
     11 C7          3.4787    4.7761   -0.8590 C.3       1 <0>         0.0976
     12 C8          3.0196    3.3147   -0.8357 C.3       1 <0>        -0.1373
     13 C9          4.7754    5.8081    0.9429 C.2       1 <0>         0.5626
     14 S1          4.8832    6.4711    2.5176 S.2       1 <0>        -0.6224
     15 N4          5.8431    5.8456    0.1213 N.pl3     1 <0>        -0.6791
     16 C10         7.1274    6.3518    0.6118 C.3       1 <0>         0.1383
     17 C11         7.8881    5.2222    1.3092 C.3       1 <0>        -0.1224
     18 C12         9.2293    5.7510    1.8215 C.3       1 <0>        -0.1165
     19 C13        10.0558    6.2713    0.6438 C.3       1 <0>        -0.1242
     20 C14         9.2951    7.4009   -0.0536 C.3       1 <0>        -0.1161
     21 C15         7.9539    6.8722   -0.5659 C.3       1 <0>        -0.1265
     22 H2         -0.8877    1.9890    0.0282 H         1 <0>         0.2279
     23 H3          1.6618   -1.4098   -0.0202 H         1 <0>         0.2669
     24 H4          0.9714    3.8375   -0.4194 H         1 <0>         0.1239
     25 H5          1.1364    3.5294    2.0444 H         1 <0>         0.0962
     26 H6          2.8297    3.0118    1.8573 H         1 <0>         0.0744
     27 H7          1.6635    5.7343    1.1133 H         1 <0>         0.0859
     28 H8          2.7901    5.3874    2.4504 H         1 <0>         0.1371
     29 H9          2.7371    5.3839   -1.3773 H         1 <0>         0.0936
     30 H10         4.4376    4.8497   -1.3719 H         1 <0>         0.0879
     31 H11         3.8019    2.6945   -0.3983 H         1 <0>         0.0712
     32 H12         2.8164    2.9810   -1.8533 H         1 <0>         0.0934
     33 H13         5.7612    5.5374   -0.7948 H         1 <0>         0.3930
     34 H14         6.9521    7.1625    1.3191 H         1 <0>         0.1214
     35 H15         7.2992    4.8515    2.1482 H         1 <0>         0.0749
     36 H16         8.0633    4.4115    0.6020 H         1 <0>         0.0564
     37 H17         9.0540    6.5617    2.5287 H         1 <0>         0.0714
     38 H18         9.7712    4.9462    2.3183 H         1 <0>         0.0679
     39 H19        11.0113    6.6480    1.0087 H         1 <0>         0.0690
     40 H20        10.2310    5.4606   -0.0635 H         1 <0>         0.0612
     41 H21         9.1199    8.2116    0.6536 H         1 <0>         0.0709
     42 H22         9.8839    7.7716   -0.8926 H         1 <0>         0.0714
     43 H23         8.1291    6.0615   -1.2731 H         1 <0>         0.0649
     44 H24         7.4119    7.6769   -1.0627 H         1 <0>         0.0700
     45 H25         3.0244    0.6833   -0.0225 H         1 <0>         0.4628
@<TRIPOS>BOND
     1    1    5 1
     2    1    2 2
     3    1   22 1
     4    2    3 1
     5    2    7 1
     6    3    4 2
     7    3   45 1
     8    4    5 1
     9    4   23 1
    10    5    6 1
    11    7   12 1
    12    7    8 1
    13    7   24 1
    14    8    9 1
    15    8   25 1
    16    8   26 1
    17    9   10 1
    18    9   27 1
    19    9   28 1
    20   10   11 1
    21   10   13 1
    22   11   12 1
    23   11   29 1
    24   11   30 1
    25   12   31 1
    26   12   32 1
    27   13   14 2
    28   13   15 1
    29   15   16 1
    30   15   33 1
    31   16   21 1
    32   16   17 1
    33   16   34 1
    34   17   18 1
    35   17   35 1
    36   17   36 1
    37   18   19 1
    38   18   37 1
    39   18   38 1
    40   19   20 1
    41   19   39 1
    42   19   40 1
    43   20   21 1
    44   20   41 1
    45   20   42 1
    46   21   43 1
    47   21   44 1
@<TRIPOS>MOLECULE
ZINC13108134
   44    46     0     0     0
SMALL
USER_CHARGES

@<TRIPOS>ATOM
      1 C1         -0.0228    1.3648    0.0142 C.2       1 <0>        -0.0496
      2 C2          1.2612    1.7707    0.0029 C.2       1 <0>         0.0065
      3 N1          2.0412    0.6796   -0.0102 N.2       1 <0>        -0.4899
      4 C3          1.2893   -0.3870   -0.0075 C.2       1 <0>         0.1866
      5 N2         -0.0055   -0.0039    0.0076 N.pl3     1 <0>        -0.5696
      6 H1         -0.7790   -0.5893    0.0131 H         1 <0>         0.4218
      7 C4          1.7382    3.2002    0.0047 C.3       1 <0>        -0.0028
      8 C5          0.7707    4.0615   -0.8104 C.3       1 <0>        -0.1243
      9 C6          1.2771    5.5071   -0.8353 C.3       1 <0>         0.1037
     10 N3          1.4729    5.9634    0.5475 N.pl3     1 <0>        -0.5686
     11 C7          2.3131    5.1586    1.4448 C.3       1 <0>         0.0956
     12 C8          1.7950    3.7169    1.4441 C.3       1 <0>        -0.1204
     13 C9          0.8931    7.0990    0.9844 C.2       1 <0>         0.5693
     14 S1          0.0257    8.0922   -0.1074 S.2       1 <0>        -0.6496
     15 N4          0.9963    7.4526    2.2809 N.pl3     1 <0>        -0.6848
     16 C10         0.2746    8.6259    2.7797 C.3       1 <0>         0.1416
     17 C11        -1.1535    8.2249    3.1547 C.3       1 <0>        -0.1252
     18 C12        -1.9071    9.4502    3.6757 C.3       1 <0>        -0.1150
     19 C13        -1.1916   10.0022    4.9103 C.3       1 <0>        -0.1234
     20 C14         0.2365   10.4032    4.5354 C.3       1 <0>        -0.1144
     21 C15         0.9902    9.1778    4.0144 C.3       1 <0>        -0.1272
     22 H2         -0.8979    1.9976    0.0302 H         1 <0>         0.1742
     23 H3          1.6439   -1.4071   -0.0165 H         1 <0>         0.2086
     24 H4          2.7323    3.2519   -0.4392 H         1 <0>         0.0883
     25 H5          0.7129    3.6787   -1.8294 H         1 <0>         0.0864
     26 H6         -0.2181    4.0302   -0.3529 H         1 <0>         0.0707
     27 H7          2.2242    5.5533   -1.3729 H         1 <0>         0.0798
     28 H8          0.5427    6.1431   -1.3295 H         1 <0>         0.1295
     29 H9          3.3446    5.1764    1.0931 H         1 <0>         0.0876
     30 H10         2.2621    5.5647    2.4550 H         1 <0>         0.0788
     31 H11         0.7966    3.6889    1.8804 H         1 <0>         0.0695
     32 H12         2.4663    3.0889    2.0298 H         1 <0>         0.0845
     33 H13         1.5484    6.9303    2.8836 H         1 <0>         0.3942
     34 H14         0.2454    9.3913    2.0043 H         1 <0>         0.1192
     35 H15        -1.6632    7.8317    2.2751 H         1 <0>         0.0770
     36 H16        -1.1242    7.4595    3.9302 H         1 <0>         0.0572
     37 H17        -1.9364   10.2156    2.9002 H         1 <0>         0.0698
     38 H18        -2.9246    9.1645    3.9428 H         1 <0>         0.0659
     39 H19        -1.7285   10.8751    5.2815 H         1 <0>         0.0658
     40 H20        -1.1624    9.2368    5.6858 H         1 <0>         0.0609
     41 H21         0.2072   11.1686    3.7599 H         1 <0>         0.0693
     42 H22         0.7463   10.7964    5.4149 H         1 <0>         0.0685
     43 H23         1.0194    8.4124    4.7898 H         1 <0>         0.0650
     44 H24         2.0076    9.4635    3.7473 H         1 <0>         0.0690
@<TRIPOS>BOND
     1    1    5 1
     2    1    2 2
     3    1   22 1
     4    2    3 1
     5    2    7 1
     6    3    4 2
     7    4    5 1
     8    4   23 1
     9    5    6 1
    10    7   12 1
    11    7    8 1
    12    7   24 1
    13    8    9 1
    14    8   25 1
    15    8   26 1
    16    9   10 1
    17    9   27 1
    18    9   28 1
    19   10   11 1
    20   10   13 1
    21   11   12 1
    22   11   29 1
    23   11   30 1
    24   12   31 1
    25   12   32 1
    26   13   14 2
    27   13   15 1
    28   15   16 1
    29   15   33 1
    30   16   21 1
    31   16   17 1
    32   16   34 1
    33   17   18 1
    34   17   35 1
    35   17   36 1
    36   18   19 1
    37   18   37 1
    38   18   38 1
    39   19   20 1
    40   19   39 1
    41   19   40 1
    42   20   21 1
    43   20   41 1
    44   20   42 1
    45   21   43 1
    46   21   44 1
@<TRIPOS>MOLECULE
ZINC13108134
   44    46     0     0     0
SMALL
USER_CHARGES

@<TRIPOS>ATOM
      1 C1         -0.0123    1.3344    0.0219 C.2       1 <0>        -0.0175
      2 C2          1.2619    1.7699    0.0072 C.2       1 <0>        -0.0222
      3 N1          2.0603    0.6581   -0.0070 N.pl3     1 <0>        -0.5669
      4 H1          3.0301    0.6461   -0.0194 H         1 <0>         0.4194
      5 C3          1.2456   -0.4188   -0.0005 C.2       1 <0>         0.1870
      6 N2          0.0075   -0.0067    0.0168 N.2       1 <0>        -0.4926
      7 C4          1.7207    3.2054    0.0062 C.3       1 <0>        -0.0100
      8 C5          1.7765    3.7238    1.4450 C.3       1 <0>        -0.1233
      9 C6          2.2762    5.1720    1.4427 C.3       1 <0>         0.1024
     10 N3          1.4225    5.9654    0.5481 N.pl3     1 <0>        -0.5710
     11 C7          1.2272    5.5055   -0.8337 C.3       1 <0>         0.0963
     12 C8          0.7393    4.0537   -0.8058 C.3       1 <0>        -0.1223
     13 C9          0.8294    7.0934    0.9867 C.2       1 <0>         0.5692
     14 S1          0.9576    7.5432    2.6335 S.2       1 <0>        -0.6448
     15 N4          0.1353    7.8672    0.1288 N.pl3     1 <0>        -0.6833
     16 C10        -0.4165    9.1473    0.5793 C.3       1 <0>         0.1411
     17 C11         0.6546   10.2336    0.4630 C.3       1 <0>        -0.1255
     18 C12         0.0782   11.5706    0.9334 C.3       1 <0>        -0.1151
     19 C13        -1.1227   11.9432    0.0618 C.3       1 <0>        -0.1235
     20 C14        -2.1939   10.8569    0.1780 C.3       1 <0>        -0.1145
     21 C15        -1.6175    9.5199   -0.2924 C.3       1 <0>        -0.1270
     22 H2         -0.8953    1.9560    0.0395 H         1 <0>         0.1658
     23 H3          1.5656   -1.4503   -0.0084 H         1 <0>         0.2090
     24 H4          2.7125    3.2693   -0.4414 H         1 <0>         0.0804
     25 H5          0.7802    3.6835    1.8852 H         1 <0>         0.0788
     26 H6          2.4579    3.1048    2.0286 H         1 <0>         0.0820
     27 H7          2.2241    5.5781    2.4528 H         1 <0>         0.1325
     28 H8          3.3062    5.2026    1.0871 H         1 <0>         0.0770
     29 H9          0.4829    6.1318   -1.3255 H         1 <0>         0.0822
     30 H10         2.1716    5.5633   -1.3749 H         1 <0>         0.0854
     31 H11         0.6824    3.6694   -1.8242 H         1 <0>         0.0876
     32 H12        -0.2473    4.0102   -0.3444 H         1 <0>         0.0791
     33 H13         0.0012    7.5765   -0.7868 H         1 <0>         0.3942
     34 H14        -0.7346    9.0604    1.6182 H         1 <0>         0.1194
     35 H15         1.5102    9.9682    1.0840 H         1 <0>         0.0770
     36 H16         0.9727   10.3205   -0.5759 H         1 <0>         0.0577
     37 H17        -0.2399   11.4837    1.9723 H         1 <0>         0.0698
     38 H18         0.8413   12.3445    0.8506 H         1 <0>         0.0664
     39 H19        -1.5333   12.8957    0.3969 H         1 <0>         0.0661
     40 H20        -0.8046   12.0301   -0.9771 H         1 <0>         0.0612
     41 H21        -2.5120   10.7700    1.2170 H         1 <0>         0.0693
     42 H22        -3.0495   11.1223   -0.4429 H         1 <0>         0.0688
     43 H23        -1.2994    9.6068   -1.3313 H         1 <0>         0.0653
     44 H24        -2.3806    8.7460   -0.2096 H         1 <0>         0.0691
@<TRIPOS>BOND
     1    1    6 1
     2    1    2 2
     3    1   22 1
     4    2    3 1
     5    2    7 1
     6    3    4 1
     7    3    5 1
     8    5    6 2
     9    5   23 1
    10    7   12 1
    11    7    8 1
    12    7   24 1
    13    8    9 1
    14    8   25 1
    15    8   26 1
    16    9   10 1
    17    9   27 1
    18    9   28 1
    19   10   11 1
    20   10   13 1
    21   11   12 1
    22   11   29 1
    23   11   30 1
    24   12   31 1
    25   12   32 1
    26   13   14 2
    27   13   15 1
    28   15   16 1
    29   15   33 1
    30   16   21 1
    31   16   17 1
    32   16   34 1
    33   17   18 1
    34   17   35 1
    35   17   36 1
    36   18   19 1
    37   18   37 1
    38   18   38 1
    39   19   20 1
    40   19   39 1
    41   19   40 1
    42   20   21 1
    43   20   41 1
    44   20   42 1
    45   21   43 1
    46   21   44 1
@<TRIPOS>MOLECULE
ZINC02559937
   21    21     0     0     0
SMALL
USER_CHARGES

@<TRIPOS>ATOM
      1 C1         -0.0178    1.4648    0.0101 C.3       1 <0>        -0.0463
      2 N1          0.0021   -0.0041    0.0020 N.4       1 <0>        -0.5100
      3 C2          0.6897   -0.4778   -1.2066 C.3       1 <0>        -0.0042
      4 C3          0.7104   -2.0077   -1.2150 C.3       1 <0>        -0.0508
      5 C4          1.4158   -2.4937   -2.4549 C.2       1 <0>        -0.0285
      6 C5          2.4655   -3.3365   -2.4892 C.2       1 <0>        -0.0274
      7 N2          2.7899   -3.5117   -3.8074 N.pl3     1 <0>        -0.5631
      8 H1          3.5062   -4.0657   -4.1552 H         1 <0>         0.4303
      9 C6          1.9265   -2.7692   -4.5333 C.2       1 <0>         0.2054
     10 N3          1.1044   -2.1671   -3.7180 N.2       1 <0>        -0.4942
     11 H2          1.0047    1.8421    0.0024 H         1 <0>         0.1224
     12 H3         -0.5450    1.8259   -0.8730 H         1 <0>         0.1238
     13 H4         -0.5280    1.8163    0.9069 H         1 <0>         0.1261
     14 H5          0.4901   -0.3383    0.8195 H         1 <0>         0.4288
     15 H6          0.1625   -0.1167   -2.0897 H         1 <0>         0.1383
     16 H7          1.7123   -0.1005   -1.2143 H         1 <0>         0.1297
     17 H8          1.2376   -2.3687   -0.3319 H         1 <0>         0.0965
     18 H9         -0.3122   -2.3849   -1.2073 H         1 <0>         0.0961
     19 H10         2.9572   -3.7874   -1.6398 H         1 <0>         0.1810
     20 H11         1.9155   -2.6901   -5.6103 H         1 <0>         0.2155
     21 H12        -0.9445   -0.3533    0.0092 H         1 <0>         0.4307
@<TRIPOS>BOND
     1    1    2 1
     2    1   11 1
     3    1   12 1
     4    1   13 1
     5    2    3 1
     6    2   14 1
     7    2   21 1
     8    3    4 1
     9    3   15 1
    10    3   16 1
    11    4    5 1
    12    4   17 1
    13    4   18 1
    14    5   10 1
    15    5    6 2
    16    6    7 1
    17    6   19 1
    18    7    8 1
    19    7    9 1
    20    9   10 2
    21    9   20 1
@<TRIPOS>MOLECULE
ZINC18217584
   18    18     0     0     0
SMALL
USER_CHARGES

@<TRIPOS>ATOM
      1 C1         -0.0165    1.3646    0.0095 C.2       1 <0>        -0.0270
      2 C2          1.2671    1.7717   -0.0005 C.2       1 <0>        -0.0303
      3 N1          2.0482    0.6814   -0.0138 N.2       1 <0>        -0.4943
      4 C3          1.2973   -0.3859   -0.0124 C.2       1 <0>         0.2060
      5 N2          0.0021   -0.0041    0.0020 N.pl3     1 <0>        -0.5630
      6 H1         -0.7708   -0.5902    0.0065 H         1 <0>         0.4305
      7 C4          1.7427    3.2017    0.0026 C.3       1 <0>        -0.0519
      8 C5          2.7000    3.4183    1.1763 C.3       1 <0>        -0.0028
      9 N3          3.1635    4.8122    1.1794 N.4       1 <0>        -0.6379
     10 H2         -0.8922    1.9965    0.0253 H         1 <0>         0.1810
     11 H3          1.6529   -1.4057   -0.0218 H         1 <0>         0.2158
     12 H4          2.2605    3.4145   -0.9326 H         1 <0>         0.0964
     13 H5          0.8868    3.8690    0.1039 H         1 <0>         0.0968
     14 H6          2.1821    3.2055    2.1116 H         1 <0>         0.1320
     15 H7          3.5559    2.7510    1.0750 H         1 <0>         0.1402
     16 H8          3.7948    4.9550    1.9534 H         1 <0>         0.4390
     17 H9          3.6429    5.0092    0.3137 H         1 <0>         0.4357
     18 H10         2.3712    5.4299    1.2732 H         1 <0>         0.4338
@<TRIPOS>BOND
     1    1    5 1
     2    1    2 2
     3    1   10 1
     4    2    3 1
     5    2    7 1
     6    3    4 2
     7    4    5 1
     8    4   11 1
     9    5    6 1
    10    7    8 1
    11    7   12 1
    12    7   13 1
    13    8    9 1
    14    8   14 1
    15    8   15 1
    16    9   16 1
    17    9   17 1
    18    9   18 1
