@<TRIPOS>MOLECULE
ZINC05218771
   40    43     0     0     0
SMALL
USER_CHARGES
chloro-methyl-(4-methylpiperazin-1-yl)-BLAH
@<TRIPOS>ATOM
      1 C1         -2.9068    2.2222   -5.4256 C.3       1 <0>        -0.0878
      2 C2         -2.4256    3.2012   -4.3859 C.ar      1 <0>         0.3439
      3 N1         -2.5931    4.4899   -4.5979 N.ar      1 <0>        -0.4794
      4 C3         -2.1804    5.3819   -3.7014 C.ar      1 <0>         0.1744
      5 C4         -2.2032    6.8514   -3.6115 C.ar      1 <0>        -0.1217
      6 C5         -2.6711    7.8654   -4.4425 C.ar      1 <0>        -0.0236
      7 C6         -2.5366    9.1829   -4.0570 C.ar      1 <0>        -0.0552
      8 C7         -1.9375    9.4967   -2.8455 C.ar      1 <0>        -0.0496
      9 C8         -1.4707    8.5007   -2.0150 C.ar      1 <0>        -0.1017
     10 C9         -1.5971    7.1669   -2.3862 C.ar      1 <0>         0.1045
     11 O1         -1.2356    6.0154   -1.7786 O.3       1 <0>        -0.1804
     12 C10        -1.5689    4.9407   -2.5221 C.ar      1 <0>        -0.0416
     13 C11        -1.4088    3.5614   -2.3449 C.ar      1 <0>         0.3751
     14 N2         -1.8502    2.7396   -3.2916 N.ar      1 <0>        -0.5223
     15 N3         -0.8062    3.0616   -1.2005 N.pl3     1 <0>        -0.4719
     16 C12        -0.7538    1.5933   -1.2312 C.3       1 <0>         0.0344
     17 C13        -0.0127    1.0858    0.0080 C.3       1 <0>         0.0000
     18 C14        -0.7542    3.0285    1.2469 C.3       1 <0>         0.0061
     19 C15        -1.4953    3.5359    0.0077 C.3       1 <0>         0.0238
     20 C16        -0.0625    1.0307    2.4286 C.3       1 <0>        -0.0407
     21 Cl1        -3.1179   10.4513   -5.0900 Cl        1 <0>        -0.0381
     22 H1         -3.9389    1.9438   -5.2124 H         1 <0>         0.0945
     23 H2         -2.8511    2.6830   -6.4119 H         1 <0>         0.0966
     24 H3         -2.2786    1.3317   -5.4045 H         1 <0>         0.0925
     25 H4         -3.1373    7.6215   -5.3857 H         1 <0>         0.1521
     26 H5         -1.8355   10.5307   -2.5508 H         1 <0>         0.1594
     27 H6         -1.0064    8.7568   -1.0742 H         1 <0>         0.1539
     28 H7         -0.2280    1.2668   -2.1285 H         1 <0>         0.1368
     29 H8         -1.7676    1.1930   -1.2380 H         1 <0>         0.0820
     30 H9          0.0021   -0.0041    0.0020 H         1 <0>         0.1432
     31 H10         1.0098    1.4634    0.0003 H         1 <0>         0.1415
     32 H11         0.2597    3.4285    1.2535 H         1 <0>         0.1444
     33 H12        -1.2798    3.3552    2.1442 H         1 <0>         0.1437
     34 H13        -1.5101    4.6258    0.0137 H         1 <0>         0.1337
     35 H14        -2.5178    3.1583    0.0150 H         1 <0>         0.0765
     36 H15         0.9757    1.3605    2.4658 H         1 <0>         0.1254
     37 H16        -0.5919    1.3972    3.3081 H         1 <0>         0.1240
     38 H17        -0.0972   -0.0587    2.4114 H         1 <0>         0.1247
     39 N4         -0.7278    1.5508    1.2149 N.4       1 <0>        -0.4018
     40 H18        -1.6925    1.2003    1.1871 H         1 <0>         0.4286
@<TRIPOS>BOND
     1    1    2 1
     2    1   22 1
     3    1   23 1
     4    1   24 1
     5    2   14 ar
     6    2    3 ar
     7    3    4 ar
     8    4   12 ar
     9    4    5 1
    10    5   10 ar
    11    5    6 ar
    12    6    7 ar
    13    6   25 1
    14    7    8 ar
    15    7   21 1
    16    8    9 ar
    17    8   26 1
    18    9   10 ar
    19    9   27 1
    20   10   11 1
    21   11   12 1
    22   12   13 ar
    23   13   14 ar
    24   13   15 1
    25   15   19 1
    26   15   16 1
    27   16   17 1
    28   16   28 1
    29   16   29 1
    30   17   30 1
    31   17   31 1
    32   17   39 1
    33   18   19 1
    34   18   32 1
    35   18   33 1
    36   18   39 1
    37   19   34 1
    38   19   35 1
    39   20   36 1
    40   20   37 1
    41   20   38 1
    42   20   39 1
    43   39   40 1
@<TRIPOS>MOLECULE
ZINC02554424
   37    40     0     0     0
SMALL
USER_CHARGES
chloro-(4-methylpiperazin-1-yl)-BLAH
@<TRIPOS>ATOM
      1 C1          7.6395    7.6625    1.0357 C.3       1 <0>        -0.0408
      2 C2          5.5717    8.2450   -0.0823 C.3       1 <0>        -0.0002
      3 C3          4.0473    8.1462    0.0111 C.3       1 <0>         0.0344
      4 N1          3.6494    6.7315    0.0064 N.pl3     1 <0>        -0.4726
      5 C4          4.2545    6.0135    1.1369 C.3       1 <0>         0.0238
      6 C5          5.7789    6.1123    1.0434 C.3       1 <0>         0.0059
      7 C6          2.2689    6.6036    0.0181 C.ar      1 <0>         0.3712
      8 C7          1.6698    5.3380    0.0161 C.ar      1 <0>        -0.0328
      9 C8          0.2719    5.2761    0.0288 C.ar      1 <0>         0.1692
     10 C9         -0.0626    3.8422    0.0237 C.ar      1 <0>        -0.1214
     11 C10        -1.2562    3.1259    0.0308 C.ar      1 <0>        -0.0239
     12 C11        -1.2269    1.7469    0.0174 C.ar      1 <0>        -0.0546
     13 C12        -0.0126    1.0758    0.0080 C.ar      1 <0>        -0.0496
     14 C13         1.1751    1.7750    0.0004 C.ar      1 <0>        -0.1010
     15 C14         1.1660    3.1652    0.0084 C.ar      1 <0>         0.1034
     16 O1          2.1592    4.0814    0.0043 O.3       1 <0>        -0.1803
     17 Cl1        -2.7127    0.8491    0.0196 Cl        1 <0>        -0.0376
     18 N2         -0.4331    6.4046    0.0418 N.ar      1 <0>        -0.4784
     19 C15         0.1738    7.5728    0.0436 C.ar      1 <0>         0.3201
     20 N3          1.4894    7.6797    0.0319 N.ar      1 <0>        -0.5234
     21 H1          7.9073    8.7166    1.1076 H         1 <0>         0.1248
     22 H2          8.0617    7.1218    1.8827 H         1 <0>         0.1240
     23 H3          8.0348    7.2497    0.1076 H         1 <0>         0.1254
     24 H4          5.9083    7.7992   -1.0184 H         1 <0>         0.1415
     25 H5          5.8709    9.2926   -0.0502 H         1 <0>         0.1433
     26 H6          3.5970    8.6535   -0.8421 H         1 <0>         0.1372
     27 H7          3.7083    8.6162    0.9344 H         1 <0>         0.0824
     28 H8          3.9179    6.4593    2.0729 H         1 <0>         0.0769
     29 H9          3.9553    4.9659    1.1043 H         1 <0>         0.1335
     30 H10         6.1179    5.6423    0.1202 H         1 <0>         0.1444
     31 H11         6.2295    5.6049    1.8964 H         1 <0>         0.1436
     32 H12        -2.2016    3.6479    0.0426 H         1 <0>         0.1526
     33 H13         0.0021   -0.0041    0.0020 H         1 <0>         0.1596
     34 H14         2.1144    1.2421   -0.0115 H         1 <0>         0.1541
     35 H15        -0.4237    8.4723    0.0546 H         1 <0>         0.2183
     36 N4          6.1666    7.5382    1.0716 N.4       1 <0>        -0.4018
     37 H16         5.8171    7.9621    1.9390 H         1 <0>         0.4287
@<TRIPOS>BOND
     1    1   21 1
     2    1   22 1
     3    1   23 1
     4    1   36 1
     5    2    3 1
     6    2   24 1
     7    2   25 1
     8    2   36 1
     9    3    4 1
    10    3   26 1
    11    3   27 1
    12    4    5 1
    13    4    7 1
    14    5    6 1
    15    5   28 1
    16    5   29 1
    17    6   30 1
    18    6   31 1
    19    6   36 1
    20    7   20 ar
    21    7    8 ar
    22    8   16 1
    23    8    9 ar
    24    9   10 1
    25    9   18 ar
    26   10   15 ar
    27   10   11 ar
    28   11   12 ar
    29   11   32 1
    30   12   13 ar
    31   12   17 1
    32   13   14 ar
    33   13   33 1
    34   14   15 ar
    35   14   34 1
    36   15   16 1
    37   18   19 ar
    38   19   20 ar
    39   19   35 1
    40   36   37 1
@<TRIPOS>MOLECULE
ZINC00112064
   33    33     0     0     0
SMALL
USER_CHARGES
1-[[6-(guanidinomethyl)-2-pyridyl]methyl]guanidine
@<TRIPOS>ATOM
      1 C1          2.7597   -0.7816    0.0148 C.ar      1 <0>        -0.0646
      2 C2          1.6153   -1.2977   -0.5741 C.ar      1 <0>        -0.1185
      3 C3          0.4466   -0.5612   -0.5338 C.ar      1 <0>         0.0879
      4 N1          0.4123    0.6179    0.0556 N.ar      1 <0>        -0.4476
      5 C4          1.4809    1.1396    0.6257 C.ar      1 <0>         0.0879
      6 C5          2.6849    0.4613    0.6245 C.ar      1 <0>        -0.1186
      7 C6          1.3880    2.4913    1.2855 C.3       1 <0>         0.1548
      8 N2          1.5811    3.5396    0.2805 N.pl3     1 <0>        -0.6975
      9 C7          1.5384    4.8630    0.6507 C.cat     1 <0>         0.7448
     10 N3          1.3146    5.2026    1.9639 N.pl3     1 <0>        -0.8028
     11 C8         -0.8031   -1.1122   -1.1705 C.3       1 <0>         0.1549
     12 N4         -1.6078   -1.7961   -0.1550 N.pl3     1 <0>        -0.6975
     13 C9         -2.8015   -2.3824   -0.5039 C.cat     1 <0>         0.7448
     14 N5         -3.2401   -2.3267   -1.8057 N.pl3     1 <0>        -0.8029
     15 H1          3.6873   -1.3346   -0.0015 H         1 <0>         0.1569
     16 H2          1.6372   -2.2628   -1.0582 H         1 <0>         0.1519
     17 H3          3.5567    0.8940    1.0928 H         1 <0>         0.1519
     18 H4          0.4061    2.6048    1.7448 H         1 <0>         0.1090
     19 H5          2.1593    2.5756    2.0512 H         1 <0>         0.1109
     20 H6          1.7390    3.3000   -0.6461 H         1 <0>         0.4347
     21 H7          1.6977    6.7574   -0.0805 H         1 <0>         0.4561
     22 H8          1.1868    4.5085    2.6294 H         1 <0>         0.4387
     23 H9          1.2846    6.1364    2.2251 H         1 <0>         0.4420
     24 H10        -1.3813   -0.2955   -1.6026 H         1 <0>         0.1090
     25 H11        -0.5305   -1.8187   -1.9544 H         1 <0>         0.1109
     26 H12        -1.2983   -1.8354    0.7635 H         1 <0>         0.4347
     27 H13        -4.3732   -3.4347    0.2515 H         1 <0>         0.4561
     28 H14        -2.7073   -1.8738   -2.4781 H         1 <0>         0.4387
     29 H15        -4.0823   -2.7403   -2.0519 H         1 <0>         0.4420
     30 N6          1.7204    5.7626   -0.3052 N.pl3     1 <0>        -0.7922
     31 H16         1.8844    5.4583   -1.2721 H         1 <0>         0.4578
     32 N7         -3.4817   -2.9850    0.4605 N.pl3     1 <0>        -0.7921
     33 H17        -3.1115   -2.9993    1.4181 H         1 <0>         0.4578
@<TRIPOS>BOND
     1    1    6 ar
     2    1    2 ar
     3    1   15 1
     4    2    3 ar
     5    2   16 1
     6    3    4 ar
     7    3   11 1
     8    4    5 ar
     9    5    6 ar
    10    5    7 1
    11    6   17 1
    12    7    8 1
    13    7   18 1
    14    7   19 1
    15    8    9 1
    16    8   20 1
    17    9   10 1
    18    9   30 2
    19   10   22 1
    20   10   23 1
    21   11   12 1
    22   11   24 1
    23   11   25 1
    24   12   13 1
    25   12   26 1
    26   13   14 1
    27   13   32 2
    28   14   28 1
    29   14   29 1
    30   21   30 1
    31   27   32 1
    32   30   31 1
    33   32   33 1
@<TRIPOS>MOLECULE
ZINC19874821
   37    38     0     0     0
SMALL
USER_CHARGES

@<TRIPOS>ATOM
      1 C1          0.1576   -6.7270    4.9200 C.3       1 <0>        -0.1112
      2 C2          0.1321   -6.0182    3.5903 C.ar      1 <0>         0.2176
      3 C3          0.1318   -6.7432    2.4088 C.ar      1 <0>        -0.2659
      4 C4          0.1075   -6.0520    1.2076 C.ar      1 <0>         0.2324
      5 N1          0.0854   -4.7295    1.2246 N.ar      1 <0>        -0.5544
      6 C5          0.0863   -4.0670    2.3714 C.ar      1 <0>         0.5655
      7 N2          0.1042   -4.6969    3.5364 N.ar      1 <0>        -0.5755
      8 N3          0.0632   -2.6796    2.3521 N.pl3     1 <0>        -0.6583
      9 C6         -0.0580   -1.9759    3.5308 C.2       1 <0>         0.6410
     10 N4         -0.1861   -0.6796    3.5054 N.2       1 <0>        -0.8024
     11 N5         -0.0437   -2.6417    4.7335 N.pl3     1 <0>        -0.7176
     12 C7         -0.0482   -1.8867    5.9889 C.3       1 <0>         0.1441
     13 C8         -0.0298   -2.8598    7.1694 C.3       1 <0>        -0.0764
     14 C9         -0.0345   -2.0831    8.4608 C.2       1 <0>         0.0693
     15 C10         1.0381   -1.5691    9.0923 C.2       1 <0>         0.0074
     16 N6          0.6094   -0.9535   10.2042 N.pl3     1 <0>        -0.4725
     17 C11        -0.6881   -1.0664   10.2856 C.cat     1 <0>         0.3063
     18 N7         -1.1305   -1.7594    9.2143 N.pl3     1 <0>        -0.5094
     19 H1         -2.0524   -1.9871    9.0167 H         1 <0>         0.4655
     20 C12         0.1067   -6.7980   -0.1017 C.3       1 <0>        -0.1148
     21 H2         -0.8637   -6.9192    5.2489 H         1 <0>         0.0914
     22 H3          0.6904   -7.6724    4.8177 H         1 <0>         0.0914
     23 H4          0.6645   -6.1019    5.6552 H         1 <0>         0.0801
     24 H5          0.1506   -7.8229    2.4239 H         1 <0>         0.1547
     25 H6          0.1323   -2.2051    1.5088 H         1 <0>         0.4338
     26 H7         -0.2692   -0.2170    2.6569 H         1 <0>         0.3468
     27 H8         -0.0305   -3.6115    4.7508 H         1 <0>         0.4242
     28 H9          0.8335   -1.2472    6.0315 H         1 <0>         0.0704
     29 H10        -0.9463   -1.2711    6.0394 H         1 <0>         0.0663
     30 H11        -0.9115   -3.4993    7.1268 H         1 <0>         0.1019
     31 H12         0.8683   -3.4754    7.1189 H         1 <0>         0.1180
     32 H13         2.0637   -1.6402    8.7615 H         1 <0>         0.2253
     33 H14        -1.3062   -0.6681   11.0767 H         1 <0>         0.2668
     34 H15        -0.9209   -6.9955   -0.4068 H         1 <0>         0.0936
     35 H16         0.6024   -6.1959   -0.8633 H         1 <0>         0.0878
     36 H17         0.6382   -7.7422    0.0177 H         1 <0>         0.0890
     37 H18         1.1747   -0.4966   10.8466 H         1 <0>         0.4678
@<TRIPOS>BOND
     1    1    2 1
     2    1   21 1
     3    1   22 1
     4    1   23 1
     5    2    7 ar
     6    2    3 ar
     7    3    4 ar
     8    3   24 1
     9    4    5 ar
    10    4   20 1
    11    5    6 ar
    12    6    7 ar
    13    6    8 1
    14    8    9 1
    15    8   25 1
    16    9   10 2
    17    9   11 1
    18   10   26 1
    19   11   12 1
    20   11   27 1
    21   12   13 1
    22   12   28 1
    23   12   29 1
    24   13   14 1
    25   13   30 1
    26   13   31 1
    27   14   18 1
    28   14   15 2
    29   15   16 1
    30   15   32 1
    31   16   17 2
    32   16   37 1
    33   17   18 1
    34   17   33 1
    35   18   19 1
    36   20   34 1
    37   20   35 1
    38   20   36 1
@<TRIPOS>MOLECULE
ZINC19874821
   36    37     0     0     0
SMALL
USER_CHARGES

@<TRIPOS>ATOM
      1 C1          2.5713   -0.6742   -1.2093 C.3       1 <0>        -0.1064
      2 C2          1.2524   -1.0383   -0.5779 C.ar      1 <0>         0.1909
      3 C3          0.0601   -0.7000   -1.2000 C.ar      1 <0>        -0.2629
      4 C4         -1.1333   -1.0528   -0.5880 C.ar      1 <0>         0.1913
      5 N1         -1.1019   -1.6983    0.5650 N.ar      1 <0>        -0.5432
      6 C5          0.0581   -2.0092    1.1377 C.ar      1 <0>         0.5360
      7 N2          1.2191   -1.6886    0.5724 N.ar      1 <0>        -0.5453
      8 N3          0.0571   -2.6742    2.3251 N.2       1 <0>        -0.6134
      9 C6          0.1460   -2.0040    3.4551 C.2       1 <0>         0.6943
     10 N4          0.2573   -2.6760    4.6425 N.pl3     1 <0>        -0.7114
     11 C7          0.3561   -1.9304    5.8996 C.3       1 <0>         0.1216
     12 C8          0.4698   -2.9124    7.0674 C.3       1 <0>        -0.0509
     13 C9          0.5715   -2.1454    8.3606 C.2       1 <0>        -0.0311
     14 C10        -0.4526   -1.6702    9.0947 C.2       1 <0>        -0.0120
     15 N5          0.0591   -1.0501   10.1684 N.2       1 <0>        -0.4933
     16 H1          2.6280   -2.0083    8.7377 H         1 <0>         0.4205
     17 C11         1.3614   -1.1231   10.1275 C.2       1 <0>         0.1914
     18 N6          1.7223   -1.8032    9.0180 N.pl3     1 <0>        -0.5664
     19 N7          0.1270   -0.6353    3.4424 N.pl3     1 <0>        -0.8729
     20 C12        -2.4512   -0.7038   -1.2301 C.3       1 <0>        -0.1068
     21 H2          2.8943   -1.4810   -1.8672 H         1 <0>         0.0846
     22 H3          2.4564    0.2424   -1.7879 H         1 <0>         0.0797
     23 H4          3.3173   -0.5205   -0.4295 H         1 <0>         0.0795
     24 H5          0.0609   -0.1720   -2.1421 H         1 <0>         0.1424
     25 H6          1.2390   -1.2917    5.8748 H         1 <0>         0.0658
     26 H7         -0.5342   -1.3148    6.0279 H         1 <0>         0.0753
     27 H8         -0.4131   -3.5511    7.0922 H         1 <0>         0.1009
     28 H9          1.3601   -3.5280    6.9391 H         1 <0>         0.0828
     29 H10        -1.5020   -1.7706    8.8601 H         1 <0>         0.1710
     30 H11         2.0383   -0.7110   10.8612 H         1 <0>         0.2101
     31 H12        -0.0293   -0.1601    2.6114 H         1 <0>         0.4101
     32 H13         0.2700   -0.1407    4.2645 H         1 <0>         0.3989
     33 H14        -2.7616   -1.5161   -1.8873 H         1 <0>         0.0848
     34 H15        -3.2042   -0.5547   -0.4562 H         1 <0>         0.0806
     35 H16        -2.3410    0.2118   -1.8111 H         1 <0>         0.0797
     36 H17         0.2707   -3.6459    4.6514 H         1 <0>         0.4242
@<TRIPOS>BOND
     1    1    2 1
     2    1   21 1
     3    1   22 1
     4    1   23 1
     5    2    7 ar
     6    2    3 ar
     7    3    4 ar
     8    3   24 1
     9    4    5 ar
    10    4   20 1
    11    5    6 ar
    12    6    7 ar
    13    6    8 1
    14    8    9 2
    15    9   10 1
    16    9   19 1
    17   10   11 1
    18   10   36 1
    19   11   12 1
    20   11   25 1
    21   11   26 1
    22   12   27 1
    23   12   28 1
    24   12   13 1
    25   13   14 2
    26   13   18 1
    27   14   15 1
    28   14   29 1
    29   15   17 2
    30   16   18 1
    31   17   30 1
    32   17   18 1
    33   19   31 1
    34   19   32 1
    35   20   33 1
    36   20   34 1
    37   20   35 1
@<TRIPOS>MOLECULE
ZINC19874821
   37    38     0     0     0
SMALL
USER_CHARGES
1-(4,6-dimethylpyrimidin-2-yl)-3-[2-(1H-imidazol-5-yl)ethyl]guanidine
@<TRIPOS>ATOM
      1 C1         -0.2560   -3.9157   -2.1568 C.3       1 <0>        -0.1263
      2 C2         -0.1215   -4.6961   -0.8746 C.ar      1 <0>         0.2288
      3 C3         -0.1040   -6.0819   -0.8953 C.ar      1 <0>        -0.2366
      4 C4          0.0218   -6.7608    0.3066 C.ar      1 <0>         0.2439
      5 N1          0.1208   -6.0700    1.4303 N.ar      1 <0>        -0.5322
      6 C5          0.1007   -4.7459    1.4152 C.ar      1 <0>         0.5642
      7 N2         -0.0236   -4.0669    0.2849 N.ar      1 <0>        -0.5761
      8 N3          0.2068   -4.0532    2.6131 N.pl3     1 <0>        -0.6340
      9 C6          0.3116   -2.6790    2.6075 C.cat     1 <0>         0.7353
     10 N4          0.5140   -2.0366    3.7227 N.pl3     1 <0>        -0.8052
     11 N5          0.2024   -1.9860    1.4251 N.pl3     1 <0>        -0.6904
     12 C7          0.1898   -0.5211    1.4331 C.3       1 <0>         0.0878
     13 C8          0.0604   -0.0044   -0.0011 C.3       1 <0>        -0.0438
     14 C9          0.0474    1.5025    0.0071 C.2       1 <0>        -0.0616
     15 C10         1.1217    2.3146    0.0115 C.2       1 <0>         0.0040
     16 N6          0.6836    3.5823    0.0176 N.2       1 <0>        -0.4905
     17 C11        -0.6213    3.5867    0.0171 C.2       1 <0>         0.2248
     18 N7         -1.0586    2.3090    0.0054 N.pl3     1 <0>        -0.5711
     19 C12         0.0460   -8.2673    0.3327 C.3       1 <0>        -0.1247
     20 H1         -0.3234   -4.6129   -3.0050 H         1 <0>         0.1010
     21 H2          0.6227   -3.2664   -2.2847 H         1 <0>         0.0974
     22 H3         -1.1654   -3.2982   -2.1165 H         1 <0>         0.0970
     23 H4         -0.1870   -6.6209   -1.8275 H         1 <0>         0.1690
     24 H5          0.2072   -4.6010    3.5670 H         1 <0>         0.4864
     25 H6          0.5976   -0.9398    3.7182 H         1 <0>         0.4730
     26 H7          0.1245   -2.5315    0.4731 H         1 <0>         0.4595
     27 H8         -0.6632   -0.1650    2.0295 H         1 <0>         0.0838
     28 H9          1.1263   -0.1487    1.8739 H         1 <0>         0.0884
     29 H10         0.9134   -0.3605   -0.5975 H         1 <0>         0.1009
     30 H11        -0.8761   -0.3768   -0.4419 H         1 <0>         0.0858
     31 H12         2.0428    1.9253    0.0100 H         1 <0>         0.1530
     32 H13        -1.1184    4.4544    0.0247 H         1 <0>         0.1957
     33 H14         0.1512   -8.6144    1.3712 H         1 <0>         0.0929
     34 H15         0.8961   -8.6307   -0.2633 H         1 <0>         0.1023
     35 H16        -0.8917   -8.6564   -0.0907 H         1 <0>         0.1021
     36 H17        -2.0642    1.8634   -0.0043 H         1 <0>         0.4478
     37 H18         0.6012   -2.5910    4.6688 H         1 <0>         0.4677
@<TRIPOS>BOND
     1    1    2 1
     2    1   20 1
     3    1   21 1
     4    1   22 1
     5    2    7 ar
     6    2    3 ar
     7    3    4 ar
     8    3   23 1
     9    4    5 ar
    10    4   19 1
    11    5    6 ar
    12    6    7 ar
    13    6    8 1
    14    8    9 1
    15    8   24 1
    16    9   10 2
    17    9   11 1
    18   10   25 1
    19   10   37 1
    20   11   12 1
    21   11   26 1
    22   12   13 1
    23   12   27 1
    24   12   28 1
    25   13   14 1
    26   13   29 1
    27   13   30 1
    28   14   18 1
    29   14   15 2
    30   15   16 1
    31   15   31 1
    32   16   17 2
    33   17   32 1
    34   17   18 1
    35   18   36 1
    36   19   33 1
    37   19   34 1
    38   19   35 1
@<TRIPOS>MOLECULE
ZINC19874821
   37    38     0     0     0
SMALL
USER_CHARGES
1-(4,6-dimethylpyrimidin-2-yl)-2-[2-(1H-imidazol-5-yl)ethyl]guanidine
@<TRIPOS>ATOM
      1 C1         -1.4923   -4.7134    0.4068 C.3       1 <0>        -0.1274
      2 C2         -0.1769   -4.0259    0.1456 C.ar      1 <0>         0.2328
      3 C3          0.9778   -4.7691   -0.0429 C.ar      1 <0>        -0.2361
      4 C4          2.1665   -4.0970   -0.2809 C.ar      1 <0>         0.2458
      5 N1          2.1633   -2.7749   -0.3209 N.ar      1 <0>        -0.5310
      6 C5          1.0420   -2.0947   -0.1367 C.ar      1 <0>         0.5643
      7 N2         -0.1094   -2.7057    0.0982 N.ar      1 <0>        -0.5808
      8 N3          1.0752   -0.7081   -0.1853 N.pl3     1 <0>        -0.6334
      9 C6         -0.0955    0.0130   -0.0914 C.cat     1 <0>         0.7339
     10 N4         -1.2211   -0.5999    0.1427 N.pl3     1 <0>        -0.6523
     11 C7         -2.4770    0.1543    0.1554 C.3       1 <0>         0.0881
     12 C8         -3.3608   -0.3073   -1.0051 C.3       1 <0>        -0.0515
     13 C9         -4.6527    0.4685   -0.9921 C.2       1 <0>        -0.0660
     14 C10        -5.7569    0.1772   -0.2783 C.2       1 <0>         0.0075
     15 N5         -6.6815    1.1117   -0.5444 N.2       1 <0>        -0.4896
     16 C11        -6.1952    1.9662   -1.4025 C.2       1 <0>         0.2258
     17 N6         -4.9314    1.6014   -1.7080 N.pl3     1 <0>        -0.5724
     18 H1         -4.1701    2.0314   -2.3756 H         1 <0>         0.4455
     19 N7         -0.0756    1.3790   -0.2449 N.pl3     1 <0>        -0.8494
     20 C12         3.4468   -4.8634   -0.4922 C.3       1 <0>        -0.1251
     21 H2         -1.3426   -5.8032    0.4080 H         1 <0>         0.1017
     22 H3         -2.2103   -4.4428   -0.3814 H         1 <0>         0.0982
     23 H4         -1.8841   -4.3961    1.3844 H         1 <0>         0.0990
     24 H5          0.9520   -5.8481   -0.0047 H         1 <0>         0.1703
     25 H6          2.0360   -0.1846   -0.2988 H         1 <0>         0.4871
     26 H7         -3.0002   -0.0208    1.1070 H         1 <0>         0.1166
     27 H8         -2.2613    1.2276    0.0477 H         1 <0>         0.0830
     28 H9         -2.8375   -0.1322   -1.9567 H         1 <0>         0.0801
     29 H10        -3.5765   -1.3806   -0.8974 H         1 <0>         0.1025
     30 H11        -5.7693   -0.6251    0.3185 H         1 <0>         0.1540
     31 H12        -6.7553    2.7325   -1.7172 H         1 <0>         0.1960
     32 H13        -1.0100    1.9546   -0.1700 H         1 <0>         0.4611
     33 H14         0.8747    1.8965   -0.4427 H         1 <0>         0.4604
     34 H15         4.2725   -4.1574   -0.6647 H         1 <0>         0.0933
     35 H16         3.3394   -5.5228   -1.3661 H         1 <0>         0.1027
     36 H17         3.6629   -5.4694    0.4000 H         1 <0>         0.1030
     37 H18        -1.2285   -1.6837    0.3308 H         1 <0>         0.4621
@<TRIPOS>BOND
     1    1    2 1
     2    1   21 1
     3    1   22 1
     4    1   23 1
     5    2    7 ar
     6    2    3 ar
     7    3    4 ar
     8    3   24 1
     9    4    5 ar
    10    4   20 1
    11    5    6 ar
    12    6    7 ar
    13    6    8 1
    14    8    9 1
    15    8   25 1
    16    9   10 2
    17    9   19 1
    18   10   11 1
    19   10   37 1
    20   11   12 1
    21   11   26 1
    22   11   27 1
    23   12   13 1
    24   12   28 1
    25   12   29 1
    26   13   17 1
    27   13   14 2
    28   14   15 1
    29   14   30 1
    30   15   16 2
    31   16   31 1
    32   16   17 1
    33   17   18 1
    34   19   32 1
    35   19   33 1
    36   20   34 1
    37   20   35 1
    38   20   36 1
@<TRIPOS>MOLECULE
ZINC19874821
   36    37     0     0     0
SMALL
USER_CHARGES

@<TRIPOS>ATOM
      1 C1          2.5713   -0.6742   -1.2093 C.3       1 <0>        -0.1064
      2 C2          1.2524   -1.0383   -0.5779 C.ar      1 <0>         0.1910
      3 C3          0.0601   -0.7000   -1.2000 C.ar      1 <0>        -0.2646
      4 C4         -1.1333   -1.0528   -0.5880 C.ar      1 <0>         0.1903
      5 N1         -1.1019   -1.6983    0.5650 N.ar      1 <0>        -0.5445
      6 C5          0.0581   -2.0092    1.1377 C.ar      1 <0>         0.5382
      7 N2          1.2191   -1.6886    0.5724 N.ar      1 <0>        -0.5447
      8 N3          0.0571   -2.6742    2.3251 N.2       1 <0>        -0.6179
      9 C6          0.1460   -2.0040    3.4551 C.2       1 <0>         0.6961
     10 N4          0.1270   -0.6353    3.4424 N.pl3     1 <0>        -0.8729
     11 N5          0.2573   -2.6760    4.6425 N.pl3     1 <0>        -0.7107
     12 C7          0.3561   -1.9304    5.8996 C.3       1 <0>         0.1250
     13 C8          0.4698   -2.9124    7.0674 C.3       1 <0>        -0.0407
     14 C9          0.5715   -2.1454    8.3606 C.2       1 <0>        -0.0014
     15 C10        -0.2266   -2.2960    9.4348 C.2       1 <0>        -0.0452
     16 N6          0.2124   -1.4103   10.3817 N.pl3     1 <0>        -0.5696
     17 C11         1.2643   -0.7489    9.8527 C.2       1 <0>         0.1892
     18 N7          1.4764   -1.1973    8.6456 N.2       1 <0>        -0.4888
     19 C12        -2.4512   -0.7038   -1.2301 C.3       1 <0>        -0.1062
     20 H1          2.8943   -1.4810   -1.8672 H         1 <0>         0.0841
     21 H2          2.4564    0.2424   -1.7879 H         1 <0>         0.0791
     22 H3          3.3173   -0.5205   -0.4295 H         1 <0>         0.0800
     23 H4          0.0609   -0.1720   -2.1421 H         1 <0>         0.1414
     24 H5         -0.0293   -0.1601    2.6114 H         1 <0>         0.4088
     25 H6          0.2707   -3.6459    4.6514 H         1 <0>         0.4228
     26 H7          1.2390   -1.2917    5.8748 H         1 <0>         0.0763
     27 H8         -0.5342   -1.3148    6.0279 H         1 <0>         0.0657
     28 H9         -0.4131   -3.5511    7.0922 H         1 <0>         0.0858
     29 H10         1.3601   -3.5280    6.9391 H         1 <0>         0.0864
     30 H11        -1.0543   -2.9832    9.5307 H         1 <0>         0.1780
     31 H12         1.8376    0.0208   10.3481 H         1 <0>         0.2094
     32 H13        -2.7616   -1.5161   -1.8873 H         1 <0>         0.0841
     33 H14        -3.2042   -0.5547   -0.4562 H         1 <0>         0.0799
     34 H15        -2.3410    0.2118   -1.8111 H         1 <0>         0.0791
     35 H16        -0.1621   -1.2818   11.2672 H         1 <0>         0.4228
     36 H17         0.2700   -0.1407    4.2645 H         1 <0>         0.4000
@<TRIPOS>BOND
     1    1    2 1
     2    1   20 1
     3    1   21 1
     4    1   22 1
     5    2    7 ar
     6    2    3 ar
     7    3    4 ar
     8    3   23 1
     9    4    5 ar
    10    4   19 1
    11    5    6 ar
    12    6    7 ar
    13    6    8 1
    14    8    9 2
    15    9   10 1
    16    9   11 1
    17   10   24 1
    18   10   36 1
    19   11   12 1
    20   11   25 1
    21   12   13 1
    22   12   26 1
    23   12   27 1
    24   13   28 1
    25   13   29 1
    26   13   14 1
    27   14   18 1
    28   14   15 2
    29   15   30 1
    30   15   16 1
    31   16   17 1
    32   16   35 1
    33   17   31 1
    34   17   18 2
    35   19   32 1
    36   19   33 1
    37   19   34 1
@<TRIPOS>MOLECULE
ZINC19874821
   37    38     0     0     0
SMALL
USER_CHARGES

@<TRIPOS>ATOM
      1 C1          2.5479   -0.6639   -1.2180 C.3       1 <0>        -0.1080
      2 C2          1.2327   -1.0332   -0.5817 C.ar      1 <0>         0.1926
      3 C3          0.0368   -0.6992   -1.1993 C.ar      1 <0>        -0.2582
      4 C4         -1.1529   -1.0568   -0.5829 C.ar      1 <0>         0.1928
      5 N1         -1.1147   -1.7023    0.5698 N.ar      1 <0>        -0.5428
      6 C5          0.0486   -2.0090    1.1381 C.ar      1 <0>         0.5269
      7 N2          1.2062   -1.6838    0.5685 N.ar      1 <0>        -0.5435
      8 N3          0.0546   -2.6742    2.3253 N.2       1 <0>        -0.5950
      9 C6          0.1460   -2.0040    3.4551 C.2       1 <0>         0.6897
     10 N4          0.2599   -2.6760    4.6422 N.pl3     1 <0>        -0.8311
     11 N5          0.1270   -0.6353    3.4424 N.pl3     1 <0>        -0.7553
     12 C7          0.3429    0.1118    4.6840 C.3       1 <0>         0.1131
     13 C8          0.2723    1.6126    4.3950 C.3       1 <0>        -0.0739
     14 C9          0.4944    2.3810    5.6722 C.2       1 <0>         0.0610
     15 C10         1.6821    2.7222    6.2076 C.2       1 <0>         0.0121
     16 N6          1.4470    3.3982    7.3419 N.pl3     1 <0>        -0.4727
     17 C11         0.1588    3.4889    7.5298 C.cat     1 <0>         0.3115
     18 N7         -0.4723    2.8716    6.5079 N.pl3     1 <0>        -0.5096
     19 H1         -1.4315    2.7897    6.3891 H         1 <0>         0.4664
     20 C12        -2.4745   -0.7126   -1.2200 C.3       1 <0>        -0.1087
     21 H2          2.8715   -1.4693   -1.8773 H         1 <0>         0.0877
     22 H3          2.4273    0.2524   -1.7960 H         1 <0>         0.0812
     23 H4          3.2962   -0.5075   -0.4411 H         1 <0>         0.0797
     24 H5          0.0320   -0.1710   -2.1413 H         1 <0>         0.1451
     25 H6          0.2733   -3.6458    4.6512 H         1 <0>         0.4282
     26 H7         -0.0293   -0.1601    2.6114 H         1 <0>         0.4132
     27 H8         -0.4272   -0.1556    5.4075 H         1 <0>         0.0710
     28 H9          1.3241   -0.1343    5.0901 H         1 <0>         0.0792
     29 H10         1.0425    1.8799    3.6715 H         1 <0>         0.1218
     30 H11        -0.7088    1.8586    3.9889 H         1 <0>         0.1061
     31 H12         2.6535    2.4919    5.7957 H         1 <0>         0.2264
     32 H13        -0.3229    3.9794    8.3628 H         1 <0>         0.2684
     33 H14        -2.7843   -1.5259   -1.8762 H         1 <0>         0.0880
     34 H15        -3.2252   -0.5665   -0.4432 H         1 <0>         0.0801
     35 H16        -2.3701    0.2035   -1.8012 H         1 <0>         0.0813
     36 H17         0.3272   -2.1823    5.4745 H         1 <0>         0.4062
     37 H18         2.1272    3.7623    7.9299 H         1 <0>         0.4692
@<TRIPOS>BOND
     1    1    2 1
     2    1   21 1
     3    1   22 1
     4    1   23 1
     5    2    7 ar
     6    2    3 ar
     7    3    4 ar
     8    3   24 1
     9    4    5 ar
    10    4   20 1
    11    5    6 ar
    12    6    7 ar
    13    6    8 1
    14    8    9 2
    15    9   10 1
    16    9   11 1
    17   10   25 1
    18   10   36 1
    19   11   12 1
    20   11   26 1
    21   12   13 1
    22   12   27 1
    23   12   28 1
    24   13   29 1
    25   13   30 1
    26   13   14 1
    27   14   15 2
    28   14   18 1
    29   15   16 1
    30   15   31 1
    31   16   17 2
    32   16   37 1
    33   17   32 1
    34   17   18 1
    35   18   19 1
    36   20   33 1
    37   20   34 1
    38   20   35 1
@<TRIPOS>MOLECULE
ZINC19874821
   36    37     0     0     0
SMALL
USER_CHARGES

@<TRIPOS>ATOM
      1 C1          2.5479   -0.6639   -1.2180 C.3       1 <0>        -0.1068
      2 C2          1.2327   -1.0332   -0.5817 C.ar      1 <0>         0.1917
      3 C3          0.0368   -0.6992   -1.1993 C.ar      1 <0>        -0.2629
      4 C4         -1.1529   -1.0568   -0.5829 C.ar      1 <0>         0.1905
      5 N1         -1.1147   -1.7023    0.5698 N.ar      1 <0>        -0.5442
      6 C5          0.0486   -2.0090    1.1381 C.ar      1 <0>         0.5353
      7 N2          1.2062   -1.6838    0.5685 N.ar      1 <0>        -0.5437
      8 N3          0.0546   -2.6742    2.3253 N.2       1 <0>        -0.6127
      9 C6          0.1460   -2.0040    3.4551 C.2       1 <0>         0.6942
     10 N4          0.2599   -2.6760    4.6422 N.pl3     1 <0>        -0.8306
     11 N5          0.1270   -0.6353    3.4424 N.pl3     1 <0>        -0.7514
     12 C7          0.3429    0.1118    4.6840 C.3       1 <0>         0.1140
     13 C8          0.2723    1.6126    4.3950 C.3       1 <0>        -0.0508
     14 C9          0.4944    2.3810    5.6722 C.2       1 <0>        -0.0305
     15 C10         1.6821    2.7226    6.2073 C.2       1 <0>        -0.0116
     16 N6          1.4470    3.3985    7.3418 N.2       1 <0>        -0.4925
     17 C11         0.1588    3.4887    7.5300 C.2       1 <0>         0.1916
     18 N7         -0.4723    2.8712    6.5081 N.pl3     1 <0>        -0.5664
     19 H1         -1.4315    2.7889    6.3896 H         1 <0>         0.4202
     20 C12        -2.4745   -0.7126   -1.2200 C.3       1 <0>        -0.1066
     21 H2          2.8715   -1.4693   -1.8773 H         1 <0>         0.0847
     22 H3          2.4273    0.2524   -1.7960 H         1 <0>         0.0796
     23 H4          3.2962   -0.5075   -0.4411 H         1 <0>         0.0804
     24 H5          0.0320   -0.1710   -2.1413 H         1 <0>         0.1422
     25 H6          0.2733   -3.6458    4.6512 H         1 <0>         0.4243
     26 H7         -0.0293   -0.1601    2.6114 H         1 <0>         0.4098
     27 H8         -0.4272   -0.1556    5.4075 H         1 <0>         0.0663
     28 H9          1.3241   -0.1343    5.0901 H         1 <0>         0.0764
     29 H10         1.0425    1.8799    3.6715 H         1 <0>         0.0961
     30 H11        -0.7088    1.8586    3.9889 H         1 <0>         0.0783
     31 H12         2.6535    2.4927    5.7953 H         1 <0>         0.1706
     32 H13        -0.3229    3.9789    8.3631 H         1 <0>         0.2105
     33 H14        -2.7843   -1.5259   -1.8762 H         1 <0>         0.0848
     34 H15        -3.2252   -0.5665   -0.4432 H         1 <0>         0.0797
     35 H16        -2.3701    0.2035   -1.8012 H         1 <0>         0.0796
     36 H17         0.3272   -2.1823    5.4745 H         1 <0>         0.4098
@<TRIPOS>BOND
     1    1    2 1
     2    1   21 1
     3    1   22 1
     4    1   23 1
     5    2    7 ar
     6    2    3 ar
     7    3    4 ar
     8    3   24 1
     9    4    5 ar
    10    4   20 1
    11    5    6 ar
    12    6    7 ar
    13    6    8 1
    14    8    9 2
    15    9   10 1
    16    9   11 1
    17   10   25 1
    18   10   36 1
    19   11   12 1
    20   11   26 1
    21   12   13 1
    22   12   27 1
    23   12   28 1
    24   13   29 1
    25   13   30 1
    26   13   14 1
    27   14   15 2
    28   14   18 1
    29   15   16 1
    30   15   31 1
    31   16   17 2
    32   17   32 1
    33   17   18 1
    34   18   19 1
    35   20   33 1
    36   20   34 1
    37   20   35 1
@<TRIPOS>MOLECULE
ZINC19874821
   36    37     0     0     0
SMALL
USER_CHARGES

@<TRIPOS>ATOM
      1 C1          2.5479   -0.6639   -1.2180 C.3       1 <0>        -0.1059
      2 C2          1.2327   -1.0332   -0.5817 C.ar      1 <0>         0.1905
      3 C3          0.0368   -0.6992   -1.1993 C.ar      1 <0>        -0.2645
      4 C4         -1.1529   -1.0568   -0.5829 C.ar      1 <0>         0.1910
      5 N1         -1.1147   -1.7023    0.5698 N.ar      1 <0>        -0.5436
      6 C5          0.0486   -2.0090    1.1381 C.ar      1 <0>         0.5381
      7 N2          1.2062   -1.6838    0.5685 N.ar      1 <0>        -0.5450
      8 N3          0.0546   -2.6742    2.3253 N.2       1 <0>        -0.6178
      9 C6          0.1460   -2.0040    3.4551 C.2       1 <0>         0.6957
     10 N4          0.2599   -2.6760    4.6422 N.pl3     1 <0>        -0.8305
     11 N5          0.1270   -0.6353    3.4424 N.pl3     1 <0>        -0.7507
     12 C7          0.3429    0.1118    4.6840 C.3       1 <0>         0.1178
     13 C8          0.2723    1.6126    4.3950 C.3       1 <0>        -0.0405
     14 C9          0.4944    2.3810    5.6722 C.2       1 <0>        -0.0003
     15 C10         1.4226    3.3366    5.8696 C.2       1 <0>        -0.0458
     16 N6          1.2778    3.7688    7.1603 N.pl3     1 <0>        -0.5693
     17 C11         0.2655    3.0617    7.7071 C.2       1 <0>         0.1898
     18 N7         -0.2015    2.2373    6.8097 N.2       1 <0>        -0.4883
     19 H1          1.8040    4.4548    7.6000 H         1 <0>         0.4229
     20 C12        -2.4745   -0.7126   -1.2200 C.3       1 <0>        -0.1066
     21 H2          2.8715   -1.4693   -1.8773 H         1 <0>         0.0838
     22 H3          2.4273    0.2524   -1.7960 H         1 <0>         0.0790
     23 H4          3.2962   -0.5075   -0.4411 H         1 <0>         0.0794
     24 H5          0.0320   -0.1710   -2.1413 H         1 <0>         0.1413
     25 H6          0.2733   -3.6458    4.6512 H         1 <0>         0.4230
     26 H7         -0.0293   -0.1601    2.6114 H         1 <0>         0.4084
     27 H8         -0.4272   -0.1556    5.4075 H         1 <0>         0.0769
     28 H9          1.3241   -0.1343    5.0901 H         1 <0>         0.0668
     29 H10         1.0425    1.8799    3.6715 H         1 <0>         0.0810
     30 H11        -0.7088    1.8586    3.9889 H         1 <0>         0.0820
     31 H12         2.1430    3.6932    5.1482 H         1 <0>         0.1772
     32 H13        -0.0999    3.1645    8.7182 H         1 <0>         0.2100
     33 H14        -2.7843   -1.5259   -1.8762 H         1 <0>         0.0841
     34 H15        -3.2252   -0.5665   -0.4432 H         1 <0>         0.0804
     35 H16        -2.3701    0.2035   -1.8012 H         1 <0>         0.0791
     36 H17         0.3272   -2.1823    5.4745 H         1 <0>         0.4109
@<TRIPOS>BOND
     1    1    2 1
     2    1   21 1
     3    1   22 1
     4    1   23 1
     5    2    7 ar
     6    2    3 ar
     7    3    4 ar
     8    3   24 1
     9    4    5 ar
    10    4   20 1
    11    5    6 ar
    12    6    7 ar
    13    6    8 1
    14    8    9 2
    15    9   10 1
    16    9   11 1
    17   10   25 1
    18   10   36 1
    19   11   12 1
    20   11   26 1
    21   12   13 1
    22   12   27 1
    23   12   28 1
    24   13   29 1
    25   13   30 1
    26   13   14 1
    27   14   18 1
    28   14   15 2
    29   15   31 1
    30   15   16 1
    31   16   17 1
    32   16   19 1
    33   17   32 1
    34   17   18 2
    35   20   33 1
    36   20   34 1
    37   20   35 1
@<TRIPOS>MOLECULE
ZINC19874821
   37    38     0     0     0
SMALL
USER_CHARGES

@<TRIPOS>ATOM
      1 C1          2.5713   -0.6742   -1.2093 C.3       1 <0>        -0.1080
      2 C2          1.2524   -1.0383   -0.5779 C.ar      1 <0>         0.1929
      3 C3          0.0601   -0.7000   -1.2000 C.ar      1 <0>        -0.2561
      4 C4         -1.1333   -1.0528   -0.5880 C.ar      1 <0>         0.1935
      5 N1         -1.1019   -1.6983    0.5650 N.ar      1 <0>        -0.5421
      6 C5          0.0581   -2.0092    1.1377 C.ar      1 <0>         0.5265
      7 N2          1.2191   -1.6886    0.5724 N.ar      1 <0>        -0.5441
      8 N3          0.0571   -2.6742    2.3251 N.2       1 <0>        -0.5972
      9 C6          0.1460   -2.0040    3.4551 C.2       1 <0>         0.6873
     10 N4          0.1270   -0.6353    3.4424 N.pl3     1 <0>        -0.8736
     11 N5          0.2573   -2.6760    4.6425 N.pl3     1 <0>        -0.7155
     12 C7          0.3561   -1.9304    5.8996 C.3       1 <0>         0.1217
     13 C8          0.4698   -2.9124    7.0674 C.3       1 <0>        -0.0736
     14 C9          0.5715   -2.1454    8.3606 C.2       1 <0>         0.0605
     15 C10        -0.4526   -1.6698    9.0945 C.2       1 <0>         0.0119
     16 N6          0.0591   -1.0499   10.1682 N.pl3     1 <0>        -0.4732
     17 C11         1.3614   -1.1234   10.1276 C.cat     1 <0>         0.3111
     18 N7          1.7223   -1.8036    9.0182 N.pl3     1 <0>        -0.5095
     19 C12        -2.4512   -0.7038   -1.2301 C.3       1 <0>        -0.1085
     20 H1          2.8943   -1.4810   -1.8672 H         1 <0>         0.0871
     21 H2          2.4564    0.2424   -1.7879 H         1 <0>         0.0821
     22 H3          3.3173   -0.5205   -0.4295 H         1 <0>         0.0798
     23 H4          0.0609   -0.1720   -2.1421 H         1 <0>         0.1459
     24 H5         -0.0293   -0.1601    2.6114 H         1 <0>         0.4139
     25 H6          0.2707   -3.6459    4.6514 H         1 <0>         0.4274
     26 H7          1.2390   -1.2917    5.8748 H         1 <0>         0.0702
     27 H8         -0.5342   -1.3148    6.0279 H         1 <0>         0.0778
     28 H9         -0.4131   -3.5511    7.0922 H         1 <0>         0.1264
     29 H10         1.3601   -3.5280    6.9391 H         1 <0>         0.1103
     30 H11        -1.5020   -1.7699    8.8596 H         1 <0>         0.2267
     31 H12         2.0383   -0.7115   10.8615 H         1 <0>         0.2680
     32 H13        -2.7616   -1.5161   -1.8873 H         1 <0>         0.0874
     33 H14        -3.2042   -0.5547   -0.4562 H         1 <0>         0.0809
     34 H15        -2.3410    0.2118   -1.8111 H         1 <0>         0.0821
     35 H16         2.6279   -2.0099    8.7387 H         1 <0>         0.4667
     36 H17         0.2700   -0.1407    4.2645 H         1 <0>         0.3945
     37 H18        -0.4573   -0.6155   10.8650 H         1 <0>         0.4690
@<TRIPOS>BOND
     1    1    2 1
     2    1   20 1
     3    1   21 1
     4    1   22 1
     5    2    7 ar
     6    2    3 ar
     7    3    4 ar
     8    3   23 1
     9    4    5 ar
    10    4   19 1
    11    5    6 ar
    12    6    7 ar
    13    6    8 1
    14    8    9 2
    15    9   10 1
    16    9   11 1
    17   10   24 1
    18   10   36 1
    19   11   12 1
    20   11   25 1
    21   12   13 1
    22   12   26 1
    23   12   27 1
    24   13   28 1
    25   13   29 1
    26   13   14 1
    27   14   15 2
    28   14   18 1
    29   15   16 1
    30   15   30 1
    31   16   17 2
    32   16   37 1
    33   17   31 1
    34   17   18 1
    35   18   35 1
    36   19   32 1
    37   19   33 1
    38   19   34 1
@<TRIPOS>MOLECULE
ZINC00356482
   49    52     0     0     0
SMALL
USER_CHARGES
N-benzyl-2-(4-methylpiperazin-1-yl)-quinazolin-4-amine
@<TRIPOS>ATOM
      1 C1          3.5006    2.0165    1.2367 C.3       1 <0>        -0.0405
      2 C2          1.4190    1.9924   -0.0008 C.3       1 <0>        -0.0001
      3 C3         -0.0179    1.4653    0.0101 C.3       1 <0>         0.0433
      4 N1          0.0021   -0.0041    0.0020 N.pl3     1 <0>        -0.4632
      5 C4          0.7209   -0.5246    1.1733 C.3       1 <0>         0.0381
      6 C5          2.1578    0.0025    1.1624 C.3       1 <0>         0.0037
      7 C6         -1.2809   -0.5168   -0.0603 C.ar      1 <0>         0.5309
      8 N2         -2.2967    0.3245   -0.0966 N.ar      1 <0>        -0.5859
      9 C7         -3.5556   -0.1336   -0.1620 C.ar      1 <0>         0.2089
     10 C8         -4.6574    0.7316   -0.2066 C.ar      1 <0>        -0.1187
     11 C9         -5.9174    0.2145   -0.2665 C.ar      1 <0>        -0.0610
     12 C10        -6.1278   -1.1613   -0.2849 C.ar      1 <0>        -0.1312
     13 C11        -5.0778   -2.0311   -0.2426 C.ar      1 <0>        -0.0644
     14 C12        -3.7720   -1.5330   -0.1804 C.ar      1 <0>        -0.2074
     15 C13        -2.6428   -2.3882   -0.1341 C.ar      1 <0>         0.5032
     16 N3         -1.4392   -1.8373   -0.0757 N.ar      1 <0>        -0.6038
     17 N4         -2.7929   -3.7583   -0.1499 N.pl3     1 <0>        -0.6836
     18 C14        -1.6128   -4.6251   -0.1018 C.3       1 <0>         0.1719
     19 C15        -2.0475   -6.0677   -0.1310 C.ar      1 <0>        -0.1254
     20 C16        -2.2959   -6.7388    1.0517 C.ar      1 <0>        -0.0990
     21 C17        -2.6999   -8.0605    1.0247 C.ar      1 <0>        -0.1204
     22 C18        -2.8448   -8.7144   -0.1845 C.ar      1 <0>        -0.1035
     23 C19        -2.5909   -8.0450   -1.3670 C.ar      1 <0>        -0.1196
     24 C20        -2.1925   -6.7215   -1.3403 C.ar      1 <0>        -0.0981
     25 H1          4.0690    1.6795    0.3699 H         1 <0>         0.1244
     26 H2          3.4567    3.1056    1.2413 H         1 <0>         0.1232
     27 H3          3.9870    1.6686    2.1479 H         1 <0>         0.1225
     28 H4          1.9202    1.6632   -0.9110 H         1 <0>         0.1398
     29 H5          1.4070    3.0818    0.0344 H         1 <0>         0.1402
     30 H6         -0.5445    1.8267   -0.8732 H         1 <0>         0.1342
     31 H7         -0.5275    1.8172    0.9071 H         1 <0>         0.0783
     32 H8          0.2197   -0.1954    2.0835 H         1 <0>         0.0677
     33 H9          0.7329   -1.6140    1.1381 H         1 <0>         0.1379
     34 H10         2.6844   -0.3589    2.0457 H         1 <0>         0.1397
     35 H11         2.6675   -0.3497    0.2656 H         1 <0>         0.1424
     36 H12        -4.5091    1.8013   -0.1930 H         1 <0>         0.1398
     37 H13        -6.7653    0.8825   -0.3004 H         1 <0>         0.1376
     38 H14        -7.1360   -1.5453   -0.3329 H         1 <0>         0.1351
     39 H15        -5.2533   -3.0966   -0.2568 H         1 <0>         0.1276
     40 H16        -3.6799   -4.1486   -0.1928 H         1 <0>         0.4175
     41 H17        -0.9760   -4.4200   -0.9624 H         1 <0>         0.0823
     42 H18        -1.0570   -4.4316    0.8157 H         1 <0>         0.0795
     43 H19        -2.1784   -6.2292    1.9967 H         1 <0>         0.1230
     44 H20        -2.8986   -8.5835    1.9486 H         1 <0>         0.1274
     45 H21        -3.1568   -9.7481   -0.2055 H         1 <0>         0.1276
     46 H22        -2.7041   -8.5558   -2.3118 H         1 <0>         0.1278
     47 H23        -1.9941   -6.1985   -2.2641 H         1 <0>         0.1241
     48 N5          2.1235    1.4799    1.1931 N.4       1 <0>        -0.4016
     49 H24         1.6199    1.7848    2.0344 H         1 <0>         0.4276
@<TRIPOS>BOND
     1    1   25 1
     2    1   26 1
     3    1   27 1
     4    1   48 1
     5    2    3 1
     6    2   28 1
     7    2   29 1
     8    2   48 1
     9    3    4 1
    10    3   30 1
    11    3   31 1
    12    4    5 1
    13    4    7 1
    14    5    6 1
    15    5   32 1
    16    5   33 1
    17    6   34 1
    18    6   35 1
    19    6   48 1
    20    7   16 ar
    21    7    8 ar
    22    8    9 ar
    23    9   14 ar
    24    9   10 ar
    25   10   11 ar
    26   10   36 1
    27   11   12 ar
    28   11   37 1
    29   12   13 ar
    30   12   38 1
    31   13   14 ar
    32   13   39 1
    33   14   15 ar
    34   15   16 ar
    35   15   17 1
    36   17   18 1
    37   17   40 1
    38   18   19 1
    39   18   41 1
    40   18   42 1
    41   19   24 ar
    42   19   20 ar
    43   20   21 ar
    44   20   43 1
    45   21   22 ar
    46   21   44 1
    47   22   23 ar
    48   22   45 1
    49   23   24 ar
    50   23   46 1
    51   24   47 1
    52   48   49 1
@<TRIPOS>MOLECULE
ZINC22013479
   21    21     0     0     0
SMALL
USER_CHARGES

@<TRIPOS>ATOM
      1 C1         -0.0187    1.5258    0.0104 C.3       1 <0>        -0.1856
      2 C2          0.0021   -0.0041    0.0020 C.3       1 <0>         0.0382
      3 H1          0.5123   -0.3556   -0.8948 H         1 <0>         0.1368
      4 C3          0.7421   -0.5109    1.2415 C.3       1 <0>        -0.0506
      5 C4          0.8700   -2.0108    1.1719 C.2       1 <0>        -0.0485
      6 C5          2.0163   -2.7122    1.2589 C.2       1 <0>        -0.0143
      7 N1          1.6808   -4.0347    1.1490 N.pl3     1 <0>        -0.5589
      8 H2          2.2919   -4.7876    1.1744 H         1 <0>         0.4342
      9 C6          0.3401   -4.0955    0.9986 C.2       1 <0>         0.2206
     10 N2         -0.1386   -2.8816    1.0183 N.2       1 <0>        -0.5338
     11 N3         -1.3761   -0.5125    0.0124 N.4       1 <0>        -0.6354
     12 H3          1.0039    1.9031    0.0027 H         1 <0>         0.1058
     13 H4         -0.5459    1.8868   -0.8726 H         1 <0>         0.0833
     14 H5         -0.5289    1.8773    0.9072 H         1 <0>         0.0829
     15 H6          1.7350   -0.0630    1.2804 H         1 <0>         0.1218
     16 H7          0.1838   -0.2350    2.1361 H         1 <0>         0.0992
     17 H8          3.0096   -2.3087    1.3898 H         1 <0>         0.1851
     18 H9         -0.2402   -4.9992    0.8850 H         1 <0>         0.2188
     19 H10        -1.8641   -0.1783   -0.8050 H         1 <0>         0.4291
     20 H11        -1.3624   -1.5214    0.0069 H         1 <0>         0.4418
     21 H12        -1.8484   -0.1871    0.8426 H         1 <0>         0.4294
@<TRIPOS>BOND
     1    1    2 1
     2    1   12 1
     3    1   13 1
     4    1   14 1
     5    2    3 1
     6    2    4 1
     7    2   11 1
     8    4    5 1
     9    4   15 1
    10    4   16 1
    11    5   10 1
    12    5    6 2
    13    6    7 1
    14    6   17 1
    15    7    8 1
    16    7    9 1
    17    9   10 2
    18    9   18 1
    19   11   19 1
    20   11   20 1
    21   11   21 1
@<TRIPOS>MOLECULE
ZINC13831220
   23    22     0     0     0
SMALL
USER_CHARGES

@<TRIPOS>ATOM
      1 C1         -0.0187    1.5258    0.0104 C.3       1 <0>         0.1132
      2 C2          0.0021   -0.0041    0.0020 C.3       1 <0>        -0.1701
      3 S1         -1.6997   -0.6320    0.0149 S.3       1 <0>         0.1000
      4 C3         -1.5080   -2.3834    0.0037 C.cat     1 <0>         0.4878
      5 N1         -2.4237   -3.1579    0.5855 N.pl3     1 <0>        -0.7240
      6 N2         -0.4472   -2.9340   -0.5867 N.pl3     1 <0>        -0.7614
      7 N3          1.3557    2.0329    0.0000 N.pl3     1 <0>        -0.7019
      8 C4          1.5874    3.3810    0.0051 C.cat     1 <0>         0.7516
      9 N4          2.8370    3.8420   -0.0044 N.pl3     1 <0>        -0.7839
     10 N5          0.5634    4.2326    0.0194 N.pl3     1 <0>        -0.7880
     11 H1         -0.5459    1.8868   -0.8726 H         1 <0>         0.1123
     12 H2         -0.5289    1.8773    0.9072 H         1 <0>         0.1130
     13 H3          0.5123   -0.3556   -0.8948 H         1 <0>         0.1252
     14 H4          0.5293   -0.3651    0.8851 H         1 <0>         0.1342
     15 H5         -3.1956   -2.7573    1.0150 H         1 <0>         0.4547
     16 H6          0.2192   -2.3704   -1.0100 H         1 <0>         0.4414
     17 H7         -0.3416   -3.8982   -0.5929 H         1 <0>         0.4384
     18 H8          2.1015    1.4126   -0.0104 H         1 <0>         0.4389
     19 H9          3.5827    3.2217   -0.0148 H         1 <0>         0.4439
     20 H10        -0.3466    3.8969    0.0263 H         1 <0>         0.4395
     21 H11         0.7277    5.1886    0.0230 H         1 <0>         0.4472
     22 H12         3.0013    4.7980   -0.0008 H         1 <0>         0.4475
     23 H13        -2.3181   -4.1222    0.5793 H         1 <0>         0.4405
@<TRIPOS>BOND
     1    1    2 1
     2    1    7 1
     3    1   11 1
     4    1   12 1
     5    2    3 1
     6    2   13 1
     7    2   14 1
     8    3    4 1
     9    4    5 2
    10    4    6 1
    11    5   15 1
    12    5   23 1
    13    6   16 1
    14    6   17 1
    15    7    8 1
    16    7   18 1
    17    8    9 2
    18    8   10 1
    19    9   19 1
    20    9   22 1
    21   10   20 1
    22   10   21 1
@<TRIPOS>MOLECULE
ZINC13831238
   31    31     0     0     0
SMALL
USER_CHARGES

@<TRIPOS>ATOM
      1 C1         -0.0178    1.4608    0.0101 C.3       1 <0>         0.0880
      2 N1          0.0021   -0.0041    0.0020 N.pl3     1 <0>        -0.6850
      3 C2          0.5851   -0.6645   -1.0180 C.2       1 <0>         0.5561
      4 N2          0.6034   -2.0121   -1.0254 N.pl3     1 <0>        -0.6925
      5 C3          1.2371   -2.7300   -2.1341 C.3       1 <0>         0.1248
      6 C4          1.1200   -4.2373   -1.8990 C.3       1 <0>        -0.1364
      7 C5          1.7819   -4.9870   -3.0569 C.3       1 <0>        -0.1147
      8 C6          1.6648   -6.4943   -2.8217 C.3       1 <0>        -0.0636
      9 C7          2.3167   -7.2328   -3.9622 C.2       1 <0>         0.0641
     10 C8          3.6239   -7.5342   -4.0806 C.2       1 <0>         0.0021
     11 N3          3.7945   -8.1943   -5.2357 N.pl3     1 <0>        -0.4725
     12 H1          0.7462   -7.6746   -5.2769 H         1 <0>         0.4652
     13 C9          2.6427   -8.3133   -5.8376 C.cat     1 <0>         0.3051
     14 N4          1.6930   -7.7313   -5.0741 N.pl3     1 <0>        -0.5112
     15 S1          1.3024    0.2084   -2.3042 S.2       1 <0>        -0.6329
     16 H2          1.0048    1.8381    0.0023 H         1 <0>         0.0823
     17 H3         -0.5450    1.8219   -0.8730 H         1 <0>         0.0821
     18 H4         -0.5280    1.8123    0.9069 H         1 <0>         0.0847
     19 H5          0.1969   -2.5067   -0.2966 H         1 <0>         0.3972
     20 H6          0.7396   -2.4683   -3.0680 H         1 <0>         0.0872
     21 H7          2.2894   -2.4521   -2.1927 H         1 <0>         0.0886
     22 H8          1.6175   -4.4990   -0.9651 H         1 <0>         0.0780
     23 H9          0.0677   -4.5152   -1.8404 H         1 <0>         0.0755
     24 H10         1.2844   -4.7253   -3.9908 H         1 <0>         0.0752
     25 H11         2.8342   -4.7091   -3.1154 H         1 <0>         0.0821
     26 H12         2.1622   -6.7561   -1.8878 H         1 <0>         0.1147
     27 H13         0.6125   -6.7723   -2.7631 H         1 <0>         0.0982
     28 H14         4.3989   -7.2877   -3.3701 H         1 <0>         0.2243
     29 H15         2.4761   -8.7998   -6.7873 H         1 <0>         0.2663
     30 H16        -0.4044   -0.4986    0.7308 H         1 <0>         0.3994
     31 H17         4.6405   -8.5301   -5.5708 H         1 <0>         0.4677
@<TRIPOS>BOND
     1    1    2 1
     2    1   16 1
     3    1   17 1
     4    1   18 1
     5    2    3 1
     6    2   30 1
     7    3    4 1
     8    3   15 2
     9    4    5 1
    10    4   19 1
    11    5    6 1
    12    5   20 1
    13    5   21 1
    14    6    7 1
    15    6   22 1
    16    6   23 1
    17    7    8 1
    18    7   24 1
    19    7   25 1
    20    8   26 1
    21    8   27 1
    22    8    9 1
    23    9   10 2
    24    9   14 1
    25   10   11 1
    26   10   28 1
    27   11   13 2
    28   11   31 1
    29   12   14 1
    30   13   29 1
    31   13   14 1
@<TRIPOS>MOLECULE
ZINC13831238
   30    30     0     0     0
SMALL
USER_CHARGES

@<TRIPOS>ATOM
      1 C1         -0.0178    1.4608    0.0101 C.3       1 <0>         0.0914
      2 N1          0.0021   -0.0041    0.0020 N.pl3     1 <0>        -0.6911
      3 C2         -1.1558   -0.6938    0.0094 C.2       1 <0>         0.5569
      4 S1         -2.6499    0.1420    0.0281 S.2       1 <0>        -0.6390
      5 N2         -1.1375   -2.0414    0.0020 N.pl3     1 <0>        -0.6855
      6 C3         -2.3962   -2.7911    0.0099 C.3       1 <0>         0.1231
      7 C4         -2.0962   -4.2913   -0.0010 C.3       1 <0>        -0.1335
      8 C5         -3.4107   -5.0743    0.0074 C.3       1 <0>        -0.1058
      9 C6         -3.1108   -6.5746   -0.0035 C.3       1 <0>        -0.0320
     10 C7         -4.4055   -7.3458    0.0047 C.2       1 <0>         0.0019
     11 C8         -4.7718   -8.2867   -0.8864 C.2       1 <0>        -0.0565
     12 N3         -6.0115   -8.7278   -0.5095 N.pl3     1 <0>        -0.5712
     13 C9         -6.3599   -8.0406    0.5996 C.2       1 <0>         0.1860
     14 N4         -5.3924   -7.2194    0.9041 N.2       1 <0>        -0.4883
     15 H1          1.0048    1.8381    0.0023 H         1 <0>         0.0808
     16 H2         -0.5450    1.8219   -0.8730 H         1 <0>         0.0796
     17 H3         -0.5280    1.8123    0.9069 H         1 <0>         0.0798
     18 H4          0.8486   -0.4776   -0.0086 H         1 <0>         0.3978
     19 H5         -0.2910   -2.5149   -0.0087 H         1 <0>         0.3964
     20 H6         -2.9627   -2.5403    0.9067 H         1 <0>         0.0888
     21 H7         -2.9797   -2.5308   -0.8731 H         1 <0>         0.0874
     22 H8         -1.5297   -4.5421   -0.8978 H         1 <0>         0.0685
     23 H9         -1.5127   -4.5516    0.8821 H         1 <0>         0.0701
     24 H10        -3.9773   -4.8236    0.9042 H         1 <0>         0.0771
     25 H11        -3.9943   -4.8140   -0.8757 H         1 <0>         0.0661
     26 H12        -2.5442   -6.8253   -0.9003 H         1 <0>         0.0732
     27 H13        -2.5272   -6.8349    0.8795 H         1 <0>         0.0740
     28 H14        -4.1978   -8.6275   -1.7354 H         1 <0>         0.1749
     29 H15        -7.2843   -8.1546    1.1463 H         1 <0>         0.2081
     30 H16        -6.5410   -9.4072   -0.9557 H         1 <0>         0.4209
@<TRIPOS>BOND
     1    1    2 1
     2    1   15 1
     3    1   16 1
     4    1   17 1
     5    2    3 1
     6    2   18 1
     7    3    4 2
     8    3    5 1
     9    5    6 1
    10    5   19 1
    11    6    7 1
    12    6   20 1
    13    6   21 1
    14    7    8 1
    15    7   22 1
    16    7   23 1
    17    8    9 1
    18    8   24 1
    19    8   25 1
    20    9   10 1
    21    9   26 1
    22    9   27 1
    23   10   14 1
    24   10   11 2
    25   11   12 1
    26   11   28 1
    27   12   13 1
    28   12   30 1
    29   13   14 2
    30   13   29 1
@<TRIPOS>MOLECULE
ZINC13831238
   30    30     0     0     0
SMALL
USER_CHARGES

@<TRIPOS>ATOM
      1 C1         -0.0178    1.4608    0.0101 C.3       1 <0>         0.0908
      2 N1          0.0021   -0.0041    0.0020 N.pl3     1 <0>        -0.6900
      3 C2          0.6044   -0.6754    1.0035 C.2       1 <0>         0.5566
      4 S1          1.3462    0.1837    2.2852 S.2       1 <0>        -0.6371
      5 N2          0.6227   -2.0230    0.9961 N.pl3     1 <0>        -0.6868
      6 C3          1.2774   -2.7527    2.0848 C.3       1 <0>         0.1231
      7 C4          1.1557   -4.2573    1.8357 C.3       1 <0>        -0.1337
      8 C5          1.8394   -5.0194    2.9727 C.3       1 <0>        -0.1106
      9 C6          1.7177   -6.5241    2.7236 C.3       1 <0>        -0.0419
     10 C7          2.3912   -7.2747    3.8435 C.2       1 <0>        -0.0262
     11 C8          3.7013   -7.5722    3.9365 C.2       1 <0>        -0.0217
     12 N3          3.8937   -8.2459    5.0802 N.2       1 <0>        -0.4935
     13 C9          2.7525   -8.3772    5.6995 C.2       1 <0>         0.1842
     14 N4          1.7898   -7.7800    4.9645 N.pl3     1 <0>        -0.5680
     15 H1          1.0048    1.8381    0.0023 H         1 <0>         0.0803
     16 H2         -0.5450    1.8219   -0.8730 H         1 <0>         0.0815
     17 H3         -0.5280    1.8123    0.9069 H         1 <0>         0.0801
     18 H4         -0.4183   -0.4908   -0.7241 H         1 <0>         0.3981
     19 H5          0.2023   -2.5097    0.2700 H         1 <0>         0.3966
     20 H6          2.3307   -2.4753    2.1262 H         1 <0>         0.0893
     21 H7          0.7979   -2.5010    3.0308 H         1 <0>         0.0874
     22 H8          0.1024   -4.5348    1.7943 H         1 <0>         0.0696
     23 H9          1.6352   -4.5090    0.8898 H         1 <0>         0.0730
     24 H10         2.8927   -4.7420    3.0141 H         1 <0>         0.0766
     25 H11         1.3599   -4.7678    3.9186 H         1 <0>         0.0676
     26 H12         0.6645   -6.8015    2.6822 H         1 <0>         0.0702
     27 H13         2.1972   -6.7757    1.7776 H         1 <0>         0.0889
     28 H14         4.4635   -7.3136    3.2163 H         1 <0>         0.1686
     29 H15         2.6034   -8.8772    6.6451 H         1 <0>         0.2083
     30 H16         0.8478   -7.7218    5.1881 H         1 <0>         0.4188
@<TRIPOS>BOND
     1    1    2 1
     2    1   15 1
     3    1   16 1
     4    1   17 1
     5    2    3 1
     6    2   18 1
     7    3    4 2
     8    3    5 1
     9    5    6 1
    10    5   19 1
    11    6    7 1
    12    6   20 1
    13    6   21 1
    14    7    8 1
    15    7   22 1
    16    7   23 1
    17    8    9 1
    18    8   24 1
    19    8   25 1
    20    9   10 1
    21    9   26 1
    22    9   27 1
    23   10   14 1
    24   10   11 2
    25   11   12 1
    26   11   28 1
    27   12   13 2
    28   13   14 1
    29   13   29 1
    30   14   30 1
@<TRIPOS>MOLECULE
ZINC19802119
   27    26     0     0     0
SMALL
USER_CHARGES

@<TRIPOS>ATOM
      1 C1         -0.0178    1.4648    0.0101 C.3       1 <0>        -0.0566
      2 N1          0.0021   -0.0041    0.0020 N.4       1 <0>        -0.3871
      3 C2          0.6897   -0.4778   -1.2066 C.3       1 <0>        -0.0495
      4 C3          0.7126   -0.4907    1.1921 C.3       1 <0>        -0.0041
      5 C4         -0.0711   -0.1034    2.4478 C.3       1 <0>        -0.1411
      6 C5          0.6689   -0.6103    3.6874 C.3       1 <0>        -0.1436
      7 S1         -0.2602   -0.1511    5.1762 S.3       1 <0>         0.0744
      8 C6          0.7081   -0.7969    6.4990 C.cat     1 <0>         0.4880
      9 N2          0.7016   -0.1920    7.6868 N.pl3     1 <0>        -0.7266
     10 N3          1.4471   -1.8904    6.3120 N.pl3     1 <0>        -0.7624
     11 H1          1.0047    1.8421    0.0024 H         1 <0>         0.1262
     12 H2         -0.5450    1.8259   -0.8730 H         1 <0>         0.1318
     13 H3         -0.5280    1.8163    0.9069 H         1 <0>         0.1231
     14 H4          1.7123   -0.1005   -1.2143 H         1 <0>         0.1253
     15 H5          0.7044   -1.5677   -1.2126 H         1 <0>         0.1267
     16 H6          0.1625   -0.1167   -2.0897 H         1 <0>         0.1313
     17 H7          0.8051   -1.5756    1.1418 H         1 <0>         0.1385
     18 H8          1.7055   -0.0428    1.2310 H         1 <0>         0.1376
     19 H9         -0.1636    0.9815    2.4982 H         1 <0>         0.1105
     20 H10        -1.0640   -0.5514    2.4090 H         1 <0>         0.1099
     21 H11         0.7614   -1.6952    3.6370 H         1 <0>         0.1184
     22 H12         1.6619   -0.1623    3.7262 H         1 <0>         0.1270
     23 H13         0.1639    0.6037    7.8229 H         1 <0>         0.4540
     24 H14         1.4518   -2.3306    5.4476 H         1 <0>         0.4413
     25 H15         1.9802   -2.2460    7.0402 H         1 <0>         0.4373
     26 H16        -0.9445   -0.3533    0.0092 H         1 <0>         0.4304
     27 H17         1.2347   -0.5475    8.4151 H         1 <0>         0.4392
@<TRIPOS>BOND
     1    1    2 1
     2    1   11 1
     3    1   12 1
     4    1   13 1
     5    2    3 1
     6    2    4 1
     7    2   26 1
     8    3   14 1
     9    3   15 1
    10    3   16 1
    11    4    5 1
    12    4   17 1
    13    4   18 1
    14    5    6 1
    15    5   19 1
    16    5   20 1
    17    6    7 1
    18    6   21 1
    19    6   22 1
    20    7    8 1
    21    8    9 2
    22    8   10 1
    23    9   23 1
    24    9   27 1
    25   10   24 1
    26   10   25 1
@<TRIPOS>MOLECULE
ZINC14979644
   42    43     0     0     0
SMALL
USER_CHARGES

@<TRIPOS>ATOM
      1 C1         -0.0167    1.3782    0.0096 C.ar      1 <0>        -0.1063
      2 C2          1.1708    2.0857    0.0021 C.ar      1 <0>        -0.0803
      3 C3          2.3776    1.4106   -0.0131 C.ar      1 <0>        -0.0912
      4 C4          2.3961    0.0278   -0.0207 C.ar      1 <0>        -0.0802
      5 C5          1.2083   -0.6792   -0.0132 C.ar      1 <0>        -0.1062
      6 C6          0.0021   -0.0041    0.0020 C.ar      1 <0>        -0.0899
      7 C7         -1.2927   -0.7751    0.0108 C.3       1 <0>        -0.0887
      8 C8         -1.7452   -1.0283   -1.4287 C.3       1 <0>         0.0794
      9 N1         -3.0039   -1.7779   -1.4202 N.pl3     1 <0>        -0.6378
     10 C9         -3.6068   -2.1234   -2.6075 C.cat     1 <0>         0.4714
     11 N2         -3.0577   -1.7837   -3.7407 N.pl3     1 <0>        -0.7509
     12 S1         -5.1206   -3.0249   -2.5973 S.3       1 <0>         0.0775
     13 C10        -5.5152   -3.2400   -4.3547 C.3       1 <0>        -0.1537
     14 C11        -6.8252   -4.0185   -4.4917 C.3       1 <0>        -0.1082
     15 C12        -7.1580   -4.1999   -5.9740 C.3       1 <0>        -0.0541
     16 C13        -8.4483   -4.9666   -6.1090 C.2       1 <0>         0.0185
     17 C14        -8.5781   -6.3069   -6.0900 C.2       1 <0>         0.0443
     18 N3         -9.9112   -6.5779   -6.2420 N.pl3     1 <0>        -0.5083
     19 H1        -10.3205   -7.4569   -6.2682 H         1 <0>         0.4717
     20 C15       -10.5501   -5.3929   -6.3488 C.cat     1 <0>         0.3188
     21 N4         -9.6694   -4.4336   -6.2633 N.pl3     1 <0>        -0.4762
     22 I1          4.1776    2.4824   -0.0252 I         1 <0>        -0.0203
     23 H2         -0.9592    1.9053    0.0260 H         1 <0>         0.1322
     24 H3          1.1560    3.1655    0.0077 H         1 <0>         0.1360
     25 H4          3.3384   -0.4997   -0.0329 H         1 <0>         0.1361
     26 H5          1.2227   -1.7591   -0.0191 H         1 <0>         0.1323
     27 H6         -1.1445   -1.7284    0.5180 H         1 <0>         0.0962
     28 H7         -2.0551   -0.1991    0.5353 H         1 <0>         0.0961
     29 H8         -1.8935   -0.0750   -1.9360 H         1 <0>         0.1019
     30 H9         -0.9829   -1.6043   -1.9532 H         1 <0>         0.1021
     31 H10        -3.4123   -2.0305   -0.5774 H         1 <0>         0.4451
     32 H11        -3.4828   -2.0273   -4.5779 H         1 <0>         0.4395
     33 H12        -5.6224   -2.2627   -4.8253 H         1 <0>         0.1189
     34 H13        -4.7118   -3.7920   -4.8425 H         1 <0>         0.1213
     35 H14        -6.7180   -4.9958   -4.0212 H         1 <0>         0.0983
     36 H15        -7.6286   -3.4665   -4.0039 H         1 <0>         0.0914
     37 H16        -7.2652   -3.2225   -6.4446 H         1 <0>         0.1044
     38 H17        -6.3546   -4.7519   -6.4619 H         1 <0>         0.1202
     39 H18        -7.7832   -7.0292   -5.9769 H         1 <0>         0.2278
     40 H19       -11.6140   -5.2609   -6.4791 H         1 <0>         0.2698
     41 H20        -2.2243   -1.2874   -3.7464 H         1 <0>         0.4352
     42 H21        -9.8666   -3.4849   -6.3065 H         1 <0>         0.4658
@<TRIPOS>BOND
     1    1    6 ar
     2    1    2 ar
     3    1   23 1
     4    2    3 ar
     5    2   24 1
     6    3    4 ar
     7    3   22 1
     8    4    5 ar
     9    4   25 1
    10    5    6 ar
    11    5   26 1
    12    6    7 1
    13    7    8 1
    14    7   27 1
    15    7   28 1
    16    8    9 1
    17    8   29 1
    18    8   30 1
    19    9   10 1
    20    9   31 1
    21   10   11 2
    22   10   12 1
    23   11   32 1
    24   11   41 1
    25   12   13 1
    26   13   14 1
    27   13   33 1
    28   13   34 1
    29   14   15 1
    30   14   35 1
    31   14   36 1
    32   15   16 1
    33   15   37 1
    34   15   38 1
    35   16   21 1
    36   16   17 2
    37   17   18 1
    38   17   39 1
    39   18   19 1
    40   18   20 1
    41   20   21 2
    42   20   40 1
    43   21   42 1
@<TRIPOS>MOLECULE
ZINC14979644
   42    43     0     0     0
SMALL
USER_CHARGES

@<TRIPOS>ATOM
      1 C1         -0.0167    1.3782    0.0096 C.ar      1 <0>        -0.1051
      2 C2          1.1708    2.0857    0.0021 C.ar      1 <0>        -0.0803
      3 C3          2.3776    1.4106   -0.0131 C.ar      1 <0>        -0.0910
      4 C4          2.3961    0.0278   -0.0207 C.ar      1 <0>        -0.0805
      5 C5          1.2083   -0.6792   -0.0132 C.ar      1 <0>        -0.1052
      6 C6          0.0021   -0.0041    0.0020 C.ar      1 <0>        -0.0890
      7 C7         -1.2927   -0.7751    0.0108 C.3       1 <0>        -0.0920
      8 C8         -1.7452   -1.0283   -1.4287 C.3       1 <0>         0.0774
      9 N1         -3.0039   -1.7779   -1.4202 N.pl3     1 <0>        -0.5950
     10 C9         -3.5755   -2.1055   -2.5459 C.cat     1 <0>         0.4633
     11 N2         -4.7574   -2.8093   -2.5379 N.pl3     1 <0>        -0.8003
     12 S1         -2.8337   -1.6465   -4.0768 S.3       1 <0>         0.0871
     13 C10        -3.9674   -2.3074   -5.3293 C.3       1 <0>        -0.1559
     14 C11        -3.4355   -1.9749   -6.7248 C.3       1 <0>        -0.1085
     15 C12        -4.3917   -2.5323   -7.7812 C.3       1 <0>        -0.0543
     16 C13        -3.8678   -2.2049   -9.1557 C.2       1 <0>         0.0189
     17 C14        -4.0685   -1.0540   -9.8257 C.2       1 <0>         0.0439
     18 N3         -3.4221   -1.1766  -11.0260 N.pl3     1 <0>        -0.5083
     19 C15        -2.8484   -2.3990  -11.0477 C.cat     1 <0>         0.3183
     20 N4         -3.1150   -3.0063   -9.9239 N.pl3     1 <0>        -0.4762
     21 H1         -3.3832   -0.5100  -11.7295 H         1 <0>         0.4716
     22 I1          4.1776    2.4824   -0.0252 I         1 <0>        -0.0211
     23 H2         -0.9592    1.9053    0.0260 H         1 <0>         0.1330
     24 H3          1.1560    3.1655    0.0077 H         1 <0>         0.1362
     25 H4          3.3384   -0.4997   -0.0329 H         1 <0>         0.1361
     26 H5          1.2227   -1.7591   -0.0191 H         1 <0>         0.1327
     27 H6         -1.1445   -1.7284    0.5180 H         1 <0>         0.0965
     28 H7         -2.0551   -0.1991    0.5353 H         1 <0>         0.0967
     29 H8         -1.8935   -0.0750   -1.9360 H         1 <0>         0.1167
     30 H9         -0.9829   -1.6043   -1.9532 H         1 <0>         0.1163
     31 H10        -5.1658   -3.0620   -1.6951 H         1 <0>         0.4324
     32 H11        -5.1825   -3.0529   -3.3751 H         1 <0>         0.4356
     33 H12        -4.0422   -3.3890   -5.2171 H         1 <0>         0.1185
     34 H13        -4.9528   -1.8597   -5.1998 H         1 <0>         0.1209
     35 H14        -3.3607   -0.8933   -6.8370 H         1 <0>         0.0973
     36 H15        -2.4502   -2.4226   -6.8542 H         1 <0>         0.0904
     37 H16        -4.4665   -3.6140   -7.6690 H         1 <0>         0.1042
     38 H17        -5.3771   -2.0847   -7.6517 H         1 <0>         0.1201
     39 H18        -4.6316   -0.1989   -9.4821 H         1 <0>         0.2277
     40 H19        -2.2626   -2.8050  -11.8591 H         1 <0>         0.2697
     41 H20        -3.4123   -2.0305   -0.5774 H         1 <0>         0.4352
     42 H21        -2.8174   -3.8975   -9.6828 H         1 <0>         0.4658
@<TRIPOS>BOND
     1    1    6 ar
     2    1    2 ar
     3    1   23 1
     4    2    3 ar
     5    2   24 1
     6    3    4 ar
     7    3   22 1
     8    4    5 ar
     9    4   25 1
    10    5    6 ar
    11    5   26 1
    12    6    7 1
    13    7    8 1
    14    7   27 1
    15    7   28 1
    16    8    9 1
    17    8   29 1
    18    8   30 1
    19    9   10 2
    20    9   41 1
    21   10   11 1
    22   10   12 1
    23   11   31 1
    24   11   32 1
    25   12   13 1
    26   13   14 1
    27   13   33 1
    28   13   34 1
    29   14   15 1
    30   14   35 1
    31   14   36 1
    32   15   37 1
    33   15   38 1
    34   15   16 1
    35   16   20 1
    36   16   17 2
    37   17   39 1
    38   17   18 1
    39   18   19 1
    40   18   21 1
    41   19   40 1
    42   19   20 2
    43   20   42 1
@<TRIPOS>MOLECULE
ZINC14979644
   41    42     0     0     0
SMALL
USER_CHARGES

@<TRIPOS>ATOM
      1 C1         -0.0167    1.3782    0.0096 C.ar      1 <0>        -0.1064
      2 C2          1.1708    2.0857    0.0021 C.ar      1 <0>        -0.0808
      3 C3          2.3776    1.4106   -0.0131 C.ar      1 <0>        -0.0925
      4 C4          2.3961    0.0278   -0.0207 C.ar      1 <0>        -0.0807
      5 C5          1.2083   -0.6792   -0.0132 C.ar      1 <0>        -0.1062
      6 C6          0.0021   -0.0041    0.0020 C.ar      1 <0>        -0.0858
      7 C7         -1.2927   -0.7751    0.0108 C.3       1 <0>        -0.0896
      8 C8         -1.7452   -1.0283   -1.4287 C.3       1 <0>         0.0818
      9 N1         -3.0039   -1.7779   -1.4202 N.pl3     1 <0>        -0.6452
     10 C9         -3.6068   -2.1234   -2.6075 C.cat     1 <0>         0.4698
     11 N2         -3.0577   -1.7837   -3.7407 N.pl3     1 <0>        -0.7520
     12 S1         -5.1206   -3.0249   -2.5973 S.3       1 <0>         0.0767
     13 C10        -5.5152   -3.2400   -4.3547 C.3       1 <0>        -0.1458
     14 C11        -6.8252   -4.0185   -4.4917 C.3       1 <0>        -0.1041
     15 C12        -7.1580   -4.1999   -5.9740 C.3       1 <0>        -0.0309
     16 C13        -8.4483   -4.9666   -6.1090 C.2       1 <0>        -0.0454
     17 C14        -8.5921   -6.3055   -6.0917 C.2       1 <0>        -0.0088
     18 N3         -9.8954   -6.5848   -6.2408 N.2       1 <0>        -0.4916
     19 C15       -10.5648   -5.4699   -6.3499 C.2       1 <0>         0.1987
     20 N4         -9.7001   -4.4359   -6.2669 N.pl3     1 <0>        -0.5675
     21 I1          4.1776    2.4824   -0.0252 I         1 <0>        -0.0248
     22 H1         -0.9592    1.9053    0.0260 H         1 <0>         0.1326
     23 H2          1.1560    3.1655    0.0077 H         1 <0>         0.1351
     24 H3          3.3384   -0.4997   -0.0329 H         1 <0>         0.1353
     25 H4          1.2227   -1.7591   -0.0191 H         1 <0>         0.1329
     26 H5         -1.1445   -1.7284    0.5180 H         1 <0>         0.0960
     27 H6         -2.0551   -0.1991    0.5353 H         1 <0>         0.0958
     28 H7         -1.8935   -0.0750   -1.9360 H         1 <0>         0.0989
     29 H8         -0.9829   -1.6043   -1.9532 H         1 <0>         0.0992
     30 H9         -3.4123   -2.0305   -0.5774 H         1 <0>         0.4440
     31 H10        -3.4828   -2.0273   -4.5779 H         1 <0>         0.4412
     32 H11        -5.6224   -2.2627   -4.8253 H         1 <0>         0.1148
     33 H12        -4.7118   -3.7920   -4.8425 H         1 <0>         0.1179
     34 H13        -6.7180   -4.9958   -4.0212 H         1 <0>         0.0939
     35 H14        -7.6286   -3.4665   -4.0039 H         1 <0>         0.0851
     36 H15        -7.2652   -3.2225   -6.4446 H         1 <0>         0.0782
     37 H16        -6.3546   -4.7519   -6.4619 H         1 <0>         0.0962
     38 H17        -7.7972   -7.0277   -5.9777 H         1 <0>         0.1700
     39 H18       -11.6337   -5.3877   -6.4809 H         1 <0>         0.2123
     40 H19        -2.2243   -1.2874   -3.7464 H         1 <0>         0.4315
     41 H20        -9.9241   -3.4932   -6.3127 H         1 <0>         0.4201
@<TRIPOS>BOND
     1    1    6 ar
     2    1    2 ar
     3    1   22 1
     4    2    3 ar
     5    2   23 1
     6    3    4 ar
     7    3   21 1
     8    4    5 ar
     9    4   24 1
    10    5    6 ar
    11    5   25 1
    12    6    7 1
    13    7    8 1
    14    7   26 1
    15    7   27 1
    16    8    9 1
    17    8   28 1
    18    8   29 1
    19    9   10 1
    20    9   30 1
    21   10   11 2
    22   10   12 1
    23   11   31 1
    24   11   40 1
    25   12   13 1
    26   13   14 1
    27   13   32 1
    28   13   33 1
    29   14   15 1
    30   14   34 1
    31   14   35 1
    32   15   16 1
    33   15   36 1
    34   15   37 1
    35   16   20 1
    36   16   17 2
    37   17   18 1
    38   17   38 1
    39   18   19 2
    40   19   20 1
    41   19   39 1
    42   20   41 1
@<TRIPOS>MOLECULE
ZINC14979644
   41    42     0     0     0
SMALL
USER_CHARGES

@<TRIPOS>ATOM
      1 C1         -0.0167    1.3782    0.0096 C.ar      1 <0>        -0.1048
      2 C2          1.1708    2.0857    0.0021 C.ar      1 <0>        -0.0806
      3 C3          2.3776    1.4106   -0.0131 C.ar      1 <0>        -0.0918
      4 C4          2.3961    0.0278   -0.0207 C.ar      1 <0>        -0.0808
      5 C5          1.2083   -0.6792   -0.0132 C.ar      1 <0>        -0.1050
      6 C6          0.0021   -0.0041    0.0020 C.ar      1 <0>        -0.0855
      7 C7         -1.2927   -0.7751    0.0108 C.3       1 <0>        -0.0912
      8 C8         -1.7452   -1.0283   -1.4287 C.3       1 <0>         0.0794
      9 N1         -3.0039   -1.7779   -1.4202 N.pl3     1 <0>        -0.6032
     10 C9         -3.5755   -2.1055   -2.5459 C.cat     1 <0>         0.4601
     11 N2         -4.7574   -2.8093   -2.5379 N.pl3     1 <0>        -0.8017
     12 S1         -2.8337   -1.6465   -4.0768 S.3       1 <0>         0.0848
     13 C10        -3.9674   -2.3074   -5.3293 C.3       1 <0>        -0.1457
     14 C11        -3.4355   -1.9749   -6.7248 C.3       1 <0>        -0.0993
     15 C12        -4.3917   -2.5323   -7.7812 C.3       1 <0>        -0.0209
     16 C13        -3.8678   -2.2049   -9.1557 C.2       1 <0>        -0.0131
     17 C14        -3.6323   -3.0887  -10.1441 C.2       1 <0>        -0.0445
     18 N3         -3.1673   -2.3721  -11.2137 N.pl3     1 <0>        -0.5673
     19 C15        -3.1348   -1.0745  -10.8413 C.2       1 <0>         0.1943
     20 N4         -3.5599   -0.9814   -9.6110 N.2       1 <0>        -0.4918
     21 H1         -2.9092   -2.7297  -12.0777 H         1 <0>         0.4255
     22 I1          4.1776    2.4824   -0.0252 I         1 <0>        -0.0260
     23 H2         -0.9592    1.9053    0.0260 H         1 <0>         0.1333
     24 H3          1.1560    3.1655    0.0077 H         1 <0>         0.1353
     25 H4          3.3384   -0.4997   -0.0329 H         1 <0>         0.1351
     26 H5          1.2227   -1.7591   -0.0191 H         1 <0>         0.1330
     27 H6         -1.1445   -1.7284    0.5180 H         1 <0>         0.0947
     28 H7         -2.0551   -0.1991    0.5353 H         1 <0>         0.0949
     29 H8         -1.8935   -0.0750   -1.9360 H         1 <0>         0.1155
     30 H9         -0.9829   -1.6043   -1.9532 H         1 <0>         0.1151
     31 H10        -5.1658   -3.0620   -1.6951 H         1 <0>         0.4279
     32 H11        -5.1825   -3.0529   -3.3751 H         1 <0>         0.4375
     33 H12        -4.0422   -3.3890   -5.2171 H         1 <0>         0.1138
     34 H13        -4.9528   -1.8597   -5.1998 H         1 <0>         0.1150
     35 H14        -3.3607   -0.8933   -6.8370 H         1 <0>         0.0936
     36 H15        -2.4502   -2.4226   -6.8542 H         1 <0>         0.0831
     37 H16        -4.4665   -3.6140   -7.6690 H         1 <0>         0.0811
     38 H17        -5.3771   -2.0847   -7.6517 H         1 <0>         0.0813
     39 H18        -3.7813   -4.1575  -10.1010 H         1 <0>         0.1771
     40 H19        -2.8141   -0.2498  -11.4606 H         1 <0>         0.2110
     41 H20        -3.4123   -2.0305   -0.5774 H         1 <0>         0.4307
@<TRIPOS>BOND
     1    1    6 ar
     2    1    2 ar
     3    1   23 1
     4    2    3 ar
     5    2   24 1
     6    3    4 ar
     7    3   22 1
     8    4    5 ar
     9    4   25 1
    10    5    6 ar
    11    5   26 1
    12    6    7 1
    13    7    8 1
    14    7   27 1
    15    7   28 1
    16    8    9 1
    17    8   29 1
    18    8   30 1
    19    9   10 2
    20    9   41 1
    21   10   11 1
    22   10   12 1
    23   11   31 1
    24   11   32 1
    25   12   13 1
    26   13   14 1
    27   13   33 1
    28   13   34 1
    29   14   15 1
    30   14   35 1
    31   14   36 1
    32   15   37 1
    33   15   38 1
    34   15   16 1
    35   16   20 1
    36   16   17 2
    37   17   39 1
    38   17   18 1
    39   18   19 1
    40   18   21 1
    41   19   40 1
    42   19   20 2
@<TRIPOS>MOLECULE
ZINC14979644
   41    42     0     0     0
SMALL
USER_CHARGES

@<TRIPOS>ATOM
      1 C1         -0.0167    1.3782    0.0096 C.ar      1 <0>        -0.1048
      2 C2          1.1708    2.0857    0.0021 C.ar      1 <0>        -0.0804
      3 C3          2.3776    1.4106   -0.0131 C.ar      1 <0>        -0.0916
      4 C4          2.3961    0.0278   -0.0207 C.ar      1 <0>        -0.0807
      5 C5          1.2083   -0.6792   -0.0132 C.ar      1 <0>        -0.1051
      6 C6          0.0021   -0.0041    0.0020 C.ar      1 <0>        -0.0863
      7 C7         -1.2927   -0.7751    0.0108 C.3       1 <0>        -0.0911
      8 C8         -1.7452   -1.0283   -1.4287 C.3       1 <0>         0.0788
      9 N1         -3.0039   -1.7779   -1.4202 N.pl3     1 <0>        -0.6015
     10 C9         -3.5755   -2.1055   -2.5459 C.cat     1 <0>         0.4610
     11 N2         -4.7574   -2.8093   -2.5379 N.pl3     1 <0>        -0.8013
     12 S1         -2.8337   -1.6465   -4.0768 S.3       1 <0>         0.0854
     13 C10        -3.9674   -2.3074   -5.3293 C.3       1 <0>        -0.1476
     14 C11        -3.4355   -1.9749   -6.7248 C.3       1 <0>        -0.1044
     15 C12        -4.3917   -2.5323   -7.7812 C.3       1 <0>        -0.0312
     16 C13        -3.8678   -2.2049   -9.1557 C.2       1 <0>        -0.0447
     17 C14        -4.0609   -1.0591   -9.8364 C.2       1 <0>        -0.0093
     18 N3         -3.4324   -1.1666  -11.0165 N.2       1 <0>        -0.4916
     19 C15        -2.8572   -2.3355  -11.0928 C.2       1 <0>         0.1983
     20 N4         -3.0993   -3.0126   -9.9498 N.pl3     1 <0>        -0.5675
     21 I1          4.1776    2.4824   -0.0252 I         1 <0>        -0.0250
     22 H1         -0.9592    1.9053    0.0260 H         1 <0>         0.1333
     23 H2          1.1560    3.1655    0.0077 H         1 <0>         0.1356
     24 H3          3.3384   -0.4997   -0.0329 H         1 <0>         0.1353
     25 H4          1.2227   -1.7591   -0.0191 H         1 <0>         0.1329
     26 H5         -1.1445   -1.7284    0.5180 H         1 <0>         0.0949
     27 H6         -2.0551   -0.1991    0.5353 H         1 <0>         0.0953
     28 H7         -1.8935   -0.0750   -1.9360 H         1 <0>         0.1159
     29 H8         -0.9829   -1.6043   -1.9532 H         1 <0>         0.1153
     30 H9         -5.1658   -3.0620   -1.6951 H         1 <0>         0.4288
     31 H10        -5.1825   -3.0529   -3.3751 H         1 <0>         0.4372
     32 H11        -4.0422   -3.3890   -5.2171 H         1 <0>         0.1144
     33 H12        -4.9528   -1.8597   -5.1998 H         1 <0>         0.1175
     34 H13        -3.3607   -0.8933   -6.8370 H         1 <0>         0.0928
     35 H14        -2.4502   -2.4226   -6.8542 H         1 <0>         0.0841
     36 H15        -4.4665   -3.6140   -7.6690 H         1 <0>         0.0780
     37 H16        -5.3771   -2.0847   -7.6517 H         1 <0>         0.0961
     38 H17        -4.6232   -0.2036   -9.4925 H         1 <0>         0.1698
     39 H18        -2.2797   -2.6994  -11.9298 H         1 <0>         0.2122
     40 H19        -3.4123   -2.0305   -0.5774 H         1 <0>         0.4316
     41 H20        -2.7885   -3.9055   -9.7329 H         1 <0>         0.4200
@<TRIPOS>BOND
     1    1    6 ar
     2    1    2 ar
     3    1   22 1
     4    2    3 ar
     5    2   23 1
     6    3    4 ar
     7    3   21 1
     8    4    5 ar
     9    4   24 1
    10    5    6 ar
    11    5   25 1
    12    6    7 1
    13    7    8 1
    14    7   26 1
    15    7   27 1
    16    8    9 1
    17    8   28 1
    18    8   29 1
    19    9   10 2
    20    9   40 1
    21   10   11 1
    22   10   12 1
    23   11   30 1
    24   11   31 1
    25   12   13 1
    26   13   14 1
    27   13   32 1
    28   13   33 1
    29   14   15 1
    30   14   34 1
    31   14   35 1
    32   15   36 1
    33   15   37 1
    34   15   16 1
    35   16   20 1
    36   16   17 2
    37   17   38 1
    38   17   18 1
    39   18   19 2
    40   19   39 1
    41   19   20 1
    42   20   41 1
@<TRIPOS>MOLECULE
ZINC14979644
   41    42     0     0     0
SMALL
USER_CHARGES

@<TRIPOS>ATOM
      1 C1         -0.0167    1.3782    0.0096 C.ar      1 <0>        -0.1064
      2 C2          1.1708    2.0857    0.0021 C.ar      1 <0>        -0.0809
      3 C3          2.3776    1.4106   -0.0131 C.ar      1 <0>        -0.0928
      4 C4          2.3961    0.0278   -0.0207 C.ar      1 <0>        -0.0808
      5 C5          1.2083   -0.6792   -0.0132 C.ar      1 <0>        -0.1062
      6 C6          0.0021   -0.0041    0.0020 C.ar      1 <0>        -0.0851
      7 C7         -1.2927   -0.7751    0.0108 C.3       1 <0>        -0.0897
      8 C8         -1.7452   -1.0283   -1.4287 C.3       1 <0>         0.0824
      9 N1         -3.0039   -1.7779   -1.4202 N.pl3     1 <0>        -0.6469
     10 C9         -3.6068   -2.1234   -2.6075 C.cat     1 <0>         0.4692
     11 N2         -3.0577   -1.7837   -3.7407 N.pl3     1 <0>        -0.7525
     12 S1         -5.1206   -3.0249   -2.5973 S.3       1 <0>         0.0762
     13 C10        -5.5152   -3.2400   -4.3547 C.3       1 <0>        -0.1440
     14 C11        -6.8252   -4.0185   -4.4917 C.3       1 <0>        -0.0991
     15 C12        -7.1580   -4.1999   -5.9740 C.3       1 <0>        -0.0206
     16 C13        -8.4483   -4.9666   -6.1090 C.2       1 <0>        -0.0136
     17 C14        -9.5356   -4.5710   -6.7981 C.2       1 <0>        -0.0441
     18 N3        -10.4733   -5.5585   -6.6596 N.pl3     1 <0>        -0.5672
     19 H1        -11.3644   -5.5639   -7.0426 H         1 <0>         0.4256
     20 C15        -9.9260   -6.5239   -5.8901 C.2       1 <0>         0.1946
     21 N4         -8.7131   -6.1654   -5.5687 N.2       1 <0>        -0.4919
     22 I1          4.1776    2.4824   -0.0252 I         1 <0>        -0.0255
     23 H2         -0.9592    1.9053    0.0260 H         1 <0>         0.1327
     24 H3          1.1560    3.1655    0.0077 H         1 <0>         0.1350
     25 H4          3.3384   -0.4997   -0.0329 H         1 <0>         0.1351
     26 H5          1.2227   -1.7591   -0.0191 H         1 <0>         0.1329
     27 H6         -1.1445   -1.7284    0.5180 H         1 <0>         0.0958
     28 H7         -2.0551   -0.1991    0.5353 H         1 <0>         0.0957
     29 H8         -1.8935   -0.0750   -1.9360 H         1 <0>         0.0983
     30 H9         -0.9829   -1.6043   -1.9532 H         1 <0>         0.0985
     31 H10        -3.4123   -2.0305   -0.5774 H         1 <0>         0.4437
     32 H11        -3.4828   -2.0273   -4.5779 H         1 <0>         0.4415
     33 H12        -5.6224   -2.2627   -4.8253 H         1 <0>         0.1142
     34 H13        -4.7118   -3.7920   -4.8425 H         1 <0>         0.1154
     35 H14        -6.7180   -4.9958   -4.0212 H         1 <0>         0.0946
     36 H15        -7.6286   -3.4665   -4.0039 H         1 <0>         0.0842
     37 H16        -7.2652   -3.2225   -6.4446 H         1 <0>         0.0813
     38 H17        -6.3546   -4.7519   -6.4619 H         1 <0>         0.0815
     39 H18        -9.6465   -3.6512   -7.3531 H         1 <0>         0.1771
     40 H19       -10.4104   -7.4424   -5.5932 H         1 <0>         0.2112
     41 H20        -2.2243   -1.2874   -3.7464 H         1 <0>         0.4306
@<TRIPOS>BOND
     1    1    6 ar
     2    1    2 ar
     3    1   23 1
     4    2    3 ar
     5    2   24 1
     6    3    4 ar
     7    3   22 1
     8    4    5 ar
     9    4   25 1
    10    5    6 ar
    11    5   26 1
    12    6    7 1
    13    7    8 1
    14    7   27 1
    15    7   28 1
    16    8    9 1
    17    8   29 1
    18    8   30 1
    19    9   10 1
    20    9   31 1
    21   10   11 2
    22   10   12 1
    23   11   32 1
    24   11   41 1
    25   12   13 1
    26   13   14 1
    27   13   33 1
    28   13   34 1
    29   14   15 1
    30   14   35 1
    31   14   36 1
    32   15   16 1
    33   15   37 1
    34   15   38 1
    35   16   21 1
    36   16   17 2
    37   17   18 1
    38   17   39 1
    39   18   19 1
    40   18   20 1
    41   20   21 2
    42   20   40 1
@<TRIPOS>MOLECULE
ZINC14979644
   41    42     0     0     0
SMALL
USER_CHARGES

@<TRIPOS>ATOM
      1 C1         -0.0167    1.3782    0.0096 C.ar      1 <0>        -0.1060
      2 C2          1.1708    2.0857    0.0021 C.ar      1 <0>        -0.0806
      3 C3          2.3776    1.4106   -0.0131 C.ar      1 <0>        -0.0919
      4 C4          2.3961    0.0278   -0.0207 C.ar      1 <0>        -0.0805
      5 C5          1.2083   -0.6792   -0.0132 C.ar      1 <0>        -0.1057
      6 C6          0.0021   -0.0041    0.0020 C.ar      1 <0>        -0.0872
      7 C7         -1.2927   -0.7751    0.0108 C.3       1 <0>        -0.0913
      8 C8         -1.7452   -1.0283   -1.4287 C.3       1 <0>         0.0705
      9 N1         -3.0039   -1.7779   -1.4202 N.pl3     1 <0>        -0.6007
     10 C9         -3.5755   -2.1055   -2.5459 C.cat     1 <0>         0.4684
     11 N2         -2.9964   -1.7472   -3.7411 N.pl3     1 <0>        -0.7972
     12 S1         -5.0894   -3.0070   -2.5356 S.3       1 <0>         0.0697
     13 C10        -5.4839   -3.2221   -4.2931 C.3       1 <0>        -0.1399
     14 C11        -6.7939   -4.0005   -4.4301 C.3       1 <0>        -0.1051
     15 C12        -7.1267   -4.1819   -5.9124 C.3       1 <0>        -0.0310
     16 C13        -8.4170   -4.9487   -6.0474 C.2       1 <0>        -0.0449
     17 C14        -8.5608   -6.2876   -6.0301 C.2       1 <0>        -0.0092
     18 N3         -9.8642   -6.5669   -6.1792 N.2       1 <0>        -0.4917
     19 C15       -10.5335   -5.4520   -6.2883 C.2       1 <0>         0.1985
     20 N4         -9.6689   -4.4180   -6.2053 N.pl3     1 <0>        -0.5675
     21 I1          4.1776    2.4824   -0.0252 I         1 <0>        -0.0239
     22 H1         -0.9592    1.9053    0.0260 H         1 <0>         0.1329
     23 H2          1.1560    3.1655    0.0077 H         1 <0>         0.1355
     24 H3          3.3384   -0.4997   -0.0329 H         1 <0>         0.1357
     25 H4          1.2227   -1.7591   -0.0191 H         1 <0>         0.1331
     26 H5         -1.1445   -1.7284    0.5180 H         1 <0>         0.0973
     27 H6         -2.0551   -0.1991    0.5353 H         1 <0>         0.0970
     28 H7         -1.8935   -0.0750   -1.9360 H         1 <0>         0.1077
     29 H8         -0.9829   -1.6043   -1.9532 H         1 <0>         0.1081
     30 H9         -2.1630   -1.2509   -3.7468 H         1 <0>         0.4285
     31 H10        -3.4214   -1.9908   -4.5783 H         1 <0>         0.4371
     32 H11        -5.5911   -2.2447   -4.7637 H         1 <0>         0.1149
     33 H12        -4.6805   -3.7740   -4.7809 H         1 <0>         0.1180
     34 H13        -6.6867   -4.9779   -3.9596 H         1 <0>         0.0932
     35 H14        -7.5973   -3.4485   -3.9423 H         1 <0>         0.0844
     36 H15        -7.2339   -3.2046   -6.3830 H         1 <0>         0.0781
     37 H16        -6.3233   -4.7339   -6.4003 H         1 <0>         0.0962
     38 H17        -7.7659   -7.0098   -5.9160 H         1 <0>         0.1699
     39 H18       -11.6024   -5.3698   -6.4192 H         1 <0>         0.2122
     40 H19        -3.4123   -2.0305   -0.5774 H         1 <0>         0.4475
     41 H20        -9.8928   -3.4753   -6.2511 H         1 <0>         0.4200
@<TRIPOS>BOND
     1    1    6 ar
     2    1    2 ar
     3    1   22 1
     4    2    3 ar
     5    2   23 1
     6    3    4 ar
     7    3   21 1
     8    4    5 ar
     9    4   24 1
    10    5    6 ar
    11    5   25 1
    12    6    7 1
    13    7    8 1
    14    7   26 1
    15    7   27 1
    16    8    9 1
    17    8   28 1
    18    8   29 1
    19    9   10 2
    20    9   40 1
    21   10   11 1
    22   10   12 1
    23   11   30 1
    24   11   31 1
    25   12   13 1
    26   13   14 1
    27   13   32 1
    28   13   33 1
    29   14   15 1
    30   14   34 1
    31   14   35 1
    32   15   36 1
    33   15   37 1
    34   15   16 1
    35   16   20 1
    36   16   17 2
    37   17   38 1
    38   17   18 1
    39   18   19 2
    40   19   39 1
    41   19   20 1
    42   20   41 1
@<TRIPOS>MOLECULE
ZINC14979644
   41    42     0     0     0
SMALL
USER_CHARGES

@<TRIPOS>ATOM
      1 C1         -0.0167    1.3782    0.0096 C.ar      1 <0>        -0.1059
      2 C2          1.1708    2.0857    0.0021 C.ar      1 <0>        -0.0807
      3 C3          2.3776    1.4106   -0.0131 C.ar      1 <0>        -0.0921
      4 C4          2.3961    0.0278   -0.0207 C.ar      1 <0>        -0.0806
      5 C5          1.2083   -0.6792   -0.0132 C.ar      1 <0>        -0.1058
      6 C6          0.0021   -0.0041    0.0020 C.ar      1 <0>        -0.0865
      7 C7         -1.2927   -0.7751    0.0108 C.3       1 <0>        -0.0914
      8 C8         -1.7452   -1.0283   -1.4287 C.3       1 <0>         0.0710
      9 N1         -3.0039   -1.7779   -1.4202 N.pl3     1 <0>        -0.6024
     10 C9         -3.5755   -2.1055   -2.5459 C.cat     1 <0>         0.4678
     11 N2         -2.9964   -1.7472   -3.7411 N.pl3     1 <0>        -0.7976
     12 S1         -5.0894   -3.0070   -2.5356 S.3       1 <0>         0.0692
     13 C10        -5.4839   -3.2221   -4.2931 C.3       1 <0>        -0.1380
     14 C11        -6.7939   -4.0005   -4.4301 C.3       1 <0>        -0.1001
     15 C12        -7.1267   -4.1819   -5.9124 C.3       1 <0>        -0.0207
     16 C13        -8.4170   -4.9487   -6.0474 C.2       1 <0>        -0.0133
     17 C14        -9.5043   -4.5531   -6.7365 C.2       1 <0>        -0.0443
     18 N3        -10.4420   -5.5406   -6.5980 N.pl3     1 <0>        -0.5673
     19 C15        -9.8947   -6.5060   -5.8284 C.2       1 <0>         0.1944
     20 N4         -8.6818   -6.1474   -5.5071 N.2       1 <0>        -0.4919
     21 H1        -11.3332   -5.5460   -6.9810 H         1 <0>         0.4255
     22 I1          4.1776    2.4824   -0.0252 I         1 <0>        -0.0246
     23 H2         -0.9592    1.9053    0.0260 H         1 <0>         0.1330
     24 H3          1.1560    3.1655    0.0077 H         1 <0>         0.1353
     25 H4          3.3384   -0.4997   -0.0329 H         1 <0>         0.1354
     26 H5          1.2227   -1.7591   -0.0191 H         1 <0>         0.1331
     27 H6         -1.1445   -1.7284    0.5180 H         1 <0>         0.0971
     28 H7         -2.0551   -0.1991    0.5353 H         1 <0>         0.0969
     29 H8         -1.8935   -0.0750   -1.9360 H         1 <0>         0.1071
     30 H9         -0.9829   -1.6043   -1.9532 H         1 <0>         0.1073
     31 H10        -2.1630   -1.2509   -3.7468 H         1 <0>         0.4275
     32 H11        -3.4214   -1.9908   -4.5783 H         1 <0>         0.4374
     33 H12        -5.5911   -2.2447   -4.7637 H         1 <0>         0.1143
     34 H13        -4.6805   -3.7740   -4.7809 H         1 <0>         0.1155
     35 H14        -6.6867   -4.9779   -3.9596 H         1 <0>         0.0939
     36 H15        -7.5973   -3.4485   -3.9423 H         1 <0>         0.0835
     37 H16        -7.2339   -3.2046   -6.3830 H         1 <0>         0.0813
     38 H17        -6.3233   -4.7339   -6.4003 H         1 <0>         0.0815
     39 H18        -9.6152   -3.6332   -7.2915 H         1 <0>         0.1772
     40 H19       -10.3791   -7.4245   -5.5316 H         1 <0>         0.2111
     41 H20        -3.4123   -2.0305   -0.5774 H         1 <0>         0.4472
@<TRIPOS>BOND
     1    1    6 ar
     2    1    2 ar
     3    1   23 1
     4    2    3 ar
     5    2   24 1
     6    3    4 ar
     7    3   22 1
     8    4    5 ar
     9    4   25 1
    10    5    6 ar
    11    5   26 1
    12    6    7 1
    13    7    8 1
    14    7   27 1
    15    7   28 1
    16    8    9 1
    17    8   29 1
    18    8   30 1
    19    9   10 2
    20    9   41 1
    21   10   11 1
    22   10   12 1
    23   11   31 1
    24   11   32 1
    25   12   13 1
    26   13   14 1
    27   13   33 1
    28   13   34 1
    29   14   15 1
    30   14   35 1
    31   14   36 1
    32   15   37 1
    33   15   38 1
    34   15   16 1
    35   16   20 1
    36   16   17 2
    37   17   39 1
    38   17   18 1
    39   18   19 1
    40   18   21 1
    41   19   40 1
    42   19   20 2
@<TRIPOS>MOLECULE
ZINC40163695
   21    21     0     0     0
SMALL
USER_CHARGES

@<TRIPOS>ATOM
      1 C1         -0.0184    1.5028    0.0103 C.3       1 <0>        -0.0792
      2 C2          0.0021   -0.0041    0.0020 C.2       1 <0>         0.2308
      3 N1          0.0077   -0.7851   -1.0996 N.pl3     1 <0>        -0.5610
      4 H1         -0.0004   -0.4811   -2.0207 H         1 <0>         0.4284
      5 C3          0.0273   -2.0858   -0.6737 C.2       1 <0>        -0.0287
      6 C4          0.0330   -2.0549    0.6726 C.2       1 <0>        -0.0274
      7 N2          0.0230   -0.7703    1.0582 N.2       1 <0>        -0.4908
      8 C5          0.0526   -3.2535    1.5859 C.3       1 <0>        -0.0513
      9 C6          1.2373   -3.1425    2.5477 C.3       1 <0>        -0.0027
     10 N3          1.2564   -4.3108    3.4379 N.4       1 <0>        -0.6378
     11 H2          1.0042    1.8801    0.0026 H         1 <0>         0.0875
     12 H3         -0.5455    1.8639   -0.8728 H         1 <0>         0.0810
     13 H4         -0.5286    1.8543    0.9071 H         1 <0>         0.0961
     14 H5          0.0361   -2.9674   -1.2975 H         1 <0>         0.1813
     15 H6         -0.8758   -3.2913    2.1557 H         1 <0>         0.0965
     16 H7          0.1512   -4.1617    0.9913 H         1 <0>         0.0969
     17 H8          2.1657   -3.1046    1.9778 H         1 <0>         0.1319
     18 H9          1.1387   -2.2342    3.1423 H         1 <0>         0.1402
     19 H10         0.3970   -4.3458    3.9654 H         1 <0>         0.4356
     20 H11         1.3477   -5.1516    2.8875 H         1 <0>         0.4338
     21 H12         2.0377   -4.2376    4.0722 H         1 <0>         0.4389
@<TRIPOS>BOND
     1    1    2 1
     2    1   11 1
     3    1   12 1
     4    1   13 1
     5    2    7 2
     6    2    3 1
     7    3    4 1
     8    3    5 1
     9    5    6 2
    10    5   14 1
    11    6    7 1
    12    6    8 1
    13    8    9 1
    14    8   15 1
    15    8   16 1
    16    9   10 1
    17    9   17 1
    18    9   18 1
    19   10   19 1
    20   10   20 1
    21   10   21 1
@<TRIPOS>MOLECULE
ZINC40163695
   22    22     0     0     0
SMALL
USER_CHARGES

@<TRIPOS>ATOM
      1 C1         -0.0184    1.5028    0.0103 C.3       1 <0>        -0.1258
      2 C2          0.0021   -0.0041    0.0020 C.cat     1 <0>         0.3594
      3 N1          0.0081   -0.7851   -1.0996 N.pl3     1 <0>        -0.5093
      4 H1          0.0005   -0.4811   -2.0207 H         1 <0>         0.4732
      5 C3          0.0276   -2.0858   -0.6737 C.2       1 <0>         0.0624
      6 C4          0.0327   -2.0549    0.6726 C.2       1 <0>         0.0002
      7 N2          0.0225   -0.7703    1.0582 N.pl3     1 <0>        -0.4784
      8 C5          0.0519   -3.2535    1.5859 C.3       1 <0>        -0.0847
      9 C6          1.4959   -3.7164    1.7895 C.3       1 <0>        -0.0084
     10 N3          1.5147   -4.8848    2.6797 N.4       1 <0>        -0.6375
     11 H2          1.0042    1.8801    0.0026 H         1 <0>         0.1323
     12 H3         -0.5455    1.8639   -0.8728 H         1 <0>         0.1271
     13 H4         -0.5286    1.8543    0.9071 H         1 <0>         0.1248
     14 H5          0.0366   -2.9674   -1.2975 H         1 <0>         0.2313
     15 H6         -0.3824   -2.9838    2.5485 H         1 <0>         0.1191
     16 H7         -0.5286   -4.0604    1.1386 H         1 <0>         0.1346
     17 H8          1.9302   -3.9861    0.8268 H         1 <0>         0.1446
     18 H9          2.0765   -2.9095    2.2367 H         1 <0>         0.1372
     19 H10         1.1127   -4.6351    3.5709 H         1 <0>         0.4405
     20 H11         0.9773   -5.6317    2.2657 H         1 <0>         0.4422
     21 H12         2.4670   -5.1900    2.8140 H         1 <0>         0.4496
     22 H13         0.0270   -0.4598    1.9772 H         1 <0>         0.4653
@<TRIPOS>BOND
     1    1    2 1
     2    1   11 1
     3    1   12 1
     4    1   13 1
     5    2    7 2
     6    2    3 1
     7    3    4 1
     8    3    5 1
     9    5    6 2
    10    5   14 1
    11    6    7 1
    12    6    8 1
    13    7   22 1
    14    8    9 1
    15    8   15 1
    16    8   16 1
    17    9   10 1
    18    9   17 1
    19    9   18 1
    20   10   19 1
    21   10   20 1
    22   10   21 1
@<TRIPOS>MOLECULE
ZINC19859265
   38    40     0     0     0
SMALL
USER_CHARGES
(5-methyl-1H-indol-2-yl)-(4-methylpiperazin-1-yl)methanone
@<TRIPOS>ATOM
      1 C1          3.5749   -0.8398   -0.1081 C.3       1 <0>        -0.1135
      2 C2          2.3292   -0.0266    0.1326 C.ar      1 <0>        -0.1141
      3 C3          1.2311   -0.6154    0.7473 C.ar      1 <0>        -0.0844
      4 C4          0.0833    0.1092    0.9772 C.ar      1 <0>        -0.1302
      5 C5          0.0192    1.4453    0.5910 C.ar      1 <0>         0.0974
      6 C6          1.1338    2.0398   -0.0320 C.ar      1 <0>        -0.1159
      7 C7          2.2903    1.2810   -0.2548 C.ar      1 <0>        -0.0634
      8 C8          0.7845    3.3838   -0.3080 C.2       1 <0>        -0.1129
      9 C9         -0.4856    3.5800    0.1328 C.2       1 <0>         0.0306
     10 N1         -0.9628    2.4035    0.6773 N.pl3     1 <0>        -0.5929
     11 H1         -1.9348    2.1558    1.1288 H         1 <0>         0.4466
     12 C10        -1.2350    4.8419    0.0399 C.2       1 <0>         0.5857
     13 O1         -0.6411    5.9036    0.0434 O.2       1 <0>        -0.5195
     14 N2         -2.5796    4.8222   -0.0491 N.am      1 <0>        -0.6107
     15 C11        -3.3485    6.0727   -0.1407 C.3       1 <0>         0.1143
     16 C12        -4.3013    5.9658   -1.3420 C.3       1 <0>         0.0387
     17 N3         -5.1114    4.7474   -1.2109 N.3       1 <0>        -0.5421
     18 C13        -4.2719    3.5426   -1.2500 C.3       1 <0>         0.0402
     19 C14        -3.3175    3.5499   -0.0511 C.3       1 <0>         0.0862
     20 C15        -6.1550    4.6955   -2.2434 C.3       1 <0>         0.0218
     21 H2          3.4231   -1.8627    0.2668 H         1 <0>         0.0646
     22 H3          4.4221   -0.3777    0.4198 H         1 <0>         0.0681
     23 H4          3.7887   -0.8725   -1.1866 H         1 <0>         0.0678
     24 H5          1.2786   -1.6516    1.0482 H         1 <0>         0.1274
     25 H6         -0.7649   -0.3574    1.4561 H         1 <0>         0.1230
     26 H7          3.1488    1.7299   -0.7323 H         1 <0>         0.1242
     27 H8          1.4146    4.1210   -0.7834 H         1 <0>         0.1538
     28 H9         -3.9238    6.2181    0.7855 H         1 <0>         0.0804
     29 H10        -2.6586    6.9180   -0.2803 H         1 <0>         0.1020
     30 H11        -4.9606    6.8460   -1.3665 H         1 <0>         0.0930
     31 H12        -3.7154    5.9206   -2.2719 H         1 <0>         0.0418
     32 H13        -4.9113    2.6486   -1.2057 H         1 <0>         0.0919
     33 H14        -3.6899    3.5313   -2.1834 H         1 <0>         0.0422
     34 H15        -2.6070    2.7141   -0.1320 H         1 <0>         0.1005
     35 H16        -3.8890    3.4560    0.8841 H         1 <0>         0.0833
     36 H17        -6.7453    3.7752   -2.1222 H         1 <0>         0.0724
     37 H18        -5.6867    4.7023   -3.2387 H         1 <0>         0.0279
     38 H19        -6.8145    5.5701   -2.1424 H         1 <0>         0.0738
@<TRIPOS>BOND
     1    1    2 1
     2    1   21 1
     3    1   22 1
     4    1   23 1
     5    2    7 ar
     6    2    3 ar
     7    3    4 ar
     8    3   24 1
     9    4    5 ar
    10    4   25 1
    11    5   10 1
    12    5    6 ar
    13    6    7 ar
    14    6    8 1
    15    7   26 1
    16    8    9 2
    17    8   27 1
    18    9   10 1
    19    9   12 1
    20   10   11 1
    21   12   13 2
    22   12   14 am
    23   14   19 1
    24   14   15 1
    25   15   16 1
    26   15   28 1
    27   15   29 1
    28   16   17 1
    29   16   30 1
    30   16   31 1
    31   17   18 1
    32   17   20 1
    33   18   19 1
    34   18   32 1
    35   18   33 1
    36   19   34 1
    37   19   35 1
    38   20   36 1
    39   20   37 1
    40   20   38 1
@<TRIPOS>MOLECULE
ZINC53194796
   38    40     0     0     0
SMALL
USER_CHARGES

@<TRIPOS>ATOM
      1 C1          1.3856    1.2233    1.3539 C.3       1 <0>        -0.1508
      2 C2          1.5196   -0.2993    1.2854 C.3       1 <0>         0.0504
      3 N1          1.6501   -0.7168   -0.1170 N.3       1 <0>        -0.5385
      4 C3          2.9048   -0.2218   -0.6990 C.3       1 <0>         0.0366
      5 C4          2.9195   -0.5204   -2.2019 C.3       1 <0>         0.1172
      6 N2          2.6682   -1.9566   -2.3954 N.am      1 <0>        -0.6108
      7 C5          1.5021   -2.5551   -1.7281 C.3       1 <0>         0.0889
      8 C6          1.5432   -2.1764   -0.2438 C.3       1 <0>         0.0419
      9 C7          3.4846   -2.7043   -3.1642 C.2       1 <0>         0.5857
     10 O1          4.4420   -2.1918   -3.7123 O.2       1 <0>        -0.5176
     11 C8          3.2178   -4.1398   -3.3404 C.2       1 <0>         0.0151
     12 C9          4.1568   -5.0915   -3.5820 C.2       1 <0>        -0.1051
     13 C10         3.4914   -6.3369   -3.6864 C.ar      1 <0>        -0.1188
     14 C11         3.9310   -7.6458   -3.9238 C.ar      1 <0>        -0.0598
     15 C12         3.0276   -8.6673   -3.9699 C.ar      1 <0>        -0.1471
     16 C13         1.6727   -8.4225   -3.7839 C.ar      1 <0>        -0.0846
     17 C14         1.2159   -7.1451   -3.5496 C.ar      1 <0>        -0.1339
     18 C15         2.1183   -6.0862   -3.4970 C.ar      1 <0>         0.1091
     19 N3          1.9732   -4.7363   -3.2809 N.pl3     1 <0>        -0.5824
     20 H1          1.1345   -4.2777   -3.1161 H         1 <0>         0.4208
     21 H2          2.2711    1.6859    0.9180 H         1 <0>         0.0556
     22 H3          0.5016    1.5356    0.7981 H         1 <0>         0.0647
     23 H4          1.2888    1.5330    2.3945 H         1 <0>         0.0616
     24 H5          2.4037   -0.6116    1.8413 H         1 <0>         0.0349
     25 H6          0.6342   -0.7619    1.7213 H         1 <0>         0.0771
     26 H7          2.9794    0.8541   -0.5412 H         1 <0>         0.0952
     27 H8          3.7487   -0.7193   -0.2210 H         1 <0>         0.0409
     28 H9          2.1399    0.0578   -2.6978 H         1 <0>         0.0800
     29 H10         3.8929   -0.2598   -2.6175 H         1 <0>         0.1006
     30 H11         0.5862   -2.1725   -2.1784 H         1 <0>         0.0838
     31 H12         1.5384   -3.6397   -1.8304 H         1 <0>         0.0963
     32 H13         2.4060   -2.6467    0.2278 H         1 <0>         0.0421
     33 H14         0.6303   -2.5180    0.2441 H         1 <0>         0.0911
     34 H15         5.2200   -4.9276   -3.6772 H         1 <0>         0.1552
     35 H16         4.9822   -7.8457   -4.0703 H         1 <0>         0.1265
     36 H17         3.3689   -9.6754   -4.1531 H         1 <0>         0.1259
     37 H18         0.9708   -9.2424   -3.8239 H         1 <0>         0.1288
     38 H19         0.1607   -6.9649   -3.4069 H         1 <0>         0.1232
@<TRIPOS>BOND
     1    1    2 1
     2    1   21 1
     3    1   22 1
     4    1   23 1
     5    2    3 1
     6    2   24 1
     7    2   25 1
     8    3    8 1
     9    3    4 1
    10    4    5 1
    11    4   26 1
    12    4   27 1
    13    5    6 1
    14    5   28 1
    15    5   29 1
    16    6    7 1
    17    6    9 am
    18    7    8 1
    19    7   30 1
    20    7   31 1
    21    8   32 1
    22    8   33 1
    23    9   10 2
    24    9   11 1
    25   11   19 1
    26   11   12 2
    27   12   13 1
    28   12   34 1
    29   13   18 ar
    30   13   14 ar
    31   14   15 ar
    32   14   35 1
    33   15   16 ar
    34   15   36 1
    35   16   17 ar
    36   16   37 1
    37   17   18 ar
    38   17   38 1
    39   18   19 1
    40   19   20 1
@<TRIPOS>MOLECULE
ZINC13526653
   35    37     0     0     0
SMALL
USER_CHARGES
(4-bromo-1H-indol-2-yl)-(4-methylpiperazin-1-yl)methanone
@<TRIPOS>ATOM
      1 C1         -0.7096   -5.7647    2.3071 C.3       1 <0>         0.0217
      2 N1         -0.7911   -4.7263    1.2712 N.3       1 <0>        -0.5421
      3 C2         -2.0911   -4.0435    1.3114 C.3       1 <0>         0.0400
      4 C3         -2.2061   -3.0998    0.1095 C.3       1 <0>         0.0818
      5 N2         -1.0358   -2.2090    0.1014 N.am      1 <0>        -0.6107
      6 C4          0.3011   -2.8155    0.1916 C.3       1 <0>         0.1149
      7 C5          0.3171   -3.7701    1.3961 C.3       1 <0>         0.0382
      8 C6         -1.1842   -0.8727    0.0082 C.2       1 <0>         0.5860
      9 O1         -0.2049   -0.1511   -0.0011 O.2       1 <0>        -0.5139
     10 C7         -2.5299   -0.2870   -0.0822 C.2       1 <0>         0.0173
     11 C8         -2.8805    0.9520    0.3516 C.2       1 <0>        -0.1076
     12 C9         -4.2588    1.1293    0.0816 C.ar      1 <0>        -0.0992
     13 C10        -4.7135   -0.0553   -0.5306 C.ar      1 <0>         0.1259
     14 N3         -3.6396   -0.9090   -0.6215 N.pl3     1 <0>        -0.5916
     15 H1         -3.5556   -1.9272   -1.0292 H         1 <0>         0.4492
     16 C11        -6.0489   -0.1610   -0.9083 C.ar      1 <0>        -0.1148
     17 C12        -6.9104    0.8892   -0.6808 C.ar      1 <0>        -0.0852
     18 C13        -6.4606    2.0563   -0.0776 C.ar      1 <0>        -0.1130
     19 C14        -5.1548    2.1842    0.3019 C.ar      1 <0>        -0.0354
     20 Br1        -4.5575    3.7802    1.1217 Br        1 <0>        -0.0440
     21 H2         -1.5493   -6.4656    2.1905 H         1 <0>         0.0726
     22 H3         -0.7586   -5.2958    3.3009 H         1 <0>         0.0283
     23 H4          0.2402   -6.3102    2.2055 H         1 <0>         0.0742
     24 H5         -2.8985   -4.7896    1.2719 H         1 <0>         0.0929
     25 H6         -2.1724   -3.4643    2.2430 H         1 <0>         0.0432
     26 H7         -2.2351   -3.6898   -0.8184 H         1 <0>         0.0873
     27 H8         -3.1285   -2.5068    0.1959 H         1 <0>         0.1017
     28 H9          0.5147   -3.3713   -0.7333 H         1 <0>         0.0818
     29 H10         1.0540   -2.0250    0.3265 H         1 <0>         0.1030
     30 H11         0.2005   -3.1931    2.3253 H         1 <0>         0.0424
     31 H12         1.2716   -4.3162    1.4210 H         1 <0>         0.0937
     32 H13        -2.2261    1.6708    0.8222 H         1 <0>         0.1564
     33 H14        -6.4088   -1.0644   -1.3781 H         1 <0>         0.1303
     34 H15        -7.9462    0.8044   -0.9749 H         1 <0>         0.1387
     35 H16        -7.1494    2.8705    0.0927 H         1 <0>         0.1360
@<TRIPOS>BOND
     1    1    2 1
     2    1   21 1
     3    1   22 1
     4    1   23 1
     5    2    7 1
     6    2    3 1
     7    3    4 1
     8    3   24 1
     9    3   25 1
    10    4    5 1
    11    4   26 1
    12    4   27 1
    13    5    6 1
    14    5    8 am
    15    6    7 1
    16    6   28 1
    17    6   29 1
    18    7   30 1
    19    7   31 1
    20    8    9 2
    21    8   10 1
    22   10   14 1
    23   10   11 2
    24   11   12 1
    25   11   32 1
    26   12   19 ar
    27   12   13 ar
    28   13   14 1
    29   13   16 ar
    30   14   15 1
    31   16   17 ar
    32   16   33 1
    33   17   18 ar
    34   17   34 1
    35   18   19 ar
    36   18   35 1
    37   19   20 1
@<TRIPOS>MOLECULE
ZINC13526656
   35    37     0     0     0
SMALL
USER_CHARGES
(5-bromo-1H-indol-2-yl)-(4-methylpiperazin-1-yl)methanone
@<TRIPOS>ATOM
      1 C1         -0.0738   11.7010   -2.2639 C.3       1 <0>         0.0217
      2 N1         -0.5490   10.7807   -1.2221 N.3       1 <0>        -0.5422
      3 C2         -2.0148   10.6848   -1.2332 C.3       1 <0>         0.0400
      4 C3         -2.4788    9.8640   -0.0252 C.3       1 <0>         0.0818
      5 N2         -1.7711    8.5747   -0.0367 N.am      1 <0>        -0.6107
      6 C4         -0.3052    8.5866   -0.1563 C.3       1 <0>         0.1148
      7 C5          0.0727    9.4575   -1.3650 C.3       1 <0>         0.0383
      8 C6         -2.4475    7.4134    0.0653 C.2       1 <0>         0.5860
      9 O1         -1.8455    6.3563    0.0580 O.2       1 <0>        -0.5154
     10 C7         -3.9131    7.4242    0.1852 C.2       1 <0>         0.0121
     11 C8         -4.7451    6.4361   -0.2359 C.2       1 <0>        -0.1047
     12 C9         -6.0712    6.8324    0.0628 C.ar      1 <0>        -0.1167
     13 C10        -7.3217    6.2304   -0.1292 C.ar      1 <0>        -0.0255
     14 C11        -8.4551    6.8771    0.2714 C.ar      1 <0>        -0.1175
     15 C12        -8.3804    8.1249    0.8796 C.ar      1 <0>        -0.0638
     16 C13        -7.1628    8.7339    1.0840 C.ar      1 <0>        -0.1230
     17 C14        -5.9932    8.0966    0.6789 C.ar      1 <0>         0.1320
     18 N3         -4.6634    8.4406    0.7441 N.pl3     1 <0>        -0.5919
     19 H1         -4.1650    9.3354    1.1454 H         1 <0>         0.4488
     20 Br1       -10.1417    6.0649    0.0036 Br        1 <0>        -0.0495
     21 H2         -0.5542   12.6819   -2.1335 H         1 <0>         0.0727
     22 H3         -0.3289   11.2966   -3.2545 H         1 <0>         0.0283
     23 H4          1.0175   11.8135   -2.1837 H         1 <0>         0.0743
     24 H5         -2.4487   11.6942   -1.1806 H         1 <0>         0.0930
     25 H6         -2.3430   10.1925   -2.1605 H         1 <0>         0.0431
     26 H7         -2.2470   10.4110    0.9006 H         1 <0>         0.0874
     27 H8         -3.5641    9.6969   -0.0904 H         1 <0>         0.1017
     28 H9          0.1342    9.0040    0.7617 H         1 <0>         0.0818
     29 H10         0.0591    7.5591   -0.3028 H         1 <0>         0.1029
     30 H11        -0.2868    8.9814   -2.2892 H         1 <0>         0.0423
     31 H12         1.1660    9.5691   -1.4114 H         1 <0>         0.0937
     32 H13        -4.4482    5.5136   -0.7127 H         1 <0>         0.1562
     33 H14        -7.3890    5.2591   -0.5966 H         1 <0>         0.1367
     34 H15        -9.2863    8.6215    1.1944 H         1 <0>         0.1385
     35 H16        -7.1151    9.7036    1.5571 H         1 <0>         0.1328
@<TRIPOS>BOND
     1    1    2 1
     2    1   21 1
     3    1   22 1
     4    1   23 1
     5    2    7 1
     6    2    3 1
     7    3    4 1
     8    3   24 1
     9    3   25 1
    10    4    5 1
    11    4   26 1
    12    4   27 1
    13    5    6 1
    14    5    8 am
    15    6    7 1
    16    6   28 1
    17    6   29 1
    18    7   30 1
    19    7   31 1
    20    8    9 2
    21    8   10 1
    22   10   18 1
    23   10   11 2
    24   11   12 1
    25   11   32 1
    26   12   17 ar
    27   12   13 ar
    28   13   14 ar
    29   13   33 1
    30   14   15 ar
    31   14   20 1
    32   15   16 ar
    33   15   34 1
    34   16   17 ar
    35   16   35 1
    36   17   18 1
    37   18   19 1
@<TRIPOS>MOLECULE
ZINC19900266
   39    41     0     0     0
SMALL
USER_CHARGES
(5-methoxy-1H-indol-2-yl)-(4-methylpiperazin-1-yl)methanone
@<TRIPOS>ATOM
      1 C1          0.6071   12.5785    3.4343 C.3       1 <0>         0.0218
      2 N1         -0.5092   11.6319    3.3087 N.3       1 <0>        -0.5423
      3 C2         -0.0827   10.4025    2.6271 C.3       1 <0>         0.0401
      4 C3         -1.3071    9.5223    2.3547 C.3       1 <0>         0.0815
      5 N2         -2.0241    9.3142    3.6219 N.am      1 <0>        -0.6111
      6 C4         -2.3706   10.4950    4.4275 C.3       1 <0>         0.1149
      7 C5         -1.0991   11.3364    4.6211 C.3       1 <0>         0.0384
      8 C6         -2.3596    8.0747    4.0314 C.2       1 <0>         0.5860
      9 O1         -2.9561    7.9214    5.0805 O.2       1 <0>        -0.5165
     10 C7         -2.0046    6.9078    3.2101 C.2       1 <0>         0.0182
     11 C8         -1.7708    5.6548    3.6810 C.2       1 <0>        -0.1174
     12 C9         -1.4621    4.8282    2.5738 C.ar      1 <0>        -0.0799
     13 C10        -1.1398    3.4700    2.4489 C.ar      1 <0>        -0.1032
     14 C11        -0.8841    2.9412    1.2019 C.ar      1 <0>         0.0976
     15 C12        -0.9390    3.7509    0.0687 C.ar      1 <0>        -0.1637
     16 C13        -1.2593    5.0848    0.1757 C.ar      1 <0>        -0.0933
     17 C14        -1.5217    5.6401    1.4249 C.ar      1 <0>         0.0915
     18 N3         -1.8557    6.9106    1.8370 N.pl3     1 <0>        -0.5948
     19 H1         -2.0056    7.8409    1.2694 H         1 <0>         0.4454
     20 O2         -0.5711    1.6238    1.0772 O.3       1 <0>        -0.3179
     21 C15        -0.3175    1.1394   -0.2430 C.3       1 <0>         0.0244
     22 H2          1.0293   12.7817    2.4391 H         1 <0>         0.0724
     23 H3          1.3844   12.1451    4.0808 H         1 <0>         0.0282
     24 H4          0.2435   13.5175    3.8770 H         1 <0>         0.0740
     25 H5          0.4036   10.6610    1.6749 H         1 <0>         0.0924
     26 H6          0.6278    9.8569    3.2655 H         1 <0>         0.0431
     27 H7         -1.9649   10.0235    1.6293 H         1 <0>         0.0864
     28 H8         -0.9797    8.5551    1.9456 H         1 <0>         0.1034
     29 H9         -3.1371   11.0845    3.9031 H         1 <0>         0.0812
     30 H10        -2.7612   10.1712    5.4035 H         1 <0>         0.1027
     31 H11        -0.3752   10.7756    5.2306 H         1 <0>         0.0422
     32 H12        -1.3541   12.2782    5.1290 H         1 <0>         0.0932
     33 H13        -1.8132    5.3450    4.7147 H         1 <0>         0.1538
     34 H14        -1.0924    2.8407    3.3253 H         1 <0>         0.1345
     35 H15        -0.7323    3.3265   -0.9027 H         1 <0>         0.1345
     36 H16        -1.3033    5.7021   -0.7095 H         1 <0>         0.1269
     37 H17        -0.0783    0.0666   -0.2003 H         1 <0>         0.1014
     38 H18         0.5314    1.6873   -0.6778 H         1 <0>         0.0551
     39 H19        -1.2104    1.2914   -0.8671 H         1 <0>         0.0553
@<TRIPOS>BOND
     1    1    2 1
     2    1   22 1
     3    1   23 1
     4    1   24 1
     5    2    7 1
     6    2    3 1
     7    3    4 1
     8    3   25 1
     9    3   26 1
    10    4    5 1
    11    4   27 1
    12    4   28 1
    13    5    6 1
    14    5    8 am
    15    6    7 1
    16    6   29 1
    17    6   30 1
    18    7   31 1
    19    7   32 1
    20    8    9 2
    21    8   10 1
    22   10   18 1
    23   10   11 2
    24   11   12 1
    25   11   33 1
    26   12   17 ar
    27   12   13 ar
    28   13   14 ar
    29   13   34 1
    30   14   15 ar
    31   14   20 1
    32   15   16 ar
    33   15   35 1
    34   16   17 ar
    35   16   36 1
    36   17   18 1
    37   18   19 1
    38   20   21 1
    39   21   37 1
    40   21   38 1
    41   21   39 1
@<TRIPOS>MOLECULE
ZINC19868747
   35    37     0     0     0
SMALL
USER_CHARGES

@<TRIPOS>ATOM
      1 C1          1.7302    1.7441   -0.9395 C.3       1 <0>         0.0240
      2 N1          1.2923    0.3866   -0.5886 N.3       1 <0>        -0.5432
      3 C2          1.3850   -0.5124   -1.7468 C.3       1 <0>         0.0387
      4 C3          0.7532   -1.8628   -1.3929 C.3       1 <0>         0.1167
      5 N2          1.3840   -2.3658   -0.1631 N.am      1 <0>        -0.6105
      6 C4          1.4518   -1.4694    1.0010 C.3       1 <0>         0.0883
      7 C5          2.0561   -0.1344    0.5529 C.3       1 <0>         0.0410
      8 C6          1.8862   -3.6152   -0.1043 C.2       1 <0>         0.5853
      9 O1          1.8175   -4.3446   -1.0754 O.2       1 <0>        -0.5148
     10 C7          2.5172   -4.0965    1.1337 C.2       1 <0>         0.0219
     11 C8          3.5030   -5.0289    1.2044 C.2       1 <0>        -0.1018
     12 C9          3.8299   -5.2082    2.5703 C.ar      1 <0>        -0.1076
     13 C10         4.7524   -6.0229    3.2398 C.ar      1 <0>        -0.0492
     14 C11         4.8387   -5.9739    4.6014 C.ar      1 <0>        -0.0596
     15 C12         4.0183   -5.1217    5.3321 C.ar      1 <0>        -0.0784
     16 C13         3.1040   -4.3122    4.6965 C.ar      1 <0>        -0.1163
     17 C14         2.9980   -4.3442    3.3087 C.ar      1 <0>         0.1111
     18 N3          2.2062   -3.6685    2.4098 N.pl3     1 <0>        -0.5787
     19 H1          1.5375   -3.0029    2.6350 H         1 <0>         0.4234
     20 Cl1         5.9824   -6.9851    5.4279 Cl        1 <0>        -0.0682
     21 H2          2.7874    1.7277   -1.2047 H         1 <0>         0.0280
     22 H3          1.1486    2.1058   -1.7875 H         1 <0>         0.0730
     23 H4          1.5797    2.4063   -0.0869 H         1 <0>         0.0722
     24 H5          0.8548   -0.0730   -2.5916 H         1 <0>         0.0931
     25 H6          2.4324   -0.6588   -2.0106 H         1 <0>         0.0418
     26 H7         -0.3169   -1.7349   -1.2296 H         1 <0>         0.0811
     27 H8          0.9205   -2.5696   -2.2056 H         1 <0>         0.1017
     28 H9          0.4489   -1.3036    1.3944 H         1 <0>         0.0850
     29 H10         2.0810   -1.9161    1.7709 H         1 <0>         0.0956
     30 H11         3.0942   -0.2862    0.2570 H         1 <0>         0.0428
     31 H12         2.0126    0.5790    1.3757 H         1 <0>         0.0919
     32 H13         3.9556   -5.5417    0.3686 H         1 <0>         0.1591
     33 H14         5.3933   -6.6881    2.6802 H         1 <0>         0.1382
     34 H15         4.0989   -5.0947    6.4088 H         1 <0>         0.1403
     35 H16         2.4707   -3.6541    5.2729 H         1 <0>         0.1342
@<TRIPOS>BOND
     1    1    2 1
     2    1   21 1
     3    1   22 1
     4    1   23 1
     5    2    7 1
     6    2    3 1
     7    3    4 1
     8    3   24 1
     9    3   25 1
    10    4    5 1
    11    4   26 1
    12    4   27 1
    13    5    6 1
    14    5    8 am
    15    6    7 1
    16    6   28 1
    17    6   29 1
    18    7   30 1
    19    7   31 1
    20    8    9 2
    21    8   10 1
    22   10   18 1
    23   10   11 2
    24   11   12 1
    25   11   32 1
    26   12   17 ar
    27   12   13 ar
    28   13   14 ar
    29   13   33 1
    30   14   15 ar
    31   14   20 1
    32   15   16 ar
    33   15   34 1
    34   16   17 ar
    35   16   35 1
    36   17   18 1
    37   18   19 1
@<TRIPOS>MOLECULE
ZINC19868744
   35    37     0     0     0
SMALL
USER_CHARGES

@<TRIPOS>ATOM
      1 C1          1.7306    1.7441   -0.9398 C.3       1 <0>         0.0240
      2 N1          1.2925    0.3866   -0.5888 N.3       1 <0>        -0.5432
      3 C2          1.3852   -0.5124   -1.7469 C.3       1 <0>         0.0388
      4 C3          0.7533   -1.8628   -1.3929 C.3       1 <0>         0.1166
      5 N2          1.3841   -2.3658   -0.1631 N.am      1 <0>        -0.6112
      6 C4          1.4520   -1.4693    1.0009 C.3       1 <0>         0.0884
      7 C5          2.0564   -0.1344    0.5527 C.3       1 <0>         0.0411
      8 C6          1.8862   -3.6152   -0.1043 C.2       1 <0>         0.5858
      9 O1          1.8174   -4.3446   -1.0754 O.2       1 <0>        -0.5174
     10 C7          2.5172   -4.0965    1.1337 C.2       1 <0>         0.0149
     11 C8          3.5029   -5.0288    1.2044 C.2       1 <0>        -0.1048
     12 C9          3.8297   -5.2080    2.5704 C.ar      1 <0>        -0.1188
     13 C10         4.7521   -6.0225    3.2402 C.ar      1 <0>        -0.0597
     14 C11         4.8380   -5.9733    4.6010 C.ar      1 <0>        -0.1471
     15 C12         4.0181   -5.1222    5.3315 C.ar      1 <0>        -0.0845
     16 C13         3.1036   -4.3125    4.6965 C.ar      1 <0>        -0.1339
     17 C14         2.9977   -4.3439    3.3086 C.ar      1 <0>         0.1092
     18 N3          2.2062   -3.6685    2.4099 N.pl3     1 <0>        -0.5826
     19 H1          1.5377   -3.0027    2.6350 H         1 <0>         0.4208
     20 H2          2.7877    1.7276   -1.2049 H         1 <0>         0.0279
     21 H3          1.1489    2.1058   -1.7877 H         1 <0>         0.0729
     22 H4          1.5802    2.4063   -0.0871 H         1 <0>         0.0721
     23 H5          0.8549   -0.0730   -2.5918 H         1 <0>         0.0928
     24 H6          2.4326   -0.6589   -2.0107 H         1 <0>         0.0416
     25 H7         -0.3168   -1.7348   -1.2295 H         1 <0>         0.0805
     26 H8          0.9205   -2.5696   -2.2056 H         1 <0>         0.1013
     27 H9          0.4491   -1.3035    1.3944 H         1 <0>         0.0840
     28 H10         2.0812   -1.9160    1.7708 H         1 <0>         0.0967
     29 H11         3.0945   -0.2862    0.2568 H         1 <0>         0.0426
     30 H12         2.0129    0.5791    1.3756 H         1 <0>         0.0915
     31 H13         3.9560   -5.5413    0.3686 H         1 <0>         0.1553
     32 H14         5.3931   -6.6878    2.6810 H         1 <0>         0.1266
     33 H15         5.5498   -6.6022    5.1152 H         1 <0>         0.1259
     34 H16         4.0987   -5.0958    6.4082 H         1 <0>         0.1289
     35 H17         2.4702   -3.6547    5.2732 H         1 <0>         0.1233
@<TRIPOS>BOND
     1    1    2 1
     2    1   20 1
     3    1   21 1
     4    1   22 1
     5    2    7 1
     6    2    3 1
     7    3    4 1
     8    3   23 1
     9    3   24 1
    10    4    5 1
    11    4   25 1
    12    4   26 1
    13    5    6 1
    14    5    8 am
    15    6    7 1
    16    6   27 1
    17    6   28 1
    18    7   29 1
    19    7   30 1
    20    8    9 2
    21    8   10 1
    22   10   18 1
    23   10   11 2
    24   11   12 1
    25   11   31 1
    26   12   17 ar
    27   12   13 ar
    28   13   14 ar
    29   13   32 1
    30   14   15 ar
    31   14   33 1
    32   15   16 ar
    33   15   34 1
    34   16   17 ar
    35   16   35 1
    36   17   18 1
    37   18   19 1
@<TRIPOS>MOLECULE
ZINC13526674
   37    39     0     0     0
SMALL
USER_CHARGES
(7-amino-1H-indol-2-yl)-(4-methylpiperazin-1-yl)methanone
@<TRIPOS>ATOM
      1 C1         -5.9536    0.0663    1.5971 C.3       1 <0>         0.0217
      2 N1         -4.8731    0.5361    0.7197 N.3       1 <0>        -0.5422
      3 C2         -4.6601    1.9813    0.8745 C.3       1 <0>         0.0372
      4 C3         -3.6578    2.4624   -0.1801 C.3       1 <0>         0.1147
      5 N2         -2.4424    1.6404   -0.0787 N.am      1 <0>        -0.6142
      6 C4         -2.5888    0.1770   -0.0942 C.3       1 <0>         0.0844
      7 C5         -3.6337   -0.2141    0.9628 C.3       1 <0>         0.0417
      8 C6         -1.2263    2.2129    0.0201 C.2       1 <0>         0.5873
      9 O1         -1.1304    3.4186    0.1502 O.2       1 <0>        -0.5174
     10 C7         -0.0152    1.3800   -0.0293 C.2       1 <0>         0.0095
     11 C8          1.1981    1.7226    0.4779 C.2       1 <0>        -0.1162
     12 C9          2.0909    0.6547    0.2196 C.ar      1 <0>        -0.0766
     13 C10         3.4486    0.4451    0.5035 C.ar      1 <0>        -0.1285
     14 C11         4.0537   -0.7156    0.1196 C.ar      1 <0>        -0.0916
     15 C12         3.3390   -1.6989   -0.5525 C.ar      1 <0>        -0.1962
     16 C13         1.9999   -1.5184   -0.8456 C.ar      1 <0>         0.2226
     17 C14         1.3602   -0.3358   -0.4609 C.ar      1 <0>         0.0612
     18 N3          0.0723    0.1275   -0.6037 N.pl3     1 <0>        -0.5910
     19 H1         -0.8139   -0.3262   -1.0715 H         1 <0>         0.4392
     20 N4          1.2884   -2.5139   -1.5226 N.pl3     1 <0>        -0.9030
     21 H2         -6.8677    0.6437    1.3944 H         1 <0>         0.0737
     22 H3         -5.6585    0.2036    2.6479 H         1 <0>         0.0282
     23 H4         -6.1436   -1.0002    1.4060 H         1 <0>         0.0727
     24 H5         -5.6160    2.5091    0.7413 H         1 <0>         0.0930
     25 H6         -4.2641    2.1880    1.8797 H         1 <0>         0.0420
     26 H7         -4.1001    2.3563   -1.1816 H         1 <0>         0.0804
     27 H8         -3.4125    3.5191    0.0023 H         1 <0>         0.1024
     28 H9         -2.9209   -0.1477   -1.0913 H         1 <0>         0.0840
     29 H10        -1.6213   -0.2908    0.1404 H         1 <0>         0.1018
     30 H11        -3.2509    0.0254    1.9658 H         1 <0>         0.0437
     31 H12        -3.8390   -1.2927    0.8967 H         1 <0>         0.0921
     32 H13         1.4383    2.6446    0.9865 H         1 <0>         0.1520
     33 H14         4.0144    1.2021    1.0262 H         1 <0>         0.1210
     34 H15         5.0992   -0.8717    0.3407 H         1 <0>         0.1217
     35 H16         3.8336   -2.6120   -0.8489 H         1 <0>         0.1226
     36 H17         0.2231   -2.3675   -1.7544 H         1 <0>         0.4050
     37 H18         1.7940   -3.4434   -1.8233 H         1 <0>         0.4213
@<TRIPOS>BOND
     1    1    2 1
     2    1   21 1
     3    1   22 1
     4    1   23 1
     5    2    7 1
     6    2    3 1
     7    3    4 1
     8    3   24 1
     9    3   25 1
    10    4    5 1
    11    4   26 1
    12    4   27 1
    13    5    6 1
    14    5    8 am
    15    6    7 1
    16    6   28 1
    17    6   29 1
    18    7   30 1
    19    7   31 1
    20    8    9 2
    21    8   10 1
    22   10   18 1
    23   10   11 2
    24   11   12 1
    25   11   32 1
    26   12   17 ar
    27   12   13 ar
    28   13   14 ar
    29   13   33 1
    30   14   15 ar
    31   14   34 1
    32   15   16 ar
    33   15   35 1
    34   16   17 ar
    35   16   20 1
    36   17   18 1
    37   18   19 1
    38   20   36 1
    39   20   37 1
@<TRIPOS>MOLECULE
ZINC00509902
   33    35     0     0     0
SMALL
USER_CHARGES
1H-indol-2-yl-piperazin-1-yl-methanone
@<TRIPOS>ATOM
      1 C1          3.0831   -3.1794   -7.0733 C.ar      1 <0>        -0.1415
      2 C2          4.1183   -2.3794   -6.6055 C.ar      1 <0>        -0.0708
      3 C3          3.9956   -1.6970   -5.4162 C.ar      1 <0>        -0.1402
      4 C4          2.8240   -1.8083   -4.6721 C.ar      1 <0>         0.1174
      5 C5          1.7761   -2.6199   -5.1485 C.ar      1 <0>        -0.1247
      6 C6          1.9254   -3.3039   -6.3621 C.ar      1 <0>        -0.0547
      7 C7          0.7310   -2.5462   -4.1961 C.2       1 <0>        -0.0769
      8 C8          1.1374   -1.7171   -3.1994 C.2       1 <0>        -0.0160
      9 N1          2.4127   -1.2651   -3.4780 N.pl3     1 <0>        -0.5901
     10 H1          2.9327   -0.6637   -2.9223 H         1 <0>         0.4156
     11 C9          0.3481   -1.3626   -2.0103 C.2       1 <0>         0.5988
     12 O1         -0.4819   -2.1394   -1.5774 O.2       1 <0>        -0.4886
     13 N2          0.5443   -0.1769   -1.4001 N.am      1 <0>        -0.6336
     14 C10        -0.2377    0.1995   -0.2127 C.3       1 <0>         0.0880
     15 C11        -0.8369    1.5906   -0.4454 C.3       1 <0>        -0.0166
     16 C12         0.8763    2.1434   -2.0705 C.3       1 <0>        -0.0147
     17 C13         1.5457    0.7750   -1.9044 C.3       1 <0>         0.0581
     18 H2          3.1957   -3.7073   -8.0087 H         1 <0>         0.1319
     19 H3          5.0280   -2.2915   -7.1810 H         1 <0>         0.1343
     20 H4          4.8060   -1.0778   -5.0609 H         1 <0>         0.1255
     21 H5          1.1264   -3.9284   -6.7335 H         1 <0>         0.1313
     22 H6         -0.2197   -3.0555   -4.2529 H         1 <0>         0.1590
     23 H7          0.4126    0.2226    0.6618 H         1 <0>         0.0987
     24 H8         -1.0388   -0.5224   -0.0543 H         1 <0>         0.1399
     25 H9         -1.5652    1.5421   -1.2549 H         1 <0>         0.1367
     26 H10        -1.3276    1.9323    0.4659 H         1 <0>         0.1489
     27 H11         1.6280    2.8860   -2.3378 H         1 <0>         0.1481
     28 H12         0.1241    2.0872   -2.8574 H         1 <0>         0.1379
     29 H13         2.3675    0.8533   -1.1926 H         1 <0>         0.1020
     30 H14         1.9236    0.4328   -2.8679 H         1 <0>         0.1365
     31 N3          0.2384    2.5381   -0.7991 N.4       1 <0>        -0.5159
     32 H15         0.9443    2.5419   -0.0536 H         1 <0>         0.4340
     33 H16        -0.1596    3.4793   -0.8985 H         1 <0>         0.4416
@<TRIPOS>BOND
     1    1    6 ar
     2    1    2 ar
     3    1   18 1
     4    2    3 ar
     5    2   19 1
     6    3    4 ar
     7    3   20 1
     8    4    9 1
     9    4    5 ar
    10    5    6 ar
    11    5    7 1
    12    6   21 1
    13    7    8 2
    14    7   22 1
    15    8    9 1
    16    8   11 1
    17    9   10 1
    18   11   12 2
    19   11   13 am
    20   13   17 1
    21   13   14 1
    22   14   15 1
    23   14   23 1
    24   14   24 1
    25   15   25 1
    26   15   26 1
    27   15   31 1
    28   16   17 1
    29   16   27 1
    30   16   28 1
    31   16   31 1
    32   17   29 1
    33   17   30 1
    34   31   32 1
    35   31   33 1
@<TRIPOS>MOLECULE
ZINC01892860
   38    40     0     0     0
SMALL
USER_CHARGES

@<TRIPOS>ATOM
      1 C1         -0.0169    1.3962    0.0097 C.ar      1 <0>        -0.0188
      2 C2          1.1625    2.0954    0.0022 C.ar      1 <0>        -0.1651
      3 C3          2.3762    1.4165   -0.0135 C.ar      1 <0>         0.1662
      4 C4          2.4006    0.0259   -0.0212 C.ar      1 <0>        -0.2246
      5 C5          1.2269   -0.6828   -0.0138 C.ar      1 <0>        -0.0273
      6 C6          0.0021   -0.0041    0.0020 C.ar      1 <0>        -0.2066
      7 C7         -1.2581   -0.7581    0.0100 C.2       1 <0>         0.4281
      8 O1         -2.3178   -0.1681    0.0233 O.2       1 <0>        -0.4587
      9 C8         -1.2347   -2.2649    0.0017 C.3       1 <0>        -0.2225
     10 C9         -2.2150   -2.9815   -0.9291 C.3       1 <0>        -0.1476
     11 C10        -2.4480   -2.9935    0.5829 C.3       1 <0>        -0.1501
     12 O2          3.5404    2.1130   -0.0218 O.3       1 <0>        -0.3084
     13 C11         4.7507    1.3535   -0.0378 C.3       1 <0>         0.0562
     14 C12         5.9494    2.3043   -0.0452 C.3       1 <0>        -0.1155
     15 C13         7.2453    1.4912   -0.0624 C.3       1 <0>        -0.0389
     16 C14         8.4259    2.4277   -0.0696 C.2       1 <0>        -0.0275
     17 C15         8.9817    3.0104   -1.1490 C.2       1 <0>        -0.0181
     18 N1         10.0067    3.7674   -0.7302 N.2       1 <0>        -0.4935
     19 C16        10.1072    3.6759    0.5677 C.2       1 <0>         0.1869
     20 N2          9.1358    2.8542    1.0203 N.pl3     1 <0>        -0.5676
     21 H1          8.9728    2.6101    1.9448 H         1 <0>         0.4194
     22 H2         -0.9588    1.9243    0.0260 H         1 <0>         0.1415
     23 H3          1.1490    3.1753    0.0081 H         1 <0>         0.1389
     24 H4          3.3458   -0.4966   -0.0334 H         1 <0>         0.1353
     25 H5          1.2469   -1.7626   -0.0205 H         1 <0>         0.1358
     26 H6         -0.2556   -2.7207    0.1493 H         1 <0>         0.1249
     27 H7         -2.8768   -2.3632   -1.5355 H         1 <0>         0.1023
     28 H8         -1.8808   -3.9090   -1.3942 H         1 <0>         0.1060
     29 H9         -2.2673   -3.9288    1.1127 H         1 <0>         0.1052
     30 H10        -3.2632   -2.3830    0.9714 H         1 <0>         0.1050
     31 H11         4.7943    0.7207    0.8486 H         1 <0>         0.0663
     32 H12         4.7763    0.7297   -0.9313 H         1 <0>         0.0696
     33 H13         5.9057    2.9372   -0.9316 H         1 <0>         0.0830
     34 H14         5.9237    2.9282    0.8483 H         1 <0>         0.0740
     35 H15         7.2889    0.8584    0.8240 H         1 <0>         0.0743
     36 H16         7.2709    0.8673   -0.9558 H         1 <0>         0.0930
     37 H17         8.6588    2.8894   -2.1725 H         1 <0>         0.1696
     38 H18        10.8428    4.1775    1.1790 H         1 <0>         0.2092
@<TRIPOS>BOND
     1    1    6 ar
     2    1    2 ar
     3    1   22 1
     4    2    3 ar
     5    2   23 1
     6    3    4 ar
     7    3   12 1
     8    4    5 ar
     9    4   24 1
    10    5    6 ar
    11    5   25 1
    12    6    7 1
    13    7    8 2
    14    7    9 1
    15    9   11 1
    16    9   10 1
    17    9   26 1
    18   10   11 1
    19   10   27 1
    20   10   28 1
    21   11   29 1
    22   11   30 1
    23   12   13 1
    24   13   14 1
    25   13   31 1
    26   13   32 1
    27   14   15 1
    28   14   33 1
    29   14   34 1
    30   15   16 1
    31   15   35 1
    32   15   36 1
    33   16   20 1
    34   16   17 2
    35   17   18 1
    36   17   37 1
    37   18   19 2
    38   19   20 1
    39   19   38 1
    40   20   21 1
@<TRIPOS>MOLECULE
ZINC01892860
   39    41     0     0     0
SMALL
USER_CHARGES

@<TRIPOS>ATOM
      1 C1         -0.0169    1.3962    0.0097 C.ar      1 <0>        -0.0189
      2 C2          1.1625    2.0954    0.0022 C.ar      1 <0>        -0.1606
      3 C3          2.3762    1.4165   -0.0135 C.ar      1 <0>         0.1572
      4 C4          2.4006    0.0259   -0.0212 C.ar      1 <0>        -0.2224
      5 C5          1.2269   -0.6828   -0.0138 C.ar      1 <0>        -0.0284
      6 C6          0.0021   -0.0041    0.0020 C.ar      1 <0>        -0.1965
      7 C7         -1.2581   -0.7581    0.0100 C.2       1 <0>         0.4253
      8 O1         -2.3178   -0.1681    0.0233 O.2       1 <0>        -0.4527
      9 C8         -1.2347   -2.2649    0.0017 C.3       1 <0>        -0.2245
     10 C9         -2.2150   -2.9815   -0.9291 C.3       1 <0>        -0.1467
     11 C10        -2.4480   -2.9935    0.5829 C.3       1 <0>        -0.1489
     12 O2          3.5404    2.1130   -0.0218 O.3       1 <0>        -0.3105
     13 C11         4.7507    1.3535   -0.0378 C.3       1 <0>         0.0546
     14 C12         5.9494    2.3043   -0.0452 C.3       1 <0>        -0.1206
     15 C13         7.2453    1.4912   -0.0624 C.3       1 <0>        -0.0608
     16 C14         8.4259    2.4277   -0.0696 C.2       1 <0>         0.0335
     17 C15         8.9723    3.0039   -1.1573 C.2       1 <0>         0.0370
     18 N1         10.0150    3.7732   -0.7163 N.pl3     1 <0>        -0.5090
     19 H1         10.6046    4.3131   -1.2656 H         1 <0>         0.4686
     20 C16        10.0696    3.6402    0.6265 C.cat     1 <0>         0.3079
     21 N2          9.1131    2.8380    1.0067 N.pl3     1 <0>        -0.4748
     22 H2         -0.9588    1.9243    0.0260 H         1 <0>         0.1443
     23 H3          1.1490    3.1753    0.0081 H         1 <0>         0.1393
     24 H4          3.3458   -0.4966   -0.0334 H         1 <0>         0.1336
     25 H5          1.2469   -1.7626   -0.0205 H         1 <0>         0.1381
     26 H6         -0.2556   -2.7207    0.1493 H         1 <0>         0.1243
     27 H7         -2.8768   -2.3632   -1.5355 H         1 <0>         0.1031
     28 H8         -1.8808   -3.9090   -1.3942 H         1 <0>         0.1071
     29 H9         -2.2673   -3.9288    1.1127 H         1 <0>         0.1065
     30 H10        -3.2632   -2.3830    0.9714 H         1 <0>         0.1060
     31 H11         4.7943    0.7207    0.8486 H         1 <0>         0.0700
     32 H12         4.7763    0.7297   -0.9313 H         1 <0>         0.0726
     33 H13         5.9057    2.9372   -0.9316 H         1 <0>         0.0877
     34 H14         5.9237    2.9282    0.8483 H         1 <0>         0.0805
     35 H15         7.2889    0.8584    0.8240 H         1 <0>         0.1009
     36 H16         7.2709    0.8673   -0.9558 H         1 <0>         0.1173
     37 H17         8.6499    2.8822   -2.1808 H         1 <0>         0.2275
     38 H18        10.7840    4.1213    1.2782 H         1 <0>         0.2672
     39 H19         8.9293    2.5779    1.9229 H         1 <0>         0.4653
@<TRIPOS>BOND
     1    1    6 ar
     2    1    2 ar
     3    1   22 1
     4    2    3 ar
     5    2   23 1
     6    3    4 ar
     7    3   12 1
     8    4    5 ar
     9    4   24 1
    10    5    6 ar
    11    5   25 1
    12    6    7 1
    13    7    8 2
    14    7    9 1
    15    9   11 1
    16    9   10 1
    17    9   26 1
    18   10   11 1
    19   10   27 1
    20   10   28 1
    21   11   29 1
    22   11   30 1
    23   12   13 1
    24   13   14 1
    25   13   31 1
    26   13   32 1
    27   14   15 1
    28   14   33 1
    29   14   34 1
    30   15   16 1
    31   15   35 1
    32   15   36 1
    33   16   21 1
    34   16   17 2
    35   17   18 1
    36   17   37 1
    37   18   19 1
    38   18   20 1
    39   20   21 2
    40   20   38 1
    41   21   39 1
@<TRIPOS>MOLECULE
ZINC01892860
   39    41     0     0     0
SMALL
USER_CHARGES

@<TRIPOS>ATOM
      1 C1         -0.0169    1.3962    0.0097 C.ar      1 <0>        -0.0189
      2 C2          1.1625    2.0954    0.0022 C.ar      1 <0>        -0.1606
      3 C3          2.3762    1.4165   -0.0135 C.ar      1 <0>         0.1572
      4 C4          2.4006    0.0259   -0.0212 C.ar      1 <0>        -0.2224
      5 C5          1.2269   -0.6828   -0.0138 C.ar      1 <0>        -0.0284
      6 C6          0.0021   -0.0041    0.0020 C.ar      1 <0>        -0.1965
      7 C7         -1.2581   -0.7581    0.0100 C.2       1 <0>         0.4253
      8 O1         -2.3178   -0.1681    0.0233 O.2       1 <0>        -0.4527
      9 C8         -1.2347   -2.2649    0.0017 C.3       1 <0>        -0.2245
     10 C9         -2.2150   -2.9815   -0.9291 C.3       1 <0>        -0.1467
     11 C10        -2.4480   -2.9935    0.5829 C.3       1 <0>        -0.1489
     12 O2          3.5404    2.1130   -0.0218 O.3       1 <0>        -0.3104
     13 C11         4.7507    1.3535   -0.0378 C.3       1 <0>         0.0547
     14 C12         5.9494    2.3043   -0.0452 C.3       1 <0>        -0.1201
     15 C13         7.2453    1.4912   -0.0624 C.3       1 <0>        -0.0608
     16 C14         8.4259    2.4277   -0.0696 C.2       1 <0>         0.0635
     17 N1          9.1358    2.8542    1.0203 N.pl3     1 <0>        -0.5108
     18 C15        10.1053    3.6783    0.5680 C.cat     1 <0>         0.3073
     19 N2         10.0094    3.7640   -0.7306 N.pl3     1 <0>        -0.4727
     20 C16         8.9890    3.0012   -1.1501 C.2       1 <0>         0.0056
     21 H1         -0.9588    1.9243    0.0260 H         1 <0>         0.1443
     22 H2          1.1490    3.1753    0.0081 H         1 <0>         0.1393
     23 H3          3.3458   -0.4966   -0.0334 H         1 <0>         0.1337
     24 H4          1.2469   -1.7626   -0.0205 H         1 <0>         0.1381
     25 H5         -0.2556   -2.7207    0.1493 H         1 <0>         0.1243
     26 H6         -2.8768   -2.3632   -1.5355 H         1 <0>         0.1031
     27 H7         -1.8808   -3.9090   -1.3942 H         1 <0>         0.1071
     28 H8         -2.2673   -3.9288    1.1127 H         1 <0>         0.1065
     29 H9         -3.2632   -2.3830    0.9714 H         1 <0>         0.1060
     30 H10         4.7943    0.7207    0.8486 H         1 <0>         0.0702
     31 H11         4.7763    0.7297   -0.9313 H         1 <0>         0.0727
     32 H12         5.9057    2.9372   -0.9316 H         1 <0>         0.0879
     33 H13         5.9237    2.9282    0.8483 H         1 <0>         0.0810
     34 H14         7.2889    0.8584    0.8240 H         1 <0>         0.1020
     35 H15         7.2709    0.8673   -0.9558 H         1 <0>         0.1186
     36 H16        10.8383    4.1831    1.1797 H         1 <0>         0.2671
     37 H17         8.6728    2.8717   -2.1747 H         1 <0>         0.2253
     38 H18         8.9728    2.6101    1.9448 H         1 <0>         0.4657
     39 H19        10.5871    4.2932   -1.3026 H         1 <0>         0.4682
@<TRIPOS>BOND
     1    1    6 ar
     2    1    2 ar
     3    1   21 1
     4    2    3 ar
     5    2   22 1
     6    3    4 ar
     7    3   12 1
     8    4    5 ar
     9    4   23 1
    10    5    6 ar
    11    5   24 1
    12    6    7 1
    13    7    8 2
    14    7    9 1
    15    9   11 1
    16    9   10 1
    17    9   25 1
    18   10   11 1
    19   10   26 1
    20   10   27 1
    21   11   28 1
    22   11   29 1
    23   12   13 1
    24   13   14 1
    25   13   30 1
    26   13   31 1
    27   14   15 1
    28   14   32 1
    29   14   33 1
    30   15   34 1
    31   15   35 1
    32   15   16 1
    33   16   17 1
    34   16   20 2
    35   17   18 1
    36   17   38 1
    37   18   36 1
    38   18   19 2
    39   19   20 1
    40   19   39 1
    41   20   37 1
@<TRIPOS>MOLECULE
ZINC01892860
   38    40     0     0     0
SMALL
USER_CHARGES

@<TRIPOS>ATOM
      1 C1         -0.0169    1.3962    0.0097 C.ar      1 <0>        -0.0188
      2 C2          1.1625    2.0954    0.0022 C.ar      1 <0>        -0.1665
      3 C3          2.3762    1.4165   -0.0135 C.ar      1 <0>         0.1685
      4 C4          2.4006    0.0259   -0.0212 C.ar      1 <0>        -0.2252
      5 C5          1.2269   -0.6828   -0.0138 C.ar      1 <0>        -0.0271
      6 C6          0.0021   -0.0041    0.0020 C.ar      1 <0>        -0.2089
      7 C7         -1.2581   -0.7581    0.0100 C.2       1 <0>         0.4286
      8 O1         -2.3178   -0.1681    0.0233 O.2       1 <0>        -0.4599
      9 C8         -1.2347   -2.2649    0.0017 C.3       1 <0>        -0.2221
     10 C9         -2.2150   -2.9815   -0.9291 C.3       1 <0>        -0.1479
     11 C10        -2.4480   -2.9935    0.5829 C.3       1 <0>        -0.1503
     12 O2          3.5404    2.1130   -0.0218 O.3       1 <0>        -0.3077
     13 C11         4.7507    1.3535   -0.0378 C.3       1 <0>         0.0561
     14 C12         5.9494    2.3043   -0.0452 C.3       1 <0>        -0.1106
     15 C13         7.2453    1.4912   -0.0624 C.3       1 <0>        -0.0289
     16 C14         8.4259    2.4277   -0.0696 C.2       1 <0>         0.0011
     17 N1          8.6474    3.4100   -0.9557 N.2       1 <0>        -0.4885
     18 C15         9.7636    4.0161   -0.6562 C.2       1 <0>         0.1872
     19 N2         10.2924    3.4325    0.4408 N.pl3     1 <0>        -0.5707
     20 C16         9.4406    2.4288    0.8158 C.2       1 <0>        -0.0525
     21 H1         -0.9588    1.9243    0.0260 H         1 <0>         0.1408
     22 H2          1.1490    3.1753    0.0081 H         1 <0>         0.1386
     23 H3          3.3458   -0.4966   -0.0334 H         1 <0>         0.1357
     24 H4          1.2469   -1.7626   -0.0205 H         1 <0>         0.1352
     25 H5         -0.2556   -2.7207    0.1493 H         1 <0>         0.1250
     26 H6         -2.8768   -2.3632   -1.5355 H         1 <0>         0.1020
     27 H7         -1.8808   -3.9090   -1.3942 H         1 <0>         0.1058
     28 H8         -2.2673   -3.9288    1.1127 H         1 <0>         0.1049
     29 H9         -3.2632   -2.3830    0.9714 H         1 <0>         0.1048
     30 H10         4.7943    0.7207    0.8486 H         1 <0>         0.0657
     31 H11         4.7763    0.7297   -0.9313 H         1 <0>         0.0671
     32 H12         5.9057    2.9372   -0.9316 H         1 <0>         0.0836
     33 H13         5.9237    2.9282    0.8483 H         1 <0>         0.0726
     34 H14         7.2889    0.8584    0.8240 H         1 <0>         0.0774
     35 H15         7.2709    0.8673   -0.9558 H         1 <0>         0.0781
     36 H16        10.1934    4.8467   -1.1965 H         1 <0>         0.2087
     37 H17         9.5602    1.7642    1.6587 H         1 <0>         0.1764
     38 H18        11.1196    3.6805    0.8825 H         1 <0>         0.4217
@<TRIPOS>BOND
     1    1    6 ar
     2    1    2 ar
     3    1   21 1
     4    2    3 ar
     5    2   22 1
     6    3    4 ar
     7    3   12 1
     8    4    5 ar
     9    4   23 1
    10    5    6 ar
    11    5   24 1
    12    6    7 1
    13    7    8 2
    14    7    9 1
    15    9   11 1
    16    9   10 1
    17    9   25 1
    18   10   11 1
    19   10   26 1
    20   10   27 1
    21   11   28 1
    22   11   29 1
    23   12   13 1
    24   13   14 1
    25   13   30 1
    26   13   31 1
    27   14   15 1
    28   14   32 1
    29   14   33 1
    30   15   34 1
    31   15   35 1
    32   15   16 1
    33   16   17 1
    34   16   20 2
    35   17   18 2
    36   18   36 1
    37   18   19 1
    38   19   20 1
    39   19   38 1
    40   20   37 1
@<TRIPOS>MOLECULE
ZINC14951170
   39    40     0     0     0
SMALL
USER_CHARGES

@<TRIPOS>ATOM
      1 C1         -0.0167    1.3782    0.0096 C.ar      1 <0>        -0.0763
      2 C2          1.1706    2.0858    0.0021 C.ar      1 <0>        -0.1096
      3 C3          2.3780    1.4104   -0.0130 C.ar      1 <0>        -0.0066
      4 C4          2.3961    0.0270   -0.0206 C.ar      1 <0>        -0.1095
      5 C5          1.2082   -0.6795   -0.0130 C.ar      1 <0>        -0.0760
      6 C6          0.0021   -0.0041    0.0020 C.ar      1 <0>        -0.1499
      7 C7         -1.2928   -0.7750    0.0107 C.3       1 <0>         0.1275
      8 N1         -1.7261   -1.0173   -1.3676 N.pl3     1 <0>        -0.5917
      9 C8         -2.8302   -1.6720   -1.5986 C.cat     1 <0>         0.4623
     10 N2         -3.2371   -1.8996   -2.8928 N.pl3     1 <0>        -0.8007
     11 S1         -3.8008   -2.2649   -0.2528 S.3       1 <0>         0.0840
     12 C9         -5.2034   -3.0908   -1.0536 C.3       1 <0>        -0.1548
     13 C10        -6.1386   -3.6595    0.0155 C.3       1 <0>        -0.1084
     14 C11        -7.3215   -4.3561   -0.6600 C.3       1 <0>        -0.0544
     15 C12        -8.2426   -4.9162    0.3930 C.2       1 <0>         0.0191
     16 C13        -8.1105   -6.1072    1.0077 C.2       1 <0>         0.0438
     17 N3         -9.1543   -6.2174    1.8862 N.pl3     1 <0>        -0.5082
     18 C14        -9.8885   -5.0892    1.7779 C.cat     1 <0>         0.3182
     19 N4         -9.3345   -4.3135    0.8866 N.pl3     1 <0>        -0.4762
     20 H1         -9.3333   -6.9661    2.4765 H         1 <0>         0.4716
     21 Cl1         3.8696    2.2984   -0.0231 Cl        1 <0>        -0.0368
     22 H2         -0.9592    1.9053    0.0259 H         1 <0>         0.1385
     23 H3          1.1558    3.1656    0.0076 H         1 <0>         0.1466
     24 H4          3.3383   -0.5007   -0.0327 H         1 <0>         0.1467
     25 H5          1.2222   -1.7594   -0.0193 H         1 <0>         0.1387
     26 H6         -1.1447   -1.7283    0.5180 H         1 <0>         0.1228
     27 H7         -2.0551   -0.1989    0.5352 H         1 <0>         0.1224
     28 H8         -2.7028   -1.5732   -3.6337 H         1 <0>         0.4322
     29 H9         -4.0583   -2.3865   -3.0646 H         1 <0>         0.4353
     30 H10        -5.7469   -2.3716   -1.6664 H         1 <0>         0.1184
     31 H11        -4.8365   -3.9011   -1.6837 H         1 <0>         0.1208
     32 H12        -5.5951   -4.3787    0.6283 H         1 <0>         0.0974
     33 H13        -6.5055   -2.8492    0.6455 H         1 <0>         0.0904
     34 H14        -7.8650   -3.6369   -1.2728 H         1 <0>         0.1042
     35 H15        -6.9546   -5.1663   -1.2900 H         1 <0>         0.1200
     36 H16        -7.3310   -6.8355    0.8394 H         1 <0>         0.2277
     37 H17       -10.7836   -4.8643    2.3388 H         1 <0>         0.2697
     38 H18        -1.1917   -0.6909   -2.1085 H         1 <0>         0.4350
     39 H19        -9.6617   -3.4397    0.6215 H         1 <0>         0.4658
@<TRIPOS>BOND
     1    1    6 ar
     2    1    2 ar
     3    1   22 1
     4    2    3 ar
     5    2   23 1
     6    3    4 ar
     7    3   21 1
     8    4    5 ar
     9    4   24 1
    10    5    6 ar
    11    5   25 1
    12    6    7 1
    13    7    8 1
    14    7   26 1
    15    7   27 1
    16    8    9 2
    17    8   38 1
    18    9   10 1
    19    9   11 1
    20   10   28 1
    21   10   29 1
    22   11   12 1
    23   12   13 1
    24   12   30 1
    25   12   31 1
    26   13   14 1
    27   13   32 1
    28   13   33 1
    29   14   34 1
    30   14   35 1
    31   14   15 1
    32   15   19 1
    33   15   16 2
    34   16   36 1
    35   16   17 1
    36   17   18 1
    37   17   20 1
    38   18   37 1
    39   18   19 2
    40   19   39 1
@<TRIPOS>MOLECULE
ZINC14951170
   38    39     0     0     0
SMALL
USER_CHARGES

@<TRIPOS>ATOM
      1 C1         -0.0167    1.3782    0.0096 C.ar      1 <0>        -0.0773
      2 C2          1.1706    2.0858    0.0021 C.ar      1 <0>        -0.1097
      3 C3          2.3780    1.4104   -0.0130 C.ar      1 <0>        -0.0104
      4 C4          2.3961    0.0270   -0.0206 C.ar      1 <0>        -0.1099
      5 C5          1.2082   -0.6795   -0.0130 C.ar      1 <0>        -0.0775
      6 C6          0.0021   -0.0041    0.0020 C.ar      1 <0>        -0.1381
      7 C7         -1.2928   -0.7750    0.0107 C.3       1 <0>         0.1298
      8 N1         -1.7261   -1.0173   -1.3676 N.pl3     1 <0>        -0.6435
      9 C8         -2.8907   -1.7079   -1.6112 C.cat     1 <0>         0.4683
     10 N2         -3.6091   -2.1467   -0.6150 N.pl3     1 <0>        -0.7533
     11 S1         -3.4118   -1.9994   -3.2689 S.3       1 <0>         0.0755
     12 C9         -4.9616   -2.9240   -3.0856 C.3       1 <0>        -0.1439
     13 C10        -5.5297   -3.2466   -4.4691 C.3       1 <0>        -0.0992
     14 C11        -6.8370   -4.0265   -4.3145 C.3       1 <0>        -0.0205
     15 C12        -7.3965   -4.3443   -5.6772 C.2       1 <0>        -0.0136
     16 C13        -7.7232   -5.5687   -6.1327 C.2       1 <0>        -0.0442
     17 N3         -8.1905   -5.4049   -7.4088 N.pl3     1 <0>        -0.5673
     18 H1         -8.5043   -6.1060   -8.0012 H         1 <0>         0.4255
     19 C14        -8.1331   -4.0851   -7.6889 C.2       1 <0>         0.1946
     20 N4         -7.6619   -3.4564   -6.6469 N.2       1 <0>        -0.4919
     21 Cl1         3.8696    2.2984   -0.0231 Cl        1 <0>        -0.0438
     22 H2         -0.9592    1.9053    0.0259 H         1 <0>         0.1380
     23 H3          1.1558    3.1656    0.0076 H         1 <0>         0.1447
     24 H4          3.3383   -0.5007   -0.0327 H         1 <0>         0.1446
     25 H5          1.2222   -1.7594   -0.0193 H         1 <0>         0.1377
     26 H6         -1.1447   -1.7283    0.5180 H         1 <0>         0.1053
     27 H7         -2.0551   -0.1989    0.5352 H         1 <0>         0.1054
     28 H8         -1.1917   -0.6909   -2.1085 H         1 <0>         0.4436
     29 H9         -4.4303   -2.6336   -0.7868 H         1 <0>         0.4414
     30 H10        -4.7697   -3.8516   -2.5463 H         1 <0>         0.1142
     31 H11        -5.6801   -2.3222   -2.5291 H         1 <0>         0.1154
     32 H12        -5.7217   -2.3190   -5.0084 H         1 <0>         0.0945
     33 H13        -4.8113   -3.8485   -5.0256 H         1 <0>         0.0841
     34 H14        -6.6450   -4.9541   -3.7752 H         1 <0>         0.0812
     35 H15        -7.5554   -3.4247   -3.7580 H         1 <0>         0.0815
     36 H16        -7.6334   -6.5009   -5.5946 H         1 <0>         0.1772
     37 H17        -8.4315   -3.6256   -8.6195 H         1 <0>         0.2111
     38 H18        -3.3223   -1.9862    0.2976 H         1 <0>         0.4303
@<TRIPOS>BOND
     1    1    6 ar
     2    1    2 ar
     3    1   22 1
     4    2    3 ar
     5    2   23 1
     6    3    4 ar
     7    3   21 1
     8    4    5 ar
     9    4   24 1
    10    5    6 ar
    11    5   25 1
    12    6    7 1
    13    7    8 1
    14    7   26 1
    15    7   27 1
    16    8    9 1
    17    8   28 1
    18    9   10 2
    19    9   11 1
    20   10   29 1
    21   10   38 1
    22   11   12 1
    23   12   13 1
    24   12   30 1
    25   12   31 1
    26   13   14 1
    27   13   32 1
    28   13   33 1
    29   14   15 1
    30   14   34 1
    31   14   35 1
    32   15   20 1
    33   15   16 2
    34   16   17 1
    35   16   36 1
    36   17   18 1
    37   17   19 1
    38   19   20 2
    39   19   37 1
@<TRIPOS>MOLECULE
ZINC14951170
   38    39     0     0     0
SMALL
USER_CHARGES

@<TRIPOS>ATOM
      1 C1         -0.0167    1.3782    0.0096 C.ar      1 <0>        -0.0770
      2 C2          1.1706    2.0858    0.0021 C.ar      1 <0>        -0.1104
      3 C3          2.3780    1.4104   -0.0130 C.ar      1 <0>        -0.0098
      4 C4          2.3961    0.0270   -0.0206 C.ar      1 <0>        -0.1102
      5 C5          1.2082   -0.6795   -0.0130 C.ar      1 <0>        -0.0766
      6 C6          0.0021   -0.0041    0.0020 C.ar      1 <0>        -0.1423
      7 C7         -1.2928   -0.7750    0.0107 C.3       1 <0>         0.1279
      8 N1         -1.7261   -1.0173   -1.3676 N.pl3     1 <0>        -0.6001
      9 C8         -2.8302   -1.6720   -1.5986 C.cat     1 <0>         0.4596
     10 N2         -3.2371   -1.8996   -2.8928 N.pl3     1 <0>        -0.8019
     11 S1         -3.8008   -2.2649   -0.2528 S.3       1 <0>         0.0819
     12 C9         -5.2034   -3.0908   -1.0536 C.3       1 <0>        -0.1446
     13 C10        -6.1386   -3.6595    0.0155 C.3       1 <0>        -0.0993
     14 C11        -7.3215   -4.3561   -0.6600 C.3       1 <0>        -0.0210
     15 C12        -8.2426   -4.9162    0.3930 C.2       1 <0>        -0.0131
     16 C13        -9.5614   -4.6673    0.5044 C.2       1 <0>        -0.0445
     17 N3        -10.0073   -5.3726    1.5895 N.pl3     1 <0>        -0.5673
     18 C14        -8.9447   -6.0283    2.1038 C.2       1 <0>         0.1943
     19 N4         -7.8938   -5.7546    1.3802 N.2       1 <0>        -0.4919
     20 H1        -10.9167   -5.3968    1.9261 H         1 <0>         0.4254
     21 Cl1         3.8696    2.2984   -0.0231 Cl        1 <0>        -0.0434
     22 H2         -0.9592    1.9053    0.0259 H         1 <0>         0.1391
     23 H3          1.1558    3.1656    0.0076 H         1 <0>         0.1449
     24 H4          3.3383   -0.5007   -0.0327 H         1 <0>         0.1450
     25 H5          1.2222   -1.7594   -0.0193 H         1 <0>         0.1394
     26 H6         -1.1447   -1.7283    0.5180 H         1 <0>         0.1222
     27 H7         -2.0551   -0.1989    0.5352 H         1 <0>         0.1217
     28 H8         -2.7028   -1.5732   -3.6337 H         1 <0>         0.4278
     29 H9         -4.0583   -2.3865   -3.0646 H         1 <0>         0.4373
     30 H10        -5.7469   -2.3716   -1.6664 H         1 <0>         0.1138
     31 H11        -4.8365   -3.9011   -1.6837 H         1 <0>         0.1150
     32 H12        -5.5951   -4.3787    0.6283 H         1 <0>         0.0936
     33 H13        -6.5055   -2.8492    0.6455 H         1 <0>         0.0831
     34 H14        -7.8650   -3.6369   -1.2728 H         1 <0>         0.0811
     35 H15        -6.9546   -5.1663   -1.2900 H         1 <0>         0.0813
     36 H16       -10.1534   -4.0330   -0.1387 H         1 <0>         0.1771
     37 H17        -8.9625   -6.6754    2.9684 H         1 <0>         0.2110
     38 H18        -1.1917   -0.6909   -2.1085 H         1 <0>         0.4308
@<TRIPOS>BOND
     1    1    6 ar
     2    1    2 ar
     3    1   22 1
     4    2    3 ar
     5    2   23 1
     6    3    4 ar
     7    3   21 1
     8    4    5 ar
     9    4   24 1
    10    5    6 ar
    11    5   25 1
    12    6    7 1
    13    7    8 1
    14    7   26 1
    15    7   27 1
    16    8    9 2
    17    8   38 1
    18    9   10 1
    19    9   11 1
    20   10   28 1
    21   10   29 1
    22   11   12 1
    23   12   13 1
    24   12   30 1
    25   12   31 1
    26   13   14 1
    27   13   32 1
    28   13   33 1
    29   14   34 1
    30   14   35 1
    31   14   15 1
    32   15   19 1
    33   15   16 2
    34   16   36 1
    35   16   17 1
    36   17   18 1
    37   17   20 1
    38   18   37 1
    39   18   19 2
@<TRIPOS>MOLECULE
ZINC14951170
   38    39     0     0     0
SMALL
USER_CHARGES

@<TRIPOS>ATOM
      1 C1         -0.0167    1.3782    0.0096 C.ar      1 <0>        -0.0764
      2 C2          1.1706    2.0858    0.0021 C.ar      1 <0>        -0.1092
      3 C3          2.3780    1.4104   -0.0130 C.ar      1 <0>        -0.0085
      4 C4          2.3961    0.0270   -0.0206 C.ar      1 <0>        -0.1094
      5 C5          1.2082   -0.6795   -0.0130 C.ar      1 <0>        -0.0767
      6 C6          0.0021   -0.0041    0.0020 C.ar      1 <0>        -0.1442
      7 C7         -1.2928   -0.7750    0.0107 C.3       1 <0>         0.1192
      8 N1         -1.7261   -1.0173   -1.3676 N.pl3     1 <0>        -0.5973
      9 C8         -2.8302   -1.6720   -1.5986 C.cat     1 <0>         0.4675
     10 N2         -3.5880   -2.1349   -0.5479 N.pl3     1 <0>        -0.7982
     11 S1         -3.3513   -1.9636   -3.2563 S.3       1 <0>         0.0686
     12 C9         -4.9012   -2.8882   -3.0730 C.3       1 <0>        -0.1398
     13 C10        -5.4693   -3.2108   -4.4565 C.3       1 <0>        -0.1052
     14 C11        -6.7765   -3.9907   -4.3018 C.3       1 <0>        -0.0310
     15 C12        -7.3361   -4.3084   -5.6645 C.2       1 <0>        -0.0447
     16 C13        -8.1073   -3.5059   -6.4227 C.2       1 <0>        -0.0093
     17 N3         -8.3925   -4.1579   -7.5597 N.2       1 <0>        -0.4916
     18 C14        -7.8274   -5.3339   -7.5348 C.2       1 <0>         0.1983
     19 N4         -7.1533   -5.4659   -6.3720 N.pl3     1 <0>        -0.5676
     20 Cl1         3.8696    2.2984   -0.0231 Cl        1 <0>        -0.0414
     21 H1         -0.9592    1.9053    0.0259 H         1 <0>         0.1387
     22 H2          1.1558    3.1656    0.0076 H         1 <0>         0.1458
     23 H3          3.3383   -0.5007   -0.0327 H         1 <0>         0.1456
     24 H4          1.2222   -1.7594   -0.0193 H         1 <0>         0.1383
     25 H5         -1.1447   -1.7283    0.5180 H         1 <0>         0.1145
     26 H6         -2.0551   -0.1989    0.5352 H         1 <0>         0.1149
     27 H7         -3.3011   -1.9744    0.3647 H         1 <0>         0.4281
     28 H8         -4.4092   -2.6218   -0.7196 H         1 <0>         0.4372
     29 H9         -4.7093   -3.8158   -2.5337 H         1 <0>         0.1148
     30 H10        -5.6197   -2.2864   -2.5165 H         1 <0>         0.1179
     31 H11        -5.6612   -2.2832   -4.9958 H         1 <0>         0.0930
     32 H12        -4.7508   -3.8126   -5.0130 H         1 <0>         0.0843
     33 H13        -6.5846   -4.9183   -3.7625 H         1 <0>         0.0781
     34 H14        -7.4950   -3.3888   -3.7453 H         1 <0>         0.0962
     35 H15        -8.4381   -2.5117   -6.1612 H         1 <0>         0.1699
     36 H16        -7.8857   -6.0770   -8.3164 H         1 <0>         0.2122
     37 H17        -1.1917   -0.6909   -2.1085 H         1 <0>         0.4474
     38 H18        -6.6377   -6.2375   -6.0900 H         1 <0>         0.4200
@<TRIPOS>BOND
     1    1    6 ar
     2    1    2 ar
     3    1   21 1
     4    2    3 ar
     5    2   22 1
     6    3    4 ar
     7    3   20 1
     8    4    5 ar
     9    4   23 1
    10    5    6 ar
    11    5   24 1
    12    6    7 1
    13    7    8 1
    14    7   25 1
    15    7   26 1
    16    8    9 2
    17    8   37 1
    18    9   10 1
    19    9   11 1
    20   10   27 1
    21   10   28 1
    22   11   12 1
    23   12   13 1
    24   12   29 1
    25   12   30 1
    26   13   14 1
    27   13   31 1
    28   13   32 1
    29   14   33 1
    30   14   34 1
    31   14   15 1
    32   15   19 1
    33   15   16 2
    34   16   35 1
    35   16   17 1
    36   17   18 2
    37   18   36 1
    38   18   19 1
    39   19   38 1
@<TRIPOS>MOLECULE
ZINC14951170
   38    39     0     0     0
SMALL
USER_CHARGES

@<TRIPOS>ATOM
      1 C1         -0.0167    1.3782    0.0096 C.ar      1 <0>        -0.0766
      2 C2          1.1706    2.0858    0.0021 C.ar      1 <0>        -0.1093
      3 C3          2.3780    1.4104   -0.0130 C.ar      1 <0>        -0.0090
      4 C4          2.3961    0.0270   -0.0206 C.ar      1 <0>        -0.1095
      5 C5          1.2082   -0.6795   -0.0130 C.ar      1 <0>        -0.0768
      6 C6          0.0021   -0.0041    0.0020 C.ar      1 <0>        -0.1431
      7 C7         -1.2928   -0.7750    0.0107 C.3       1 <0>         0.1194
      8 N1         -1.7261   -1.0173   -1.3676 N.pl3     1 <0>        -0.5991
      9 C8         -2.8302   -1.6720   -1.5986 C.cat     1 <0>         0.4669
     10 N2         -3.5880   -2.1349   -0.5479 N.pl3     1 <0>        -0.7986
     11 S1         -3.3513   -1.9636   -3.2563 S.3       1 <0>         0.0683
     12 C9         -4.9012   -2.8882   -3.0730 C.3       1 <0>        -0.1379
     13 C10        -5.4693   -3.2108   -4.4565 C.3       1 <0>        -0.1002
     14 C11        -6.7765   -3.9907   -4.3018 C.3       1 <0>        -0.0206
     15 C12        -7.3361   -4.3084   -5.6645 C.2       1 <0>        -0.0132
     16 C13        -7.6628   -5.5329   -6.1200 C.2       1 <0>        -0.0445
     17 N3         -8.1301   -5.3691   -7.3961 N.pl3     1 <0>        -0.5673
     18 C14        -8.0727   -4.0493   -7.6762 C.2       1 <0>         0.1943
     19 N4         -7.6015   -3.4206   -6.6342 N.2       1 <0>        -0.4919
     20 H1         -8.4439   -6.0701   -7.9886 H         1 <0>         0.4255
     21 Cl1         3.8696    2.2984   -0.0231 Cl        1 <0>        -0.0423
     22 H2         -0.9592    1.9053    0.0259 H         1 <0>         0.1387
     23 H3          1.1558    3.1656    0.0076 H         1 <0>         0.1455
     24 H4          3.3383   -0.5007   -0.0327 H         1 <0>         0.1453
     25 H5          1.2222   -1.7594   -0.0193 H         1 <0>         0.1384
     26 H6         -1.1447   -1.7283    0.5180 H         1 <0>         0.1140
     27 H7         -2.0551   -0.1989    0.5352 H         1 <0>         0.1141
     28 H8         -3.3011   -1.9744    0.3647 H         1 <0>         0.4272
     29 H9         -4.4092   -2.6218   -0.7196 H         1 <0>         0.4375
     30 H10        -4.7093   -3.8158   -2.5337 H         1 <0>         0.1142
     31 H11        -5.6197   -2.2864   -2.5165 H         1 <0>         0.1154
     32 H12        -5.6612   -2.2832   -4.9958 H         1 <0>         0.0938
     33 H13        -4.7508   -3.8126   -5.0130 H         1 <0>         0.0833
     34 H14        -6.5846   -4.9183   -3.7625 H         1 <0>         0.0812
     35 H15        -7.4950   -3.3888   -3.7453 H         1 <0>         0.0815
     36 H16        -7.5730   -6.4650   -5.5820 H         1 <0>         0.1771
     37 H17        -8.3711   -3.5898   -8.6069 H         1 <0>         0.2111
     38 H18        -1.1917   -0.6909   -2.1085 H         1 <0>         0.4471
@<TRIPOS>BOND
     1    1    6 ar
     2    1    2 ar
     3    1   22 1
     4    2    3 ar
     5    2   23 1
     6    3    4 ar
     7    3   21 1
     8    4    5 ar
     9    4   24 1
    10    5    6 ar
    11    5   25 1
    12    6    7 1
    13    7    8 1
    14    7   26 1
    15    7   27 1
    16    8    9 2
    17    8   38 1
    18    9   10 1
    19    9   11 1
    20   10   28 1
    21   10   29 1
    22   11   12 1
    23   12   13 1
    24   12   30 1
    25   12   31 1
    26   13   14 1
    27   13   32 1
    28   13   33 1
    29   14   34 1
    30   14   35 1
    31   14   15 1
    32   15   19 1
    33   15   16 2
    34   16   36 1
    35   16   17 1
    36   17   18 1
    37   17   20 1
    38   18   37 1
    39   18   19 2
@<TRIPOS>MOLECULE
ZINC14951170
   38    39     0     0     0
SMALL
USER_CHARGES

@<TRIPOS>ATOM
      1 C1         -0.0167    1.3782    0.0096 C.ar      1 <0>        -0.0769
      2 C2          1.1706    2.0858    0.0021 C.ar      1 <0>        -0.1102
      3 C3          2.3780    1.4104   -0.0130 C.ar      1 <0>        -0.0092
      4 C4          2.3961    0.0270   -0.0206 C.ar      1 <0>        -0.1100
      5 C5          1.2082   -0.6795   -0.0130 C.ar      1 <0>        -0.0764
      6 C6          0.0021   -0.0041    0.0020 C.ar      1 <0>        -0.1435
      7 C7         -1.2928   -0.7750    0.0107 C.3       1 <0>         0.1276
      8 N1         -1.7261   -1.0173   -1.3676 N.pl3     1 <0>        -0.5983
      9 C8         -2.8302   -1.6720   -1.5986 C.cat     1 <0>         0.4603
     10 N2         -3.2371   -1.8996   -2.8928 N.pl3     1 <0>        -0.8016
     11 S1         -3.8008   -2.2649   -0.2528 S.3       1 <0>         0.0825
     12 C9         -5.2034   -3.0908   -1.0536 C.3       1 <0>        -0.1465
     13 C10        -6.1386   -3.6595    0.0155 C.3       1 <0>        -0.1043
     14 C11        -7.3215   -4.3561   -0.6600 C.3       1 <0>        -0.0313
     15 C12        -8.2426   -4.9162    0.3930 C.2       1 <0>        -0.0446
     16 C13        -8.1222   -6.1045    1.0152 C.2       1 <0>        -0.0094
     17 N3         -9.1407   -6.2256    1.8794 N.2       1 <0>        -0.4917
     18 C14        -9.8878   -5.1574    1.8165 C.2       1 <0>         0.1982
     19 N4         -9.3592   -4.3124    0.9053 N.pl3     1 <0>        -0.5675
     20 Cl1         3.8696    2.2984   -0.0231 Cl        1 <0>        -0.0424
     21 H1         -0.9592    1.9053    0.0259 H         1 <0>         0.1390
     22 H2          1.1558    3.1656    0.0076 H         1 <0>         0.1451
     23 H3          3.3383   -0.5007   -0.0327 H         1 <0>         0.1454
     24 H4          1.2222   -1.7594   -0.0193 H         1 <0>         0.1394
     25 H5         -1.1447   -1.7283    0.5180 H         1 <0>         0.1225
     26 H6         -2.0551   -0.1989    0.5352 H         1 <0>         0.1219
     27 H7         -2.7028   -1.5732   -3.6337 H         1 <0>         0.4287
     28 H8         -4.0583   -2.3865   -3.0646 H         1 <0>         0.4370
     29 H9         -5.7469   -2.3716   -1.6664 H         1 <0>         0.1144
     30 H10        -4.8365   -3.9011   -1.6837 H         1 <0>         0.1175
     31 H11        -5.5951   -4.3787    0.6283 H         1 <0>         0.0928
     32 H12        -6.5055   -2.8492    0.6455 H         1 <0>         0.0841
     33 H13        -7.8650   -3.6369   -1.2728 H         1 <0>         0.0780
     34 H14        -6.9546   -5.1663   -1.2900 H         1 <0>         0.0961
     35 H15        -7.3421   -6.8324    0.8476 H         1 <0>         0.1699
     36 H16       -10.7789   -4.9773    2.3995 H         1 <0>         0.2121
     37 H17        -1.1917   -0.6909   -2.1085 H         1 <0>         0.4316
     38 H18        -9.7070   -3.4413    0.6583 H         1 <0>         0.4200
@<TRIPOS>BOND
     1    1    6 ar
     2    1    2 ar
     3    1   21 1
     4    2    3 ar
     5    2   22 1
     6    3    4 ar
     7    3   20 1
     8    4    5 ar
     9    4   23 1
    10    5    6 ar
    11    5   24 1
    12    6    7 1
    13    7    8 1
    14    7   25 1
    15    7   26 1
    16    8    9 2
    17    8   37 1
    18    9   10 1
    19    9   11 1
    20   10   27 1
    21   10   28 1
    22   11   12 1
    23   12   13 1
    24   12   29 1
    25   12   30 1
    26   13   14 1
    27   13   31 1
    28   13   32 1
    29   14   33 1
    30   14   34 1
    31   14   15 1
    32   15   19 1
    33   15   16 2
    34   16   35 1
    35   16   17 1
    36   17   18 2
    37   18   36 1
    38   18   19 1
    39   19   38 1
@<TRIPOS>MOLECULE
ZINC14951170
   38    39     0     0     0
SMALL
USER_CHARGES

@<TRIPOS>ATOM
      1 C1         -0.0167    1.3782    0.0096 C.ar      1 <0>        -0.0772
      2 C2          1.1706    2.0858    0.0021 C.ar      1 <0>        -0.1096
      3 C3          2.3780    1.4104   -0.0130 C.ar      1 <0>        -0.0099
      4 C4          2.3961    0.0270   -0.0206 C.ar      1 <0>        -0.1098
      5 C5          1.2082   -0.6795   -0.0130 C.ar      1 <0>        -0.0774
      6 C6          0.0021   -0.0041    0.0020 C.ar      1 <0>        -0.1391
      7 C7         -1.2928   -0.7750    0.0107 C.3       1 <0>         0.1296
      8 N1         -1.7261   -1.0173   -1.3676 N.pl3     1 <0>        -0.6417
      9 C8         -2.8907   -1.7079   -1.6112 C.cat     1 <0>         0.4690
     10 N2         -3.6091   -2.1467   -0.6150 N.pl3     1 <0>        -0.7529
     11 S1         -3.4118   -1.9994   -3.2689 S.3       1 <0>         0.0759
     12 C9         -4.9616   -2.9240   -3.0856 C.3       1 <0>        -0.1458
     13 C10        -5.5297   -3.2466   -4.4691 C.3       1 <0>        -0.1042
     14 C11        -6.8370   -4.0265   -4.3145 C.3       1 <0>        -0.0308
     15 C12        -7.3965   -4.3443   -5.6772 C.2       1 <0>        -0.0452
     16 C13        -8.1677   -3.5418   -6.4354 C.2       1 <0>        -0.0089
     17 N3         -8.4529   -4.1938   -7.5723 N.2       1 <0>        -0.4916
     18 C14        -7.8878   -5.3698   -7.5474 C.2       1 <0>         0.1986
     19 N4         -7.2137   -5.5017   -6.3847 N.pl3     1 <0>        -0.5675
     20 Cl1         3.8696    2.2984   -0.0231 Cl        1 <0>        -0.0429
     21 H1         -0.9592    1.9053    0.0259 H         1 <0>         0.1380
     22 H2          1.1558    3.1656    0.0076 H         1 <0>         0.1450
     23 H3          3.3383   -0.5007   -0.0327 H         1 <0>         0.1448
     24 H4          1.2222   -1.7594   -0.0193 H         1 <0>         0.1376
     25 H5         -1.1447   -1.7283    0.5180 H         1 <0>         0.1058
     26 H6         -2.0551   -0.1989    0.5352 H         1 <0>         0.1061
     27 H7         -1.1917   -0.6909   -2.1085 H         1 <0>         0.4440
     28 H8         -4.4303   -2.6336   -0.7868 H         1 <0>         0.4411
     29 H9         -4.7697   -3.8516   -2.5463 H         1 <0>         0.1147
     30 H10        -5.6801   -2.3222   -2.5291 H         1 <0>         0.1178
     31 H11        -5.7217   -2.3190   -5.0084 H         1 <0>         0.0937
     32 H12        -4.8113   -3.8485   -5.0256 H         1 <0>         0.0850
     33 H13        -6.6450   -4.9541   -3.7752 H         1 <0>         0.0781
     34 H14        -7.5554   -3.4247   -3.7580 H         1 <0>         0.0962
     35 H15        -8.4985   -2.5475   -6.1738 H         1 <0>         0.1700
     36 H16        -7.9461   -6.1128   -8.3290 H         1 <0>         0.2123
     37 H17        -3.3223   -1.9862    0.2976 H         1 <0>         0.4312
     38 H18        -6.6981   -6.2734   -6.1026 H         1 <0>         0.4201
@<TRIPOS>BOND
     1    1    6 ar
     2    1    2 ar
     3    1   21 1
     4    2    3 ar
     5    2   22 1
     6    3    4 ar
     7    3   20 1
     8    4    5 ar
     9    4   23 1
    10    5    6 ar
    11    5   24 1
    12    6    7 1
    13    7    8 1
    14    7   25 1
    15    7   26 1
    16    8    9 1
    17    8   27 1
    18    9   10 2
    19    9   11 1
    20   10   28 1
    21   10   37 1
    22   11   12 1
    23   12   13 1
    24   12   29 1
    25   12   30 1
    26   13   14 1
    27   13   31 1
    28   13   32 1
    29   14   15 1
    30   14   33 1
    31   14   34 1
    32   15   19 1
    33   15   16 2
    34   16   17 1
    35   16   35 1
    36   17   18 2
    37   18   19 1
    38   18   36 1
    39   19   38 1
@<TRIPOS>MOLECULE
ZINC28114997
   32    33     0     0     0
SMALL
USER_CHARGES
4-(1H-imidazol-4-ylmethyl)-1-methyl-piperidine
@<TRIPOS>ATOM
      1 C1         -1.7396    5.4397    0.0470 C.3       1 <0>        -0.0484
      2 N1         -1.5310    3.9856    0.0373 N.4       1 <0>        -0.4005
      3 C2         -0.8323    3.5623   -1.1830 C.3       1 <0>        -0.0067
      4 C3         -0.7618    2.0343   -1.2280 C.3       1 <0>        -0.1452
      5 C4         -0.0187    1.5258    0.0104 C.3       1 <0>        -0.1031
      6 C5         -0.7379    2.0208    1.2682 C.3       1 <0>        -0.1460
      7 C6         -0.8105    3.5493    1.2401 C.3       1 <0>        -0.0056
      8 C7          0.0021   -0.0041    0.0020 C.3       1 <0>        -0.0595
      9 C8          0.8348   -0.5015    1.1553 C.2       1 <0>         0.0078
     10 C9          0.4311   -1.3612    2.1101 C.2       1 <0>         0.0255
     11 N2          1.4936   -1.5437    2.9536 N.pl3     1 <0>        -0.5281
     12 H1          1.4008   -2.2191    3.8169 H         1 <0>         0.5120
     13 C10         2.5074   -0.7816    2.4897 C.cat     1 <0>         0.3302
     14 N3          2.1061   -0.1611    1.4141 N.pl3     1 <0>        -0.5002
     15 H2         -2.2802    5.7386   -0.8632 H         1 <0>         0.1292
     16 H3         -0.7655    5.9496    0.0790 H         1 <0>         0.1200
     17 H4         -2.3293    5.7196    0.9324 H         1 <0>         0.1276
     18 H5         -1.3783    3.9298   -2.0643 H         1 <0>         0.1389
     19 H6          0.1869    3.9761   -1.1843 H         1 <0>         0.1267
     20 H7         -1.7809    1.6205   -1.2419 H         1 <0>         0.0988
     21 H8         -0.2255    1.7185   -2.1350 H         1 <0>         0.1194
     22 H9          1.0145    1.9031    0.0025 H         1 <0>         0.0861
     23 H10        -1.7555    1.6040    1.2967 H         1 <0>         0.0991
     24 H11        -0.1830    1.6946    2.1602 H         1 <0>         0.1026
     25 H12         0.2084    3.9637    1.2277 H         1 <0>         0.1247
     26 H13        -1.3408    3.9068    2.1351 H         1 <0>         0.1354
     27 H14        -1.0251   -0.3853    0.1001 H         1 <0>         0.1173
     28 H15         0.4364   -0.3597   -0.9440 H         1 <0>         0.1120
     29 H16        -0.5430   -1.8200    2.1931 H         1 <0>         0.2214
     30 H17         3.4879   -0.6994    2.9350 H         1 <0>         0.2626
     31 H18        -2.5184    3.5007    0.0437 H         1 <0>         0.4458
     32 H19         2.6326    0.5428    0.7527 H         1 <0>         0.5001
@<TRIPOS>BOND
     1    1    2 1
     2    1   15 1
     3    1   16 1
     4    1   17 1
     5    2    7 1
     6    2    3 1
     7    2   31 1
     8    3    4 1
     9    3   18 1
    10    3   19 1
    11    4    5 1
    12    4   20 1
    13    4   21 1
    14    5    6 1
    15    5    8 1
    16    5   22 1
    17    6    7 1
    18    6   23 1
    19    6   24 1
    20    7   25 1
    21    7   26 1
    22    8    9 1
    23    8   27 1
    24    8   28 1
    25    9   14 1
    26    9   10 2
    27   10   11 1
    28   10   29 1
    29   11   12 1
    30   11   13 1
    31   13   14 2
    32   13   30 1
    33   14   32 1
@<TRIPOS>MOLECULE
ZINC28114997
   31    32     0     0     0
SMALL
USER_CHARGES
4-(1H-imidazol-4-ylmethyl)-1-methyl-piperidine
@<TRIPOS>ATOM
      1 C1         -1.7396    5.4397    0.0470 C.3       1 <0>        -0.0459
      2 N1         -1.5310    3.9856    0.0373 N.4       1 <0>        -0.3987
      3 C2         -0.8323    3.5623   -1.1830 C.3       1 <0>        -0.0039
      4 C3         -0.7618    2.0343   -1.2280 C.3       1 <0>        -0.1446
      5 C4         -0.0187    1.5258    0.0104 C.3       1 <0>        -0.0932
      6 C5         -0.7379    2.0208    1.2682 C.3       1 <0>        -0.1384
      7 C6         -0.8105    3.5493    1.2401 C.3       1 <0>        -0.0036
      8 C7          0.0021   -0.0041    0.0020 C.3       1 <0>        -0.0295
      9 C8          0.8348   -0.5015    1.1553 C.2       1 <0>        -0.0215
     10 C9          0.4311   -1.3612    2.1101 C.2       1 <0>        -0.0516
     11 N2          1.4936   -1.5437    2.9536 N.pl3     1 <0>        -0.5668
     12 C10         2.5074   -0.7816    2.4897 C.2       1 <0>         0.2149
     13 N3          2.1061   -0.1611    1.4141 N.2       1 <0>        -0.4996
     14 H1         -2.2802    5.7386   -0.8632 H         1 <0>         0.1237
     15 H2         -0.7655    5.9496    0.0790 H         1 <0>         0.1179
     16 H3         -2.3293    5.7196    0.9324 H         1 <0>         0.1232
     17 H4         -1.3783    3.9298   -2.0643 H         1 <0>         0.1304
     18 H5          0.1869    3.9761   -1.1843 H         1 <0>         0.1252
     19 H6         -1.7809    1.6205   -1.2419 H         1 <0>         0.0887
     20 H7         -0.2255    1.7185   -2.1350 H         1 <0>         0.1129
     21 H8          1.0145    1.9031    0.0025 H         1 <0>         0.0967
     22 H9         -1.7555    1.6040    1.2967 H         1 <0>         0.0862
     23 H10        -0.1830    1.6946    2.1602 H         1 <0>         0.1083
     24 H11         0.2084    3.9637    1.2277 H         1 <0>         0.1246
     25 H12        -1.3408    3.9068    2.1351 H         1 <0>         0.1283
     26 H13        -1.0251   -0.3853    0.1001 H         1 <0>         0.0785
     27 H14         0.4364   -0.3597   -0.9440 H         1 <0>         0.0838
     28 H15        -0.4989   -1.7282    2.0917 H         1 <0>         0.1646
     29 H16         3.4377   -0.6428    2.8293 H         1 <0>         0.1920
     30 H17        -2.5184    3.5007    0.0437 H         1 <0>         0.4415
     31 H18         1.4008   -2.2191    3.8169 H         1 <0>         0.4559
@<TRIPOS>BOND
     1    1    2 1
     2    1   14 1
     3    1   15 1
     4    1   16 1
     5    2    7 1
     6    2    3 1
     7    2   30 1
     8    3    4 1
     9    3   17 1
    10    3   18 1
    11    4    5 1
    12    4   19 1
    13    4   20 1
    14    5    6 1
    15    5    8 1
    16    5   21 1
    17    6    7 1
    18    6   22 1
    19    6   23 1
    20    7   24 1
    21    7   25 1
    22    8    9 1
    23    8   26 1
    24    8   27 1
    25    9   13 1
    26    9   10 2
    27   10   11 1
    28   10   28 1
    29   11   12 1
    30   11   31 1
    31   12   13 2
    32   12   29 1
@<TRIPOS>MOLECULE
ZINC28455803
   34    36     0     0     0
SMALL
USER_CHARGES

@<TRIPOS>ATOM
      1 C1         -0.7445    1.6975    0.7160 C.3       1 <0>         0.0241
      2 N1         -0.4737    0.2636    0.5475 N.3       1 <0>        -0.5445
      3 C2         -1.7041   -0.4697    0.2214 C.3       1 <0>         0.0403
      4 C3         -1.3535   -1.9212   -0.1232 C.3       1 <0>         0.1159
      5 N2         -0.5669   -2.4871    0.9832 N.am      1 <0>        -0.5838
      6 C4          0.6056   -1.7370    1.4583 C.3       1 <0>         0.0816
      7 C5          0.1780   -0.2929    1.7406 C.3       1 <0>         0.0394
      8 C6         -0.9112   -3.6622    1.5465 C.2       1 <0>         0.5994
      9 O1         -1.9495   -4.2077    1.2279 O.2       1 <0>        -0.5294
     10 C7         -0.0254   -4.2878    2.5523 C.2       1 <0>         0.2482
     11 N3         -0.3338   -5.3995    3.2924 N.pl3     1 <0>        -0.5561
     12 H1         -1.1582   -5.9089    3.2515 H         1 <0>         0.4366
     13 C8          0.7472   -5.6568    4.1037 C.ar      1 <0>         0.0713
     14 C9          1.0296   -6.6279    5.0566 C.ar      1 <0>        -0.1023
     15 C10         2.2414   -6.6083    5.7136 C.ar      1 <0>        -0.0064
     16 C11         3.1823   -5.6244    5.4295 C.ar      1 <0>        -0.1172
     17 C12         2.9250   -4.6622    4.4979 C.ar      1 <0>        -0.0393
     18 C13         1.7004   -4.6599    3.8158 C.ar      1 <0>         0.0453
     19 N4          1.1736   -3.8667    2.8661 N.2       1 <0>        -0.4424
     20 Cl1         2.5953   -7.8206    6.9047 Cl        1 <0>        -0.0526
     21 H2          0.1936    2.2275    0.8811 H         1 <0>         0.0721
     22 H3         -1.2271    2.0841   -0.1816 H         1 <0>         0.0710
     23 H4         -1.4009    1.8450    1.5736 H         1 <0>         0.0262
     24 H5         -2.3764   -0.4517    1.0791 H         1 <0>         0.0402
     25 H6         -2.1915   -0.0005   -0.6332 H         1 <0>         0.0924
     26 H7         -2.2692   -2.4978   -0.2539 H         1 <0>         0.1001
     27 H8         -0.7664   -1.9480   -1.0411 H         1 <0>         0.0850
     28 H9          0.9853   -2.1920    2.3732 H         1 <0>         0.1428
     29 H10         1.3811   -1.7462    0.6924 H         1 <0>         0.0813
     30 H11         1.0555    0.3046    1.9878 H         1 <0>         0.0916
     31 H12        -0.5206   -0.2773    2.5772 H         1 <0>         0.0370
     32 H13         0.3028   -7.3944    5.2818 H         1 <0>         0.1399
     33 H14         4.1271   -5.6220    5.9528 H         1 <0>         0.1459
     34 H15         3.6636   -3.9033    4.2860 H         1 <0>         0.1464
@<TRIPOS>BOND
     1    1    2 1
     2    1   21 1
     3    1   22 1
     4    1   23 1
     5    2    7 1
     6    2    3 1
     7    3    4 1
     8    3   24 1
     9    3   25 1
    10    4    5 1
    11    4   26 1
    12    4   27 1
    13    5    6 1
    14    5    8 am
    15    6    7 1
    16    6   28 1
    17    6   29 1
    18    7   30 1
    19    7   31 1
    20    8    9 2
    21    8   10 1
    22   10   19 2
    23   10   11 1
    24   11   12 1
    25   11   13 1
    26   13   18 ar
    27   13   14 ar
    28   14   15 ar
    29   14   32 1
    30   15   16 ar
    31   15   20 1
    32   16   17 ar
    33   16   33 1
    34   17   18 ar
    35   17   34 1
    36   18   19 1
@<TRIPOS>MOLECULE
ZINC28455803
   35    37     0     0     0
SMALL
USER_CHARGES

@<TRIPOS>ATOM
      1 C1         -0.6830    1.7265    0.6898 C.3       1 <0>        -0.0472
      2 N1         -0.4222    0.2902    0.5257 N.4       1 <0>        -0.3875
      3 C2         -1.6917   -0.4138    0.3045 C.3       1 <0>        -0.0194
      4 C3         -1.4114   -1.8930    0.0195 C.3       1 <0>         0.0896
      5 N2         -0.6006   -2.4347    1.1210 N.am      1 <0>        -0.6109
      6 C4          0.6086   -1.6976    1.5193 C.3       1 <0>         0.0550
      7 C5          0.2329   -0.2276    1.7335 C.3       1 <0>        -0.0214
      8 C6         -0.9558   -3.5737    1.7479 C.2       1 <0>         0.6164
      9 O1         -2.0206   -4.1011    1.4926 O.2       1 <0>        -0.4990
     10 C7         -0.0496   -4.1819    2.7466 C.2       1 <0>         0.2288
     11 N3          1.1676   -3.7758    3.0052 N.2       1 <0>        -0.4482
     12 H1         -1.1991   -5.7381    3.5561 H         1 <0>         0.4398
     13 C8          1.7106   -4.5470    3.9638 C.ar      1 <0>         0.0534
     14 C9          2.9577   -4.5535    4.6028 C.ar      1 <0>        -0.0495
     15 C10         3.2245   -5.4859    5.5639 C.ar      1 <0>        -0.0350
     16 C11         2.2710   -6.4335    5.9180 C.ar      1 <0>        -0.0715
     17 C12         1.0378   -6.4482    5.3041 C.ar      1 <0>        -0.0954
     18 C13         0.7448   -5.5079    4.3241 C.ar      1 <0>         0.0724
     19 N4         -0.3600   -5.2516    3.5446 N.pl3     1 <0>        -0.5504
     20 Cl1         4.7714   -5.4884    6.3517 Cl        1 <0>        -0.0449
     21 H2          0.2594    2.2513    0.8461 H         1 <0>         0.1265
     22 H3         -1.1694    2.1121   -0.2062 H         1 <0>         0.1257
     23 H4         -1.3326    1.8817    1.5512 H         1 <0>         0.1218
     24 H5         -2.3153   -0.3270    1.1943 H         1 <0>         0.1343
     25 H6         -2.2091    0.0286   -0.5467 H         1 <0>         0.1472
     26 H7         -2.3529   -2.4385   -0.0449 H         1 <0>         0.1389
     27 H8         -0.8647   -1.9880   -0.9187 H         1 <0>         0.1028
     28 H9          1.0026   -2.1138    2.4464 H         1 <0>         0.1785
     29 H10         1.3592   -1.7729    0.7325 H         1 <0>         0.1003
     30 H11         1.1337    0.3520    1.9352 H         1 <0>         0.1468
     31 H12        -0.4489   -0.1464    2.5800 H         1 <0>         0.1316
     32 H13         3.7064   -3.8226    4.3354 H         1 <0>         0.1479
     33 H14         2.4989   -7.1641    6.6801 H         1 <0>         0.1522
     34 H15         0.3018   -7.1876    5.5834 H         1 <0>         0.1444
     35 H16         0.1815    0.1480   -0.2701 H         1 <0>         0.4262
@<TRIPOS>BOND
     1    1    2 1
     2    1   21 1
     3    1   22 1
     4    1   23 1
     5    2    7 1
     6    2    3 1
     7    2   35 1
     8    3    4 1
     9    3   24 1
    10    3   25 1
    11    4    5 1
    12    4   26 1
    13    4   27 1
    14    5    6 1
    15    5    8 am
    16    6    7 1
    17    6   28 1
    18    6   29 1
    19    7   30 1
    20    7   31 1
    21    8    9 2
    22    8   10 1
    23   10   11 2
    24   10   19 1
    25   11   13 1
    26   12   19 1
    27   13   14 ar
    28   13   18 ar
    29   14   32 1
    30   14   15 ar
    31   15   20 1
    32   15   16 ar
    33   16   33 1
    34   16   17 ar
    35   17   34 1
    36   17   18 ar
    37   18   19 1
@<TRIPOS>MOLECULE
ZINC13560691
   28    29     0     0     0
SMALL
USER_CHARGES

@<TRIPOS>ATOM
      1 C1         -0.0162    1.3425    0.0094 C.2       1 <0>        -0.0101
      2 C2          0.0021   -0.0041    0.0020 C.2       1 <0>        -0.0445
      3 N1         -1.3026   -0.4179    0.0131 N.pl3     1 <0>        -0.5703
      4 C3         -2.0733    0.6909    0.0269 C.2       1 <0>         0.1966
      5 N2         -1.2970    1.7400    0.0297 N.2       1 <0>        -0.4896
      6 C4          1.2241   -0.8858   -0.0156 C.3       1 <0>        -0.0359
      7 C5          1.7260   -1.0905    1.4152 C.3       1 <0>        -0.0982
      8 C6          0.6831   -1.8752    2.2164 C.3       1 <0>        -0.1462
      9 C7          1.2249   -2.1451    3.6217 C.3       1 <0>        -0.0060
     10 N3          2.4639   -2.9269    3.5306 N.4       1 <0>        -0.5053
     11 C8          3.4916   -2.1512    2.8257 C.3       1 <0>        -0.0071
     12 C9          3.0370   -1.8816    1.3897 C.3       1 <0>        -0.1449
     13 H1          0.8489    1.9890    0.0046 H         1 <0>         0.1692
     14 H2         -3.1531    0.7069    0.0380 H         1 <0>         0.2116
     15 H3          0.9692   -1.8512   -0.4528 H         1 <0>         0.0761
     16 H4          2.0052   -0.4124   -0.6104 H         1 <0>         0.0987
     17 H5          1.8942   -0.1212    1.8846 H         1 <0>         0.0964
     18 H6         -0.2358   -1.2931    2.2861 H         1 <0>         0.1081
     19 H7          0.4779   -2.8223    1.7173 H         1 <0>         0.0871
     20 H8          1.4296   -1.1975    4.1199 H         1 <0>         0.1315
     21 H9          0.4849   -2.7035    4.1949 H         1 <0>         0.1328
     22 H10         2.7895   -3.1487    4.4595 H         1 <0>         0.4327
     23 H11         3.6479   -1.2035    3.3409 H         1 <0>         0.1315
     24 H12         4.4248   -2.7141    2.8113 H         1 <0>         0.1348
     25 H13         2.8806   -2.8287    0.8735 H         1 <0>         0.0899
     26 H14         3.8005   -1.3040    0.8686 H         1 <0>         0.1162
     27 H15         2.2845   -3.7821    3.0262 H         1 <0>         0.4273
     28 H16        -1.6153   -1.3361    0.0113 H         1 <0>         0.4179
@<TRIPOS>BOND
     1    1    2 2
     2    1   13 1
     3    1    5 1
     4    2    3 1
     5    2    6 1
     6    3    4 1
     7    3   28 1
     8    4   14 1
     9    4    5 2
    10    6    7 1
    11    6   15 1
    12    6   16 1
    13    7   12 1
    14    7    8 1
    15    7   17 1
    16    8    9 1
    17    8   18 1
    18    8   19 1
    19    9   10 1
    20    9   20 1
    21    9   21 1
    22   10   11 1
    23   10   22 1
    24   10   27 1
    25   11   12 1
    26   11   23 1
    27   11   24 1
    28   12   25 1
    29   12   26 1
@<TRIPOS>MOLECULE
ZINC04097188
   68    72     0     0     0
SMALL
USER_CHARGES

@<TRIPOS>ATOM
      1 C1         -0.0187    1.5258    0.0104 C.3       1 <0>        -0.1896
      2 C2          0.0021   -0.0041    0.0020 C.3       1 <0>         0.0255
      3 H1         -1.0107   -0.3920    0.1113 H         1 <0>         0.1397
      4 C3          0.6266   -0.5176   -1.3119 C.3       1 <0>        -0.0884
      5 H2         -0.1119   -0.6752   -2.0979 H         1 <0>         0.1302
      6 C4          1.7513    0.4610   -1.7327 C.3       1 <0>        -0.1475
      7 C5          3.0882   -0.3174   -1.6037 C.3       1 <0>        -0.1270
      8 C6          2.6513   -1.7814   -1.7325 C.3       1 <0>        -0.0772
      9 H3          2.4325   -2.0219   -2.7729 H         1 <0>         0.0970
     10 C7          1.3395   -1.8095   -0.8929 C.3       1 <0>        -0.0735
     11 C8          0.6189   -3.1144   -1.1352 C.3       1 <0>        -0.1068
     12 C9          1.5255   -4.2387   -0.6081 C.3       1 <0>        -0.1247
     13 C10         2.9025   -4.2081   -1.2664 C.3       1 <0>        -0.0754
     14 H4          2.7799   -4.4153   -2.3295 H         1 <0>         0.0765
     15 C11         3.6083   -2.8046   -1.1440 C.3       1 <0>        -0.0714
     16 H5          3.8076   -2.5762   -0.0970 H         1 <0>         0.0770
     17 C12         4.9054   -2.8147   -1.9610 C.3       1 <0>        -0.0900
     18 C13         5.7800   -3.9386   -1.4875 C.2       1 <0>        -0.1193
     19 C14         5.3091   -5.0156   -0.9305 C.2       1 <0>        -0.1319
     20 C15         3.7793   -5.2940   -0.6651 C.3       1 <0>        -0.0080
     21 C16         3.3854   -6.6607   -1.2326 C.3       1 <0>        -0.1059
     22 C17         4.2846   -7.7398   -0.6263 C.3       1 <0>        -0.1415
     23 C18         5.7383   -7.4868   -1.0294 C.3       1 <0>         0.0191
     24 H6          5.8126   -7.4485   -2.1162 H         1 <0>         0.1323
     25 C19         6.2918   -6.0912   -0.4987 C.3       1 <0>        -0.0926
     26 N1          6.5843   -8.5737   -0.5188 N.4       1 <0>        -0.3856
     27 C20         6.1344   -9.8521   -1.0856 C.3       1 <0>        -0.0533
     28 C21         7.9804   -8.3307   -0.9059 C.3       1 <0>        -0.0523
     29 C22         3.5249   -5.3314    0.8432 C.3       1 <0>        -0.1541
     30 C23         1.6785   -1.6179    0.5905 C.3       1 <0>        -0.0109
     31 N2          0.8553   -0.5039    1.0939 N.4       1 <0>        -0.3835
     32 C24         1.7293    0.5772    1.5687 C.3       1 <0>        -0.0584
     33 H7          0.9999    1.9024    0.1036 H         1 <0>         0.0926
     34 H8         -0.4565    1.8883   -0.9196 H         1 <0>         0.1058
     35 H9         -0.6143    1.8764    0.8533 H         1 <0>         0.0849
     36 H10         1.6026    0.7791   -2.7646 H         1 <0>         0.0891
     37 H11         1.7586    1.3277   -1.0717 H         1 <0>         0.0873
     38 H12         3.7708   -0.0468   -2.4093 H         1 <0>         0.0867
     39 H13         3.5471   -0.1364   -0.6316 H         1 <0>         0.0660
     40 H14        -0.3296   -3.1199   -0.5982 H         1 <0>         0.0755
     41 H15         0.4432   -3.2488   -2.2025 H         1 <0>         0.0875
     42 H16         1.6440   -4.1243    0.4694 H         1 <0>         0.0702
     43 H17         1.0549   -5.2004   -0.8126 H         1 <0>         0.0787
     44 H18         4.6701   -2.9562   -3.0158 H         1 <0>         0.0865
     45 H19         5.4269   -1.8668   -1.8277 H         1 <0>         0.0825
     46 H20         6.8487   -3.8493   -1.6154 H         1 <0>         0.1148
     47 H21         2.3454   -6.8718   -0.9837 H         1 <0>         0.0889
     48 H22         3.5061   -6.6531   -2.3159 H         1 <0>         0.0766
     49 H23         4.1999   -7.7141    0.4601 H         1 <0>         0.0908
     50 H24         3.9725   -8.7186   -0.9905 H         1 <0>         0.0937
     51 H25         7.2866   -5.8521   -0.8747 H         1 <0>         0.1020
     52 H26         6.3149   -6.1520    0.5894 H         1 <0>         0.0859
     53 H27         6.2087   -9.8138   -2.1724 H         1 <0>         0.1230
     54 H28         6.7622  -10.6586   -0.7067 H         1 <0>         0.1276
     55 H29         5.0985  -10.0324   -0.7983 H         1 <0>         0.1250
     56 H30         8.3143   -7.3822   -0.4853 H         1 <0>         0.1232
     57 H31         8.6082   -9.1372   -0.5270 H         1 <0>         0.1273
     58 H32         8.0547   -8.2924   -1.9927 H         1 <0>         0.1229
     59 H33         2.4738   -5.5523    1.0290 H         1 <0>         0.0706
     60 H34         4.1445   -6.1048    1.2971 H         1 <0>         0.0559
     61 H35         3.7751   -4.3637    1.2779 H         1 <0>         0.0573
     62 H36         1.4462   -2.5280    1.1437 H         1 <0>         0.1322
     63 H37         2.7357   -1.3763    0.7002 H         1 <0>         0.1342
     64 H38         1.1195    1.4035    1.9341 H         1 <0>         0.1302
     65 H39         2.3601    0.2062    2.3765 H         1 <0>         0.1217
     66 H40         2.3568    0.9241    0.7477 H         1 <0>         0.1231
     67 H41         0.2758   -0.8278    1.8537 H         1 <0>         0.4270
     68 H42         6.5156   -8.6091    0.4873 H         1 <0>         0.4242
@<TRIPOS>BOND
     1    1    2 1
     2    1   33 1
     3    1   34 1
     4    1   35 1
     5    2    3 1
     6    2   31 1
     7    2    4 1
     8    4    5 1
     9    4   10 1
    10    4    6 1
    11    6    7 1
    12    6   36 1
    13    6   37 1
    14    7    8 1
    15    7   38 1
    16    7   39 1
    17    8    9 1
    18    8   15 1
    19    8   10 1
    20   10   11 1
    21   10   30 1
    22   11   12 1
    23   11   40 1
    24   11   41 1
    25   12   13 1
    26   12   42 1
    27   12   43 1
    28   13   14 1
    29   13   20 1
    30   13   15 1
    31   15   16 1
    32   15   17 1
    33   17   18 1
    34   17   44 1
    35   17   45 1
    36   18   19 2
    37   18   46 1
    38   19   25 1
    39   19   20 1
    40   20   21 1
    41   20   29 1
    42   21   22 1
    43   21   47 1
    44   21   48 1
    45   22   23 1
    46   22   49 1
    47   22   50 1
    48   23   24 1
    49   23   25 1
    50   23   26 1
    51   25   51 1
    52   25   52 1
    53   26   27 1
    54   26   28 1
    55   26   68 1
    56   27   53 1
    57   27   54 1
    58   27   55 1
    59   28   56 1
    60   28   57 1
    61   28   58 1
    62   29   59 1
    63   29   60 1
    64   29   61 1
    65   30   31 1
    66   30   62 1
    67   30   63 1
    68   31   32 1
    69   31   67 1
    70   32   64 1
    71   32   65 1
    72   32   66 1
@<TRIPOS>MOLECULE
ZINC13813304
   33    34     0     0     0
SMALL
USER_CHARGES

@<TRIPOS>ATOM
      1 C1         -0.0167    1.3781    0.0096 C.ar      1 <0>        -0.1090
      2 C2          1.1709    2.0855    0.0021 C.ar      1 <0>        -0.1220
      3 C3          2.3773    1.4107   -0.0130 C.ar      1 <0>        -0.0987
      4 C4          2.3960    0.0285   -0.0201 C.ar      1 <0>        -0.1000
      5 C5          1.2084   -0.6789   -0.0117 C.ar      1 <0>        -0.0992
      6 C6          0.0021   -0.0041    0.0020 C.ar      1 <0>        -0.1222
      7 C7          3.7112   -0.7071   -0.0376 C.3       1 <0>         0.1067
      8 O1          4.1410   -0.9464    1.3041 O.3       1 <0>        -0.3820
      9 C8          5.3853   -1.6423    1.4004 C.3       1 <0>         0.0581
     10 C9          5.7451   -1.8423    2.8740 C.3       1 <0>        -0.1184
     11 C10         7.0774   -2.5874    2.9771 C.3       1 <0>        -0.0619
     12 C11         7.4318   -2.7844    4.4286 C.2       1 <0>         0.0660
     13 C12         8.0620   -1.9026    5.2279 C.2       1 <0>         0.0031
     14 N1          8.1866   -2.4586    6.4421 N.pl3     1 <0>        -0.4725
     15 C13         7.6575   -3.6514    6.4256 C.cat     1 <0>         0.3049
     16 N2          7.1697   -3.8916    5.1895 N.pl3     1 <0>        -0.5108
     17 H1          6.7195   -4.6988    4.8952 H         1 <0>         0.4654
     18 H2         -0.9591    1.9053    0.0259 H         1 <0>         0.1260
     19 H3          1.1563    3.1654    0.0076 H         1 <0>         0.1263
     20 H4          3.3051    1.9634   -0.0196 H         1 <0>         0.1226
     21 H5          1.2231   -1.7588   -0.0176 H         1 <0>         0.1220
     22 H6         -0.9258   -0.5567    0.0082 H         1 <0>         0.1261
     23 H7          3.5884   -1.6586   -0.5549 H         1 <0>         0.0609
     24 H8          4.4573   -0.1052   -0.5563 H         1 <0>         0.0617
     25 H9          5.2973   -2.6133    0.9129 H         1 <0>         0.0542
     26 H10         6.1662   -1.0598    0.9116 H         1 <0>         0.0568
     27 H11         5.8332   -0.8714    3.3615 H         1 <0>         0.0835
     28 H12         4.9642   -2.4248    3.3629 H         1 <0>         0.0765
     29 H13         6.9894   -3.5584    2.4896 H         1 <0>         0.1001
     30 H14         7.8583   -2.0049    2.4883 H         1 <0>         0.1168
     31 H15         8.4067   -0.9200    4.9414 H         1 <0>         0.2248
     32 H16         7.6135   -4.3321    7.2630 H         1 <0>         0.2666
     33 H17         8.6043   -2.0402    7.2111 H         1 <0>         0.4677
@<TRIPOS>BOND
     1    1    6 ar
     2    1    2 ar
     3    1   18 1
     4    2    3 ar
     5    2   19 1
     6    3    4 ar
     7    3   20 1
     8    4    5 ar
     9    4    7 1
    10    5    6 ar
    11    5   21 1
    12    6   22 1
    13    7    8 1
    14    7   23 1
    15    7   24 1
    16    8    9 1
    17    9   10 1
    18    9   25 1
    19    9   26 1
    20   10   11 1
    21   10   27 1
    22   10   28 1
    23   11   12 1
    24   11   29 1
    25   11   30 1
    26   12   16 1
    27   12   13 2
    28   13   14 1
    29   13   31 1
    30   14   15 2
    31   14   33 1
    32   15   16 1
    33   15   32 1
    34   16   17 1
@<TRIPOS>MOLECULE
ZINC13813304
   32    33     0     0     0
SMALL
USER_CHARGES

@<TRIPOS>ATOM
      1 C1         -0.0167    1.3781    0.0096 C.ar      1 <0>        -0.1143
      2 C2          1.1709    2.0855    0.0021 C.ar      1 <0>        -0.1233
      3 C3          2.3773    1.4107   -0.0130 C.ar      1 <0>        -0.0988
      4 C4          2.3960    0.0285   -0.0201 C.ar      1 <0>        -0.0920
      5 C5          1.2084   -0.6789   -0.0117 C.ar      1 <0>        -0.0994
      6 C6          0.0021   -0.0041    0.0020 C.ar      1 <0>        -0.1238
      7 C7          3.7112   -0.7071   -0.0376 C.3       1 <0>         0.1032
      8 O1          4.1410   -0.9464    1.3041 O.3       1 <0>        -0.3813
      9 C8          5.3853   -1.6423    1.4004 C.3       1 <0>         0.0608
     10 C9          5.7451   -1.8423    2.8740 C.3       1 <0>        -0.1088
     11 C10         7.0774   -2.5874    2.9771 C.3       1 <0>        -0.0303
     12 C11         7.4318   -2.7844    4.4286 C.2       1 <0>         0.0035
     13 C12         7.7127   -3.9601    5.0221 C.2       1 <0>        -0.0550
     14 N1          7.9784   -3.6866    6.3367 N.pl3     1 <0>        -0.5713
     15 C13         7.8505   -2.3523    6.5009 C.2       1 <0>         0.1857
     16 N2          7.5284   -1.8187    5.3544 N.2       1 <0>        -0.4882
     17 H1         -0.9591    1.9053    0.0259 H         1 <0>         0.1230
     18 H2          1.1563    3.1654    0.0076 H         1 <0>         0.1241
     19 H3          3.3051    1.9634   -0.0196 H         1 <0>         0.1230
     20 H4          1.2231   -1.7588   -0.0176 H         1 <0>         0.1224
     21 H5         -0.9258   -0.5567    0.0082 H         1 <0>         0.1238
     22 H6          3.5884   -1.6586   -0.5549 H         1 <0>         0.0575
     23 H7          4.4573   -0.1052   -0.5563 H         1 <0>         0.0580
     24 H8          5.2973   -2.6133    0.9129 H         1 <0>         0.0484
     25 H9          6.1662   -1.0598    0.9116 H         1 <0>         0.0500
     26 H10         5.8332   -0.8714    3.3615 H         1 <0>         0.0789
     27 H11         4.9642   -2.4248    3.3629 H         1 <0>         0.0677
     28 H12         6.9894   -3.5584    2.4897 H         1 <0>         0.0753
     29 H13         7.8583   -2.0049    2.4883 H         1 <0>         0.0760
     30 H14         7.7254   -4.9321    4.5514 H         1 <0>         0.1759
     31 H15         7.9950   -1.8153    7.4267 H         1 <0>         0.2082
     32 H16         8.2144   -4.3309    7.0224 H         1 <0>         0.4210
@<TRIPOS>BOND
     1    1    6 ar
     2    1    2 ar
     3    1   17 1
     4    2    3 ar
     5    2   18 1
     6    3    4 ar
     7    3   19 1
     8    4    5 ar
     9    4    7 1
    10    5    6 ar
    11    5   20 1
    12    6   21 1
    13    7    8 1
    14    7   22 1
    15    7   23 1
    16    8    9 1
    17    9   10 1
    18    9   24 1
    19    9   25 1
    20   10   11 1
    21   10   26 1
    22   10   27 1
    23   11   28 1
    24   11   29 1
    25   11   12 1
    26   12   16 1
    27   12   13 2
    28   13   30 1
    29   13   14 1
    30   14   15 1
    31   14   32 1
    32   15   31 1
    33   15   16 2
@<TRIPOS>MOLECULE
ZINC13813304
   32    33     0     0     0
SMALL
USER_CHARGES

@<TRIPOS>ATOM
      1 C1         -0.0167    1.3781    0.0096 C.ar      1 <0>        -0.1132
      2 C2          1.1709    2.0855    0.0021 C.ar      1 <0>        -0.1229
      3 C3          2.3773    1.4107   -0.0130 C.ar      1 <0>        -0.0986
      4 C4          2.3960    0.0285   -0.0201 C.ar      1 <0>        -0.0937
      5 C5          1.2084   -0.6789   -0.0117 C.ar      1 <0>        -0.0994
      6 C6          0.0021   -0.0041    0.0020 C.ar      1 <0>        -0.1234
      7 C7          3.7112   -0.7071   -0.0376 C.3       1 <0>         0.1038
      8 O1          4.1410   -0.9464    1.3041 O.3       1 <0>        -0.3815
      9 C8          5.3853   -1.6423    1.4004 C.3       1 <0>         0.0607
     10 C9          5.7451   -1.8423    2.8740 C.3       1 <0>        -0.1137
     11 C10         7.0774   -2.5874    2.9771 C.3       1 <0>        -0.0402
     12 C11         7.4318   -2.7844    4.4286 C.2       1 <0>        -0.0244
     13 C12         8.0620   -1.9026    5.2279 C.2       1 <0>        -0.0207
     14 N1          8.1866   -2.4586    6.4421 N.2       1 <0>        -0.4938
     15 C13         7.6575   -3.6514    6.4256 C.2       1 <0>         0.1844
     16 N2          7.1697   -3.8916    5.1895 N.pl3     1 <0>        -0.5678
     17 H1          6.7195   -4.6988    4.8952 H         1 <0>         0.4191
     18 H2         -0.9591    1.9053    0.0259 H         1 <0>         0.1237
     19 H3          1.1563    3.1654    0.0076 H         1 <0>         0.1247
     20 H4          3.3051    1.9634   -0.0196 H         1 <0>         0.1231
     21 H5          1.2231   -1.7588   -0.0176 H         1 <0>         0.1221
     22 H6         -0.9258   -0.5567    0.0082 H         1 <0>         0.1242
     23 H7          3.5884   -1.6586   -0.5549 H         1 <0>         0.0580
     24 H8          4.4573   -0.1052   -0.5563 H         1 <0>         0.0591
     25 H9          5.2973   -2.6133    0.9129 H         1 <0>         0.0493
     26 H10         6.1662   -1.0598    0.9116 H         1 <0>         0.0528
     27 H11         5.8332   -0.8714    3.3615 H         1 <0>         0.0782
     28 H12         4.9642   -2.4248    3.3629 H         1 <0>         0.0692
     29 H13         6.9894   -3.5584    2.4896 H         1 <0>         0.0722
     30 H14         7.8583   -2.0049    2.4883 H         1 <0>         0.0910
     31 H15         8.4067   -0.9200    4.9414 H         1 <0>         0.1691
     32 H16         7.6135   -4.3321    7.2630 H         1 <0>         0.2085
@<TRIPOS>BOND
     1    1    6 ar
     2    1    2 ar
     3    1   18 1
     4    2    3 ar
     5    2   19 1
     6    3    4 ar
     7    3   20 1
     8    4    5 ar
     9    4    7 1
    10    5    6 ar
    11    5   21 1
    12    6   22 1
    13    7    8 1
    14    7   23 1
    15    7   24 1
    16    8    9 1
    17    9   10 1
    18    9   25 1
    19    9   26 1
    20   10   11 1
    21   10   27 1
    22   10   28 1
    23   11   12 1
    24   11   29 1
    25   11   30 1
    26   12   16 1
    27   12   13 2
    28   13   14 1
    29   13   31 1
    30   14   15 2
    31   15   16 1
    32   15   32 1
    33   16   17 1
@<TRIPOS>MOLECULE
ZINC05425255
   23    23     0     0     0
SMALL
USER_CHARGES

@<TRIPOS>ATOM
      1 C1         -0.0165    1.3646    0.0095 C.2       1 <0>         0.0534
      2 C2          1.2671    1.7717   -0.0005 C.2       1 <0>         0.0154
      3 N1          2.0482    0.6814   -0.0138 N.pl3     1 <0>        -0.4756
      4 H1         -0.7708   -0.5902    0.0060 H         1 <0>         0.4736
      5 C3          1.2973   -0.3859   -0.0124 C.cat     1 <0>         0.3267
      6 N2          0.0021   -0.0041    0.0020 N.pl3     1 <0>        -0.5083
      7 C4          1.7427    3.2017    0.0026 C.3       1 <0>        -0.0449
      8 C5          1.7980    3.7176    1.4420 C.3       1 <0>        -0.1498
      9 S1          2.3704    5.4389    1.4457 S.3       1 <0>         0.0829
     10 C6          2.3798    5.8813    3.1513 C.cat     1 <0>         0.4865
     11 N3          3.2533    6.7821    3.6014 N.pl3     1 <0>        -0.7266
     12 N4          1.5135    5.3152    3.9914 N.pl3     1 <0>        -0.7640
     13 H2         -0.8922    1.9965    0.0253 H         1 <0>         0.2304
     14 H3          1.6529   -1.4057   -0.0218 H         1 <0>         0.2722
     15 H4          2.7369    3.2550   -0.4409 H         1 <0>         0.1188
     16 H5          1.0529    3.8153   -0.5770 H         1 <0>         0.1334
     17 H6          0.8038    3.6644    1.8855 H         1 <0>         0.1179
     18 H7          2.4878    3.1041    2.0215 H         1 <0>         0.1201
     19 H8          3.8837    7.1940    2.9900 H         1 <0>         0.4543
     20 H9          0.8779    4.6597    3.6639 H         1 <0>         0.4407
     21 H10         1.5187    5.5587    4.9303 H         1 <0>         0.4366
     22 H11         3.2584    7.0256    4.5403 H         1 <0>         0.4388
     23 H12         3.0181    0.6856   -0.0234 H         1 <0>         0.4676
@<TRIPOS>BOND
     1    1    6 1
     2    1    2 2
     3    1   13 1
     4    2    3 1
     5    2    7 1
     6    3    5 2
     7    3   23 1
     8    4    6 1
     9    5   14 1
    10    5    6 1
    11    7    8 1
    12    7   15 1
    13    7   16 1
    14    8    9 1
    15    8   17 1
    16    8   18 1
    17    9   10 1
    18   10   11 2
    19   10   12 1
    20   11   19 1
    21   11   22 1
    22   12   20 1
    23   12   21 1
@<TRIPOS>MOLECULE
ZINC05425255
   22    22     0     0     0
SMALL
USER_CHARGES

@<TRIPOS>ATOM
      1 C1         -0.0165    1.3646    0.0095 C.2       1 <0>        -0.0313
      2 C2          1.2671    1.7717   -0.0005 C.2       1 <0>        -0.0163
      3 N1          2.0482    0.6814   -0.0138 N.2       1 <0>        -0.4937
      4 H1         -0.7708   -0.5902    0.0060 H         1 <0>         0.4283
      5 C3          1.2973   -0.3859   -0.0124 C.2       1 <0>         0.1996
      6 N2          0.0021   -0.0041    0.0020 N.pl3     1 <0>        -0.5648
      7 C4          1.7427    3.2017    0.0026 C.3       1 <0>        -0.0137
      8 C5          2.7000    3.4183    1.1763 C.3       1 <0>        -0.1205
      9 S1          3.2724    5.1396    1.1801 S.3       1 <0>         0.0524
     10 C6          4.3507    5.2272    2.5708 C.cat     1 <0>         0.4880
     11 N3          5.3767    6.0782    2.5662 N.pl3     1 <0>        -0.7379
     12 N4          4.1406    4.4424    3.6276 N.pl3     1 <0>        -0.7646
     13 H2         -0.8922    1.9965    0.0253 H         1 <0>         0.1812
     14 H3          1.6529   -1.4057   -0.0218 H         1 <0>         0.2134
     15 H4          2.2605    3.4145   -0.9326 H         1 <0>         0.0965
     16 H5          0.8868    3.8690    0.1039 H         1 <0>         0.0958
     17 H6          2.1821    3.2055    2.1116 H         1 <0>         0.1056
     18 H7          3.5559    2.7510    1.0750 H         1 <0>         0.1241
     19 H8          5.5296    6.6493    1.7972 H         1 <0>         0.4511
     20 H9          3.3940    3.8231    3.6310 H         1 <0>         0.4433
     21 H10         4.7342    4.4906    4.3932 H         1 <0>         0.4310
     22 H11         5.9703    6.1264    3.3318 H         1 <0>         0.4326
@<TRIPOS>BOND
     1    1    6 1
     2    1    2 2
     3    1   13 1
     4    2    3 1
     5    2    7 1
     6    3    5 2
     7    4    6 1
     8    5   14 1
     9    5    6 1
    10    7    8 1
    11    7   15 1
    12    7   16 1
    13    8    9 1
    14    8   17 1
    15    8   18 1
    16    9   10 1
    17   10   11 2
    18   10   12 1
    19   11   19 1
    20   11   22 1
    21   12   20 1
    22   12   21 1
@<TRIPOS>MOLECULE
ZINC28825320
   52    54     0     0     0
SMALL
USER_CHARGES
4-[[3-[4-(1-piperidyl)but-1-ynyl]phenyl]methyl]morpholine
@<TRIPOS>ATOM
      1 C1          1.1717    1.7833    0.0004 C.ar      1 <0>        -0.1156
      2 C2          1.1546    3.1668    0.0071 C.ar      1 <0>        -0.0925
      3 C3         -0.0483    3.8495    0.0218 C.ar      1 <0>        -0.0758
      4 C4         -1.2399    3.1537    0.0299 C.ar      1 <0>        -0.0662
      5 C5         -1.2296    1.7586    0.0174 C.ar      1 <0>        -0.0152
      6 C6         -0.0126    1.0758    0.0080 C.ar      1 <0>        -0.0863
      7 C7         -2.4627    1.0304    0.0198 C.1       1 <0>        -0.0621
      8 C8         -3.4735    0.4334    0.0217 C.1       1 <0>        -0.2146
      9 C9         -4.7410   -0.3151    0.0242 C.3       1 <0>        -0.0142
     10 C10        -5.9137    0.6676    0.0349 C.3       1 <0>        -0.0041
     11 N1         -7.1785   -0.0794    0.0374 N.4       1 <0>        -0.3978
     12 C11        -7.3519   -0.8248   -1.2159 C.3       1 <0>        -0.0113
     13 C12        -8.6024   -1.7019   -1.1205 C.3       1 <0>        -0.1465
     14 C13        -9.8231   -0.8153   -0.8591 C.3       1 <0>        -0.1415
     15 C14        -9.5962   -0.0140    0.4258 C.3       1 <0>        -0.1468
     16 C15        -8.3170    0.8143    0.2856 C.3       1 <0>        -0.0039
     17 C16        -0.0575    5.3565    0.0294 C.3       1 <0>         0.0883
     18 N2         -0.0734    5.8531   -1.3530 N.3       1 <0>        -0.5323
     19 C17         1.1797    5.5211   -2.0465 C.3       1 <0>         0.0106
     20 C18         1.0968    6.0030   -3.4973 C.3       1 <0>         0.0619
     21 O1          0.8247    7.4070   -3.5132 O.3       1 <0>        -0.3823
     22 C19        -0.3888    7.7658   -2.8470 C.3       1 <0>         0.0617
     23 C20        -0.3210    7.3018   -1.3896 C.3       1 <0>         0.0150
     24 H1          2.1142    1.2561   -0.0110 H         1 <0>         0.1341
     25 H2          2.0845    3.7160    0.0005 H         1 <0>         0.1281
     26 H3         -2.1785    3.6879    0.0417 H         1 <0>         0.1269
     27 H4          0.0021   -0.0041    0.0020 H         1 <0>         0.1280
     28 H5         -4.7975   -0.9435   -0.8768 H         1 <0>         0.1071
     29 H6         -4.7886   -0.9526    0.9194 H         1 <0>         0.1086
     30 H7         -5.8572    1.2960    0.9359 H         1 <0>         0.1358
     31 H8         -5.8661    1.3051   -0.8603 H         1 <0>         0.1314
     32 H9         -7.4636   -0.1174   -2.0508 H         1 <0>         0.1269
     33 H10        -6.4711   -1.4605   -1.3893 H         1 <0>         0.1319
     34 H11        -8.7397   -2.2486   -2.0651 H         1 <0>         0.1121
     35 H12        -8.4848   -2.4196   -0.2952 H         1 <0>         0.0889
     36 H13        -9.9633   -0.1258   -1.7047 H         1 <0>         0.0811
     37 H14       -10.7174   -1.4461   -0.7482 H         1 <0>         0.0945
     38 H15       -10.4520    0.6558    0.5961 H         1 <0>         0.1124
     39 H16        -9.4964   -0.7048    1.2760 H         1 <0>         0.0889
     40 H17        -8.1436    1.3801    1.2128 H         1 <0>         0.1312
     41 H18        -8.4242    1.5141   -0.5563 H         1 <0>         0.1262
     42 H19        -0.9530    5.7150    0.5581 H         1 <0>         0.0888
     43 H20         0.8432    5.7261    0.5414 H         1 <0>         0.0521
     44 H21         2.0212    6.0172   -1.5408 H         1 <0>         0.0468
     45 H22         1.3315    4.4318   -2.0280 H         1 <0>         0.0897
     46 H23         2.0534    5.8072   -4.0039 H         1 <0>         0.1015
     47 H24         0.2900    5.4653   -4.0168 H         1 <0>         0.0589
     48 H25        -0.5164    8.8579   -2.8806 H         1 <0>         0.1026
     49 H26        -1.2396    7.2816   -3.3488 H         1 <0>         0.0594
     50 H27        -1.2742    7.5237   -0.8874 H         1 <0>         0.0887
     51 H28         0.4963    7.8266   -0.8733 H         1 <0>         0.0479
     52 H29        -7.1401   -0.8096    0.8592 H         1 <0>         0.4407
@<TRIPOS>BOND
     1    1    6 ar
     2    1    2 ar
     3    1   24 1
     4    2    3 ar
     5    2   25 1
     6    3    4 ar
     7    3   17 1
     8    4    5 ar
     9    4   26 1
    10    5    6 ar
    11    5    7 1
    12    6   27 1
    13    7    8 3
    14    8    9 1
    15    9   10 1
    16    9   28 1
    17    9   29 1
    18   10   11 1
    19   10   30 1
    20   10   31 1
    21   11   16 1
    22   11   12 1
    23   11   52 1
    24   12   13 1
    25   12   32 1
    26   12   33 1
    27   13   14 1
    28   13   34 1
    29   13   35 1
    30   14   15 1
    31   14   36 1
    32   14   37 1
    33   15   16 1
    34   15   38 1
    35   15   39 1
    36   16   40 1
    37   16   41 1
    38   17   18 1
    39   17   42 1
    40   17   43 1
    41   18   23 1
    42   18   19 1
    43   19   20 1
    44   19   44 1
    45   19   45 1
    46   20   21 1
    47   20   46 1
    48   20   47 1
    49   21   22 1
    50   22   23 1
    51   22   48 1
    52   22   49 1
    53   23   50 1
    54   23   51 1
@<TRIPOS>MOLECULE
ZINC13531739
   31    32     0     0     0
SMALL
USER_CHARGES

@<TRIPOS>ATOM
      1 C1         -0.0167    1.3791    0.0096 C.ar      1 <0>        -0.1096
      2 C2          1.1671    2.0881    0.0021 C.ar      1 <0>        -0.0760
      3 C3          2.3846    1.4070   -0.0131 C.ar      1 <0>        -0.0294
      4 C4          2.3966    0.0116   -0.0207 C.ar      1 <0>        -0.0285
      5 C5          1.2062   -0.6855   -0.0130 C.ar      1 <0>        -0.1780
      6 C6          0.0021   -0.0041    0.0020 C.ar      1 <0>        -0.0527
      7 C7          1.2173   -2.1925   -0.0217 C.3       1 <0>         0.5095
      8 F1          1.2336   -2.6663    1.2945 F         1 <0>        -0.1729
      9 F2          0.0722   -2.6635   -0.6728 F         1 <0>        -0.1715
     10 F3          2.3565   -2.6466   -0.6949 F         1 <0>        -0.1750
     11 C8          3.6572    2.1608   -0.0217 C.2       1 <0>         0.2685
     12 N1          3.7809    3.5193   -0.0106 N.pl3     1 <0>        -0.5560
     13 H1          3.0568    4.1645    0.0040 H         1 <0>         0.4297
     14 C9          5.1207    3.7994   -0.0236 C.2       1 <0>        -0.0117
     15 C10         5.7710    2.6181   -0.0420 C.2       1 <0>        -0.0216
     16 N2          4.8623    1.6361   -0.0356 N.2       1 <0>        -0.4703
     17 C11         7.2667    2.4351   -0.0615 C.3       1 <0>        -0.0526
     18 C12         7.6865    1.5413    1.1071 C.3       1 <0>        -0.0040
     19 N3          9.1445    1.3630    1.0881 N.4       1 <0>        -0.6379
     20 H2         -0.9598    1.9051    0.0260 H         1 <0>         0.1470
     21 H3          1.1511    3.1680    0.0077 H         1 <0>         0.1304
     22 H4          3.3358   -0.5215   -0.0328 H         1 <0>         0.1487
     23 H5         -0.9272   -0.5544    0.0079 H         1 <0>         0.1460
     24 H6          5.5717    4.7807   -0.0198 H         1 <0>         0.1868
     25 H7          7.5635    1.9684   -1.0008 H         1 <0>         0.0988
     26 H8          7.7528    3.4063    0.0310 H         1 <0>         0.0993
     27 H9          7.3898    2.0081    2.0464 H         1 <0>         0.1328
     28 H10         7.2005    0.5701    1.0146 H         1 <0>         0.1406
     29 H11         9.5945    2.2620    1.1738 H         1 <0>         0.4340
     30 H12         9.4214    0.7735    1.8588 H         1 <0>         0.4395
     31 H13         9.4192    0.9309    0.2187 H         1 <0>         0.4360
@<TRIPOS>BOND
     1    1    6 ar
     2    1    2 ar
     3    1   20 1
     4    2    3 ar
     5    2   21 1
     6    3    4 ar
     7    3   11 1
     8    4    5 ar
     9    4   22 1
    10    5    6 ar
    11    5    7 1
    12    6   23 1
    13    7    8 1
    14    7    9 1
    15    7   10 1
    16   11   16 2
    17   11   12 1
    18   12   13 1
    19   12   14 1
    20   14   15 2
    21   14   24 1
    22   15   16 1
    23   15   17 1
    24   17   18 1
    25   17   25 1
    26   17   26 1
    27   18   19 1
    28   18   27 1
    29   18   28 1
    30   19   29 1
    31   19   30 1
    32   19   31 1
@<TRIPOS>MOLECULE
ZINC13108134
   45    47     0     0     0
SMALL
USER_CHARGES

@<TRIPOS>ATOM
      1 C1         -0.0199    1.3395    0.0024 C.2       1 <0>         0.0064
      2 C2          1.2554    1.7720   -0.0081 C.2       1 <0>         0.0672
      3 N1          2.0511    0.6584   -0.0267 N.pl3     1 <0>        -0.5106
      4 H1          3.0210    0.6441   -0.0376 H         1 <0>         0.4636
      5 C3          1.2338   -0.4166   -0.0268 C.cat     1 <0>         0.3070
      6 N2         -0.0033   -0.0016   -0.0094 N.pl3     1 <0>        -0.4716
      7 C4          1.7176    3.2064   -0.0013 C.3       1 <0>        -0.0300
      8 C5          1.9762    3.6655   -1.4382 C.3       1 <0>        -0.1277
      9 C6          2.4124    5.1340   -1.4300 C.3       1 <0>         0.1020
     10 N3          3.5670    5.2793   -0.5331 N.pl3     1 <0>        -0.5817
     11 C7          3.4561    4.7869    0.8468 C.3       1 <0>         0.0974
     12 C8          3.0081    3.3223    0.8131 C.3       1 <0>        -0.1362
     13 C9          4.7065    5.8530   -0.9679 C.2       1 <0>         0.5634
     14 S1          4.8665    6.2992   -2.6130 S.2       1 <0>        -0.6245
     15 N4          5.7199    6.0755   -0.1077 N.pl3     1 <0>        -0.6784
     16 C10         6.9143    6.7970   -0.5537 C.3       1 <0>         0.1390
     17 C11         6.6752    8.3033   -0.4326 C.3       1 <0>        -0.1253
     18 C12         7.9226    9.0568   -0.8984 C.3       1 <0>        -0.1161
     19 C13         9.1147    8.6579   -0.0263 C.3       1 <0>        -0.1249
     20 C14         9.3539    7.1516   -0.1474 C.3       1 <0>        -0.1154
     21 C15         8.1064    6.3981    0.3184 C.3       1 <0>        -0.1258
     22 H2         -0.9014    1.9632    0.0217 H         1 <0>         0.2255
     23 H3          1.5514   -1.4488   -0.0393 H         1 <0>         0.2669
     24 H4          0.9475    3.8339    0.4472 H         1 <0>         0.1243
     25 H5          2.7637    3.0545   -1.8792 H         1 <0>         0.0764
     26 H6          1.0627    3.5607   -2.0236 H         1 <0>         0.0957
     27 H7          2.6928    5.4375   -2.4387 H         1 <0>         0.1389
     28 H8          1.5921    5.7569   -1.0735 H         1 <0>         0.0852
     29 H9          4.4251    4.8614    1.3403 H         1 <0>         0.0880
     30 H10         2.7209    5.3815    1.3889 H         1 <0>         0.0928
     31 H11         2.8291    2.9732    1.8300 H         1 <0>         0.0932
     32 H12         3.7859    2.7145    0.3508 H         1 <0>         0.0723
     33 H13         5.6583    5.7578    0.8068 H         1 <0>         0.3933
     34 H14         7.1241    6.5448   -1.5932 H         1 <0>         0.1206
     35 H15         5.8259    8.5875   -1.0539 H         1 <0>         0.0770
     36 H16         6.4654    8.5554    0.6069 H         1 <0>         0.0591
     37 H17         8.1324    8.8047   -1.9379 H         1 <0>         0.0705
     38 H18         7.7522   10.1300   -0.8121 H         1 <0>         0.0692
     39 H19        10.0034    9.1947   -0.3581 H         1 <0>         0.0689
     40 H20         8.9050    8.9101    1.0132 H         1 <0>         0.0622
     41 H21         9.5637    6.8995   -1.1869 H         1 <0>         0.0699
     42 H22        10.2032    6.8674    0.4739 H         1 <0>         0.0708
     43 H23         7.8967    6.6502    1.3579 H         1 <0>         0.0660
     44 H24         8.2768    5.3249    0.2321 H         1 <0>         0.0672
     45 H25        -0.7872   -0.5729   -0.0051 H         1 <0>         0.4684
@<TRIPOS>BOND
     1    1    6 1
     2    1    2 2
     3    1   22 1
     4    2    3 1
     5    2    7 1
     6    3    4 1
     7    3    5 1
     8    5    6 2
     9    5   23 1
    10    6   45 1
    11    7   12 1
    12    7    8 1
    13    7   24 1
    14    8    9 1
    15    8   25 1
    16    8   26 1
    17    9   10 1
    18    9   27 1
    19    9   28 1
    20   10   11 1
    21   10   13 1
    22   11   12 1
    23   11   29 1
    24   11   30 1
    25   12   31 1
    26   12   32 1
    27   13   14 2
    28   13   15 1
    29   15   16 1
    30   15   33 1
    31   16   21 1
    32   16   17 1
    33   16   34 1
    34   17   18 1
    35   17   35 1
    36   17   36 1
    37   18   19 1
    38   18   37 1
    39   18   38 1
    40   19   20 1
    41   19   39 1
    42   19   40 1
    43   20   21 1
    44   20   41 1
    45   20   42 1
    46   21   43 1
    47   21   44 1
@<TRIPOS>MOLECULE
ZINC13108134
   45    47     0     0     0
SMALL
USER_CHARGES

@<TRIPOS>ATOM
      1 C1         -0.0111    1.3583    0.0120 C.2       1 <0>         0.0383
      2 C2          1.2720    1.7671    0.0013 C.2       1 <0>         0.0369
      3 N1          2.0544    0.6778   -0.0124 N.pl3     1 <0>        -0.4750
      4 C3          1.3050   -0.3905   -0.0106 C.cat     1 <0>         0.3075
      5 N2          0.0092   -0.0103    0.0045 N.pl3     1 <0>        -0.5077
      6 H1         -0.7629   -0.5975    0.0094 H         1 <0>         0.4689
      7 C4          1.7456    3.1978    0.0042 C.3       1 <0>        -0.0302
      8 C5          2.0381    3.6351    1.4413 C.3       1 <0>        -0.1285
      9 C6          2.4861    5.1000    1.4439 C.3       1 <0>         0.1035
     10 N3          3.6227    5.2486    0.5247 N.pl3     1 <0>        -0.5814
     11 C7          3.4787    4.7761   -0.8590 C.3       1 <0>         0.0976
     12 C8          3.0196    3.3147   -0.8357 C.3       1 <0>        -0.1373
     13 C9          4.7754    5.8081    0.9429 C.2       1 <0>         0.5626
     14 S1          4.8832    6.4711    2.5176 S.2       1 <0>        -0.6224
     15 N4          5.8431    5.8456    0.1213 N.pl3     1 <0>        -0.6791
     16 C10         7.1274    6.3518    0.6118 C.3       1 <0>         0.1383
     17 C11         7.8881    5.2222    1.3092 C.3       1 <0>        -0.1224
     18 C12         9.2293    5.7510    1.8215 C.3       1 <0>        -0.1165
     19 C13        10.0558    6.2713    0.6438 C.3       1 <0>        -0.1242
     20 C14         9.2951    7.4009   -0.0536 C.3       1 <0>        -0.1161
     21 C15         7.9539    6.8722   -0.5659 C.3       1 <0>        -0.1265
     22 H2         -0.8877    1.9890    0.0282 H         1 <0>         0.2279
     23 H3          1.6618   -1.4098   -0.0202 H         1 <0>         0.2669
     24 H4          0.9714    3.8375   -0.4194 H         1 <0>         0.1239
     25 H5          1.1364    3.5294    2.0444 H         1 <0>         0.0962
     26 H6          2.8297    3.0118    1.8573 H         1 <0>         0.0744
     27 H7          1.6635    5.7343    1.1133 H         1 <0>         0.0859
     28 H8          2.7901    5.3874    2.4504 H         1 <0>         0.1371
     29 H9          2.7371    5.3839   -1.3773 H         1 <0>         0.0936
     30 H10         4.4376    4.8497   -1.3719 H         1 <0>         0.0879
     31 H11         3.8019    2.6945   -0.3983 H         1 <0>         0.0712
     32 H12         2.8164    2.9810   -1.8533 H         1 <0>         0.0934
     33 H13         5.7612    5.5374   -0.7948 H         1 <0>         0.3930
     34 H14         6.9521    7.1625    1.3191 H         1 <0>         0.1214
     35 H15         7.2992    4.8515    2.1482 H         1 <0>         0.0749
     36 H16         8.0633    4.4115    0.6020 H         1 <0>         0.0564
     37 H17         9.0540    6.5617    2.5287 H         1 <0>         0.0714
     38 H18         9.7712    4.9462    2.3183 H         1 <0>         0.0679
     39 H19        11.0113    6.6480    1.0087 H         1 <0>         0.0690
     40 H20        10.2310    5.4606   -0.0635 H         1 <0>         0.0612
     41 H21         9.1199    8.2116    0.6536 H         1 <0>         0.0709
     42 H22         9.8839    7.7716   -0.8926 H         1 <0>         0.0714
     43 H23         8.1291    6.0615   -1.2731 H         1 <0>         0.0649
     44 H24         7.4119    7.6769   -1.0627 H         1 <0>         0.0700
     45 H25         3.0244    0.6833   -0.0225 H         1 <0>         0.4628
@<TRIPOS>BOND
     1    1    5 1
     2    1    2 2
     3    1   22 1
     4    2    3 1
     5    2    7 1
     6    3    4 2
     7    3   45 1
     8    4    5 1
     9    4   23 1
    10    5    6 1
    11    7   12 1
    12    7    8 1
    13    7   24 1
    14    8    9 1
    15    8   25 1
    16    8   26 1
    17    9   10 1
    18    9   27 1
    19    9   28 1
    20   10   11 1
    21   10   13 1
    22   11   12 1
    23   11   29 1
    24   11   30 1
    25   12   31 1
    26   12   32 1
    27   13   14 2
    28   13   15 1
    29   15   16 1
    30   15   33 1
    31   16   21 1
    32   16   17 1
    33   16   34 1
    34   17   18 1
    35   17   35 1
    36   17   36 1
    37   18   19 1
    38   18   37 1
    39   18   38 1
    40   19   20 1
    41   19   39 1
    42   19   40 1
    43   20   21 1
    44   20   41 1
    45   20   42 1
    46   21   43 1
    47   21   44 1
@<TRIPOS>MOLECULE
ZINC13108134
   44    46     0     0     0
SMALL
USER_CHARGES

@<TRIPOS>ATOM
      1 C1         -0.0228    1.3648    0.0142 C.2       1 <0>        -0.0496
      2 C2          1.2612    1.7707    0.0029 C.2       1 <0>         0.0065
      3 N1          2.0412    0.6796   -0.0102 N.2       1 <0>        -0.4899
      4 C3          1.2893   -0.3870   -0.0075 C.2       1 <0>         0.1866
      5 N2         -0.0055   -0.0039    0.0076 N.pl3     1 <0>        -0.5696
      6 H1         -0.7790   -0.5893    0.0131 H         1 <0>         0.4218
      7 C4          1.7382    3.2002    0.0047 C.3       1 <0>        -0.0028
      8 C5          0.7707    4.0615   -0.8104 C.3       1 <0>        -0.1243
      9 C6          1.2771    5.5071   -0.8353 C.3       1 <0>         0.1037
     10 N3          1.4729    5.9634    0.5475 N.pl3     1 <0>        -0.5686
     11 C7          2.3131    5.1586    1.4448 C.3       1 <0>         0.0956
     12 C8          1.7950    3.7169    1.4441 C.3       1 <0>        -0.1204
     13 C9          0.8931    7.0990    0.9844 C.2       1 <0>         0.5693
     14 S1          0.0257    8.0922   -0.1074 S.2       1 <0>        -0.6496
     15 N4          0.9963    7.4526    2.2809 N.pl3     1 <0>        -0.6848
     16 C10         0.2746    8.6259    2.7797 C.3       1 <0>         0.1416
     17 C11        -1.1535    8.2249    3.1547 C.3       1 <0>        -0.1252
     18 C12        -1.9071    9.4502    3.6757 C.3       1 <0>        -0.1150
     19 C13        -1.1916   10.0022    4.9103 C.3       1 <0>        -0.1234
     20 C14         0.2365   10.4032    4.5354 C.3       1 <0>        -0.1144
     21 C15         0.9902    9.1778    4.0144 C.3       1 <0>        -0.1272
     22 H2         -0.8979    1.9976    0.0302 H         1 <0>         0.1742
     23 H3          1.6439   -1.4071   -0.0165 H         1 <0>         0.2086
     24 H4          2.7323    3.2519   -0.4392 H         1 <0>         0.0883
     25 H5          0.7129    3.6787   -1.8294 H         1 <0>         0.0864
     26 H6         -0.2181    4.0302   -0.3529 H         1 <0>         0.0707
     27 H7          2.2242    5.5533   -1.3729 H         1 <0>         0.0798
     28 H8          0.5427    6.1431   -1.3295 H         1 <0>         0.1295
     29 H9          3.3446    5.1764    1.0931 H         1 <0>         0.0876
     30 H10         2.2621    5.5647    2.4550 H         1 <0>         0.0788
     31 H11         0.7966    3.6889    1.8804 H         1 <0>         0.0695
     32 H12         2.4663    3.0889    2.0298 H         1 <0>         0.0845
     33 H13         1.5484    6.9303    2.8836 H         1 <0>         0.3942
     34 H14         0.2454    9.3913    2.0043 H         1 <0>         0.1192
     35 H15        -1.6632    7.8317    2.2751 H         1 <0>         0.0770
     36 H16        -1.1242    7.4595    3.9302 H         1 <0>         0.0572
     37 H17        -1.9364   10.2156    2.9002 H         1 <0>         0.0698
     38 H18        -2.9246    9.1645    3.9428 H         1 <0>         0.0659
     39 H19        -1.7285   10.8751    5.2815 H         1 <0>         0.0658
     40 H20        -1.1624    9.2368    5.6858 H         1 <0>         0.0609
     41 H21         0.2072   11.1686    3.7599 H         1 <0>         0.0693
     42 H22         0.7463   10.7964    5.4149 H         1 <0>         0.0685
     43 H23         1.0194    8.4124    4.7898 H         1 <0>         0.0650
     44 H24         2.0076    9.4635    3.7473 H         1 <0>         0.0690
@<TRIPOS>BOND
     1    1    5 1
     2    1    2 2
     3    1   22 1
     4    2    3 1
     5    2    7 1
     6    3    4 2
     7    4    5 1
     8    4   23 1
     9    5    6 1
    10    7   12 1
    11    7    8 1
    12    7   24 1
    13    8    9 1
    14    8   25 1
    15    8   26 1
    16    9   10 1
    17    9   27 1
    18    9   28 1
    19   10   11 1
    20   10   13 1
    21   11   12 1
    22   11   29 1
    23   11   30 1
    24   12   31 1
    25   12   32 1
    26   13   14 2
    27   13   15 1
    28   15   16 1
    29   15   33 1
    30   16   21 1
    31   16   17 1
    32   16   34 1
    33   17   18 1
    34   17   35 1
    35   17   36 1
    36   18   19 1
    37   18   37 1
    38   18   38 1
    39   19   20 1
    40   19   39 1
    41   19   40 1
    42   20   21 1
    43   20   41 1
    44   20   42 1
    45   21   43 1
    46   21   44 1
@<TRIPOS>MOLECULE
ZINC13108134
   44    46     0     0     0
SMALL
USER_CHARGES

@<TRIPOS>ATOM
      1 C1         -0.0123    1.3344    0.0219 C.2       1 <0>        -0.0175
      2 C2          1.2619    1.7699    0.0072 C.2       1 <0>        -0.0222
      3 N1          2.0603    0.6581   -0.0070 N.pl3     1 <0>        -0.5669
      4 H1          3.0301    0.6461   -0.0194 H         1 <0>         0.4194
      5 C3          1.2456   -0.4188   -0.0005 C.2       1 <0>         0.1870
      6 N2          0.0075   -0.0067    0.0168 N.2       1 <0>        -0.4926
      7 C4          1.7207    3.2054    0.0062 C.3       1 <0>        -0.0100
      8 C5          1.7765    3.7238    1.4450 C.3       1 <0>        -0.1233
      9 C6          2.2762    5.1720    1.4427 C.3       1 <0>         0.1024
     10 N3          1.4225    5.9654    0.5481 N.pl3     1 <0>        -0.5710
     11 C7          1.2272    5.5055   -0.8337 C.3       1 <0>         0.0963
     12 C8          0.7393    4.0537   -0.8058 C.3       1 <0>        -0.1223
     13 C9          0.8294    7.0934    0.9867 C.2       1 <0>         0.5692
     14 S1          0.9576    7.5432    2.6335 S.2       1 <0>        -0.6448
     15 N4          0.1353    7.8672    0.1288 N.pl3     1 <0>        -0.6833
     16 C10        -0.4165    9.1473    0.5793 C.3       1 <0>         0.1411
     17 C11         0.6546   10.2336    0.4630 C.3       1 <0>        -0.1255
     18 C12         0.0782   11.5706    0.9334 C.3       1 <0>        -0.1151
     19 C13        -1.1227   11.9432    0.0618 C.3       1 <0>        -0.1235
     20 C14        -2.1939   10.8569    0.1780 C.3       1 <0>        -0.1145
     21 C15        -1.6175    9.5199   -0.2924 C.3       1 <0>        -0.1270
     22 H2         -0.8953    1.9560    0.0395 H         1 <0>         0.1658
     23 H3          1.5656   -1.4503   -0.0084 H         1 <0>         0.2090
     24 H4          2.7125    3.2693   -0.4414 H         1 <0>         0.0804
     25 H5          0.7802    3.6835    1.8852 H         1 <0>         0.0788
     26 H6          2.4579    3.1048    2.0286 H         1 <0>         0.0820
     27 H7          2.2241    5.5781    2.4528 H         1 <0>         0.1325
     28 H8          3.3062    5.2026    1.0871 H         1 <0>         0.0770
     29 H9          0.4829    6.1318   -1.3255 H         1 <0>         0.0822
     30 H10         2.1716    5.5633   -1.3749 H         1 <0>         0.0854
     31 H11         0.6824    3.6694   -1.8242 H         1 <0>         0.0876
     32 H12        -0.2473    4.0102   -0.3444 H         1 <0>         0.0791
     33 H13         0.0012    7.5765   -0.7868 H         1 <0>         0.3942
     34 H14        -0.7346    9.0604    1.6182 H         1 <0>         0.1194
     35 H15         1.5102    9.9682    1.0840 H         1 <0>         0.0770
     36 H16         0.9727   10.3205   -0.5759 H         1 <0>         0.0577
     37 H17        -0.2399   11.4837    1.9723 H         1 <0>         0.0698
     38 H18         0.8413   12.3445    0.8506 H         1 <0>         0.0664
     39 H19        -1.5333   12.8957    0.3969 H         1 <0>         0.0661
     40 H20        -0.8046   12.0301   -0.9771 H         1 <0>         0.0612
     41 H21        -2.5120   10.7700    1.2170 H         1 <0>         0.0693
     42 H22        -3.0495   11.1223   -0.4429 H         1 <0>         0.0688
     43 H23        -1.2994    9.6068   -1.3313 H         1 <0>         0.0653
     44 H24        -2.3806    8.7460   -0.2096 H         1 <0>         0.0691
@<TRIPOS>BOND
     1    1    6 1
     2    1    2 2
     3    1   22 1
     4    2    3 1
     5    2    7 1
     6    3    4 1
     7    3    5 1
     8    5    6 2
     9    5   23 1
    10    7   12 1
    11    7    8 1
    12    7   24 1
    13    8    9 1
    14    8   25 1
    15    8   26 1
    16    9   10 1
    17    9   27 1
    18    9   28 1
    19   10   11 1
    20   10   13 1
    21   11   12 1
    22   11   29 1
    23   11   30 1
    24   12   31 1
    25   12   32 1
    26   13   14 2
    27   13   15 1
    28   15   16 1
    29   15   33 1
    30   16   21 1
    31   16   17 1
    32   16   34 1
    33   17   18 1
    34   17   35 1
    35   17   36 1
    36   18   19 1
    37   18   37 1
    38   18   38 1
    39   19   20 1
    40   19   39 1
    41   19   40 1
    42   20   21 1
    43   20   41 1
    44   20   42 1
    45   21   43 1
    46   21   44 1
@<TRIPOS>MOLECULE
ZINC13741026
   28    29     0     0     0
SMALL
USER_CHARGES
2-[2-(3-bromophenyl)-1H-imidazol-4-yl]ethanamine
@<TRIPOS>ATOM
      1 C1         -1.2213    1.7481    0.0174 C.ar      1 <0>        -0.1044
      2 C2         -1.2469    3.1278    0.0308 C.ar      1 <0>        -0.0932
      3 C3         -0.0503    3.8452    0.0232 C.ar      1 <0>        -0.0238
      4 C4          1.1662    3.1618    0.0079 C.ar      1 <0>        -0.0489
      5 C5          1.1787    1.7815    0.0004 C.ar      1 <0>        -0.0908
      6 C6         -0.0126    1.0758    0.0080 C.ar      1 <0>        -0.0734
      7 Br1         2.8257    0.8527   -0.0197 Br        1 <0>        -0.0318
      8 C7         -0.0712    5.3242    0.0318 C.2       1 <0>         0.2704
      9 N1         -1.1883    6.1072    0.0413 N.pl3     1 <0>        -0.5596
     10 H1         -2.1368    5.7903    0.0415 H         1 <0>         0.4358
     11 C8         -0.7647    7.4088    0.0505 C.2       1 <0>        -0.0132
     12 C9          0.5836    7.3855    0.0372 C.2       1 <0>        -0.0236
     13 N2          0.9834    6.1087    0.0260 N.2       1 <0>        -0.4719
     14 C10         1.4864    8.5922    0.0352 C.3       1 <0>        -0.0527
     15 C11         2.4655    8.4985    1.2071 C.3       1 <0>         0.0006
     16 H2         -2.1471    1.1920    0.0187 H         1 <0>         0.1431
     17 H3         -2.1915    3.6513    0.0426 H         1 <0>         0.1267
     18 H4          2.0958    3.7116    0.0016 H         1 <0>         0.1452
     19 H5          0.0021   -0.0041    0.0020 H         1 <0>         0.1421
     20 H6         -1.3917    8.2881    0.0617 H         1 <0>         0.1855
     21 H7          2.0429    8.6280   -0.9013 H         1 <0>         0.0976
     22 H8          0.8852    9.4958    0.1354 H         1 <0>         0.0986
     23 H9          1.9089    8.4626    2.1436 H         1 <0>         0.1335
     24 H10         3.0667    7.5948    1.1070 H         1 <0>         0.1385
     25 H11         2.8082   10.5283    1.2322 H         1 <0>         0.4357
     26 H12         4.0020    9.6364    1.9705 H         1 <0>         0.4411
     27 N3          3.3569    9.6715    1.1829 N.4       1 <0>        -0.6470
     28 H13         3.8953    9.6683    0.3086 H         1 <0>         0.4400
@<TRIPOS>BOND
     1    1    6 ar
     2    1    2 ar
     3    1   16 1
     4    2    3 ar
     5    2   17 1
     6    3    4 ar
     7    3    8 1
     8    4    5 ar
     9    4   18 1
    10    5    6 ar
    11    5    7 1
    12    6   19 1
    13    8   13 2
    14    8    9 1
    15    9   10 1
    16    9   11 1
    17   11   12 2
    18   11   20 1
    19   12   13 1
    20   12   14 1
    21   14   15 1
    22   14   21 1
    23   14   22 1
    24   15   23 1
    25   15   24 1
    26   15   27 1
    27   25   27 1
    28   26   27 1
    29   27   28 1
@<TRIPOS>MOLECULE
ZINC13741026
   29    30     0     0     0
SMALL
USER_CHARGES
2-[2-(3-bromophenyl)-1H-imidazol-4-yl]ethanamine
@<TRIPOS>ATOM
      1 C1         -1.2213    1.7481    0.0174 C.ar      1 <0>        -0.0943
      2 C2         -1.2469    3.1278    0.0308 C.ar      1 <0>        -0.0540
      3 C3         -0.0503    3.8452    0.0232 C.ar      1 <0>        -0.1015
      4 C4          1.1662    3.1618    0.0079 C.ar      1 <0>        -0.0490
      5 C5          1.1787    1.7815    0.0004 C.ar      1 <0>        -0.0905
      6 C6         -0.0126    1.0758    0.0080 C.ar      1 <0>        -0.0295
      7 Br1         2.8257    0.8527   -0.0197 Br        1 <0>         0.0030
      8 C7         -0.0712    5.3242    0.0318 C.cat     1 <0>         0.4137
      9 N1         -1.1883    6.1072    0.0413 N.pl3     1 <0>        -0.5151
     10 H1         -2.1368    5.7903    0.0415 H         1 <0>         0.4795
     11 C8         -0.7647    7.4088    0.0505 C.2       1 <0>         0.0735
     12 C9          0.5836    7.3855    0.0372 C.2       1 <0>         0.0048
     13 C10         1.4864    8.5922    0.0352 C.3       1 <0>        -0.0843
     14 C11         2.4655    8.4985    1.2071 C.3       1 <0>        -0.0087
     15 H2         -2.1471    1.1920    0.0187 H         1 <0>         0.1617
     16 H3         -2.1915    3.6513    0.0426 H         1 <0>         0.1419
     17 H4          2.0958    3.7116    0.0016 H         1 <0>         0.1380
     18 H5          0.0021   -0.0041    0.0020 H         1 <0>         0.1596
     19 H6         -1.3917    8.2881    0.0617 H         1 <0>         0.2338
     20 H7          2.0429    8.6280   -0.9013 H         1 <0>         0.1240
     21 H8          0.8852    9.4958    0.1354 H         1 <0>         0.1366
     22 H9          1.9089    8.4626    2.1436 H         1 <0>         0.1465
     23 H10         3.0667    7.5948    1.1070 H         1 <0>         0.1293
     24 H11         2.8082   10.5283    1.2322 H         1 <0>         0.4452
     25 H12         4.0020    9.6364    1.9705 H         1 <0>         0.4517
     26 N2          3.3569    9.6715    1.1829 N.4       1 <0>        -0.6457
     27 H13         3.8953    9.6683    0.3086 H         1 <0>         0.4455
     28 N3          0.9821    6.1091    0.0260 N.pl3     1 <0>        -0.4907
     29 H14         1.9587    5.7922    0.0147 H         1 <0>         0.4750
@<TRIPOS>BOND
     1    1    6 ar
     2    1    2 ar
     3    1   15 1
     4    2    3 ar
     5    2   16 1
     6    3    4 ar
     7    3    8 1
     8    4    5 ar
     9    4   17 1
    10    5    6 ar
    11    5    7 1
    12    6   18 1
    13    8    9 1
    14    8   28 2
    15    9   10 1
    16    9   11 1
    17   11   12 2
    18   11   19 1
    19   12   13 1
    20   12   28 1
    21   13   14 1
    22   13   20 1
    23   13   21 1
    24   14   22 1
    25   14   23 1
    26   14   26 1
    27   24   26 1
    28   25   26 1
    29   26   27 1
    30   28   29 1
@<TRIPOS>MOLECULE
ZINC29054164
   47    50     0     0     0
SMALL
USER_CHARGES
2-benzyl-3-(4-methylpiperazin-1-yl)quinoxaline
@<TRIPOS>ATOM
      1 C1          6.3845    6.2916   -0.2208 C.3       1 <0>        -0.0451
      2 N1          5.1159    6.4172   -0.9509 N.4       1 <0>        -0.4038
      3 C2          4.5459    5.0955   -1.2474 C.3       1 <0>         0.0004
      4 C3          3.2701    5.2673   -2.0753 C.3       1 <0>         0.0251
      5 N2          2.3125    6.0952   -1.3287 N.pl3     1 <0>        -0.4735
      6 C4          2.8826    7.4168   -1.0322 C.3       1 <0>         0.0251
      7 C5          4.1584    7.2451   -0.2044 C.3       1 <0>         0.0022
      8 C6          1.1150    6.2137   -2.0180 C.ar      1 <0>         0.2565
      9 C7         -0.0911    5.8578   -1.3880 C.ar      1 <0>         0.1525
     10 N3         -1.2332    5.9684   -2.0219 N.ar      1 <0>        -0.4097
     11 C8         -1.2549    6.4191   -3.2828 C.ar      1 <0>         0.0919
     12 C9         -2.4659    6.5473   -3.9841 C.ar      1 <0>        -0.0838
     13 C10        -2.4590    7.0085   -5.2647 C.ar      1 <0>        -0.0861
     14 C11        -1.2659    7.3571   -5.8944 C.ar      1 <0>        -0.0883
     15 C12        -0.0742    7.2459   -5.2460 C.ar      1 <0>        -0.0880
     16 C13        -0.0420    6.7735   -3.9230 C.ar      1 <0>         0.0868
     17 N4          1.1161    6.6539   -3.2617 N.ar      1 <0>        -0.4485
     18 C14        -0.0709    5.3506    0.0310 C.3       1 <0>        -0.0244
     19 C15        -0.0672    3.8437    0.0258 C.ar      1 <0>        -0.0828
     20 C16         1.1316    3.1555    0.0074 C.ar      1 <0>        -0.1139
     21 C17         1.1350    1.7732    0.0022 C.ar      1 <0>        -0.1250
     22 C18        -0.0603    1.0790    0.0153 C.ar      1 <0>        -0.1154
     23 C19        -1.2591    1.7671    0.0283 C.ar      1 <0>        -0.1153
     24 C20        -1.2625    3.1495    0.0389 C.ar      1 <0>        -0.1027
     25 H1          7.0812    5.6684   -0.8007 H         1 <0>         0.1253
     26 H2          6.1999    5.8226    0.7569 H         1 <0>         0.1211
     27 H3          6.8222    7.2897   -0.0719 H         1 <0>         0.1256
     28 H4          5.2758    4.5006   -1.8159 H         1 <0>         0.1411
     29 H5          4.3065    4.5798   -0.3057 H         1 <0>         0.1374
     30 H6          3.5151    5.7580   -3.0288 H         1 <0>         0.0800
     31 H7          2.8263    4.2806   -2.2741 H         1 <0>         0.1240
     32 H8          3.1220    7.9325   -1.9739 H         1 <0>         0.0762
     33 H9          2.1528    8.0118   -0.4636 H         1 <0>         0.1252
     34 H10         3.9146    6.7540    0.7492 H         1 <0>         0.1388
     35 H11         4.6033    8.2313   -0.0057 H         1 <0>         0.1412
     36 H12        -3.3984    6.2813   -3.5086 H         1 <0>         0.1462
     37 H13        -3.3918    7.1061   -5.8003 H         1 <0>         0.1438
     38 H14        -1.2869    7.7202   -6.9113 H         1 <0>         0.1425
     39 H15         0.8428    7.5201   -5.7463 H         1 <0>         0.1400
     40 H16         0.8332    5.7177    0.5388 H         1 <0>         0.1028
     41 H17        -0.9629    5.7133    0.5628 H         1 <0>         0.0971
     42 H18         2.0655    3.6979   -0.0032 H         1 <0>         0.1181
     43 H19         2.0716    1.2356   -0.0124 H         1 <0>         0.1207
     44 H20        -0.0576   -0.0010    0.0110 H         1 <0>         0.1238
     45 H21        -2.1930    1.2248    0.0341 H         1 <0>         0.1255
     46 H22        -2.1990    3.6871    0.0528 H         1 <0>         0.1259
     47 H23         5.3257    6.9190   -1.9070 H         1 <0>         0.4433
@<TRIPOS>BOND
     1    1    2 1
     2    1   25 1
     3    1   26 1
     4    1   27 1
     5    2    7 1
     6    2    3 1
     7    2   47 1
     8    3    4 1
     9    3   28 1
    10    3   29 1
    11    4    5 1
    12    4   30 1
    13    4   31 1
    14    5    6 1
    15    5    8 1
    16    6    7 1
    17    6   32 1
    18    6   33 1
    19    7   34 1
    20    7   35 1
    21    8   17 ar
    22    8    9 ar
    23    9   10 ar
    24    9   18 1
    25   10   11 ar
    26   11   16 ar
    27   11   12 ar
    28   12   13 ar
    29   12   36 1
    30   13   14 ar
    31   13   37 1
    32   14   15 ar
    33   14   38 1
    34   15   16 ar
    35   15   39 1
    36   16   17 ar
    37   18   19 1
    38   18   40 1
    39   18   41 1
    40   19   24 ar
    41   19   20 ar
    42   20   21 ar
    43   20   42 1
    44   21   22 ar
    45   21   43 1
    46   22   23 ar
    47   22   44 1
    48   23   24 ar
    49   23   45 1
    50   24   46 1
@<TRIPOS>MOLECULE
ZINC29054164
   46    49     0     0     0
SMALL
USER_CHARGES
2-benzyl-3-(4-methylpiperazin-1-yl)quinoxaline
@<TRIPOS>ATOM
      1 C1          6.3845    6.2916   -0.2208 C.3       1 <0>         0.0229
      2 N1          5.1159    6.4172   -0.9509 N.3       1 <0>        -0.5443
      3 C2          4.5459    5.0955   -1.2474 C.3       1 <0>         0.0565
      4 C3          3.2701    5.2673   -2.0753 C.3       1 <0>         0.0590
      5 N2          2.3125    6.0952   -1.3287 N.pl3     1 <0>        -0.4794
      6 C4          2.8826    7.4168   -1.0322 C.3       1 <0>         0.0587
      7 C5          4.1584    7.2451   -0.2044 C.3       1 <0>         0.0571
      8 C6          1.1150    6.2137   -2.0180 C.ar      1 <0>         0.2817
      9 C7         -0.0911    5.8578   -1.3880 C.ar      1 <0>         0.1495
     10 N3         -1.2332    5.9684   -2.0219 N.ar      1 <0>        -0.4185
     11 C8         -1.2549    6.4191   -3.2828 C.ar      1 <0>         0.0794
     12 C9         -2.4659    6.5473   -3.9841 C.ar      1 <0>        -0.0825
     13 C10        -2.4590    7.0085   -5.2647 C.ar      1 <0>        -0.0985
     14 C11        -1.2659    7.3571   -5.8944 C.ar      1 <0>        -0.0980
     15 C12        -0.0742    7.2459   -5.2460 C.ar      1 <0>        -0.0849
     16 C13        -0.0420    6.7735   -3.9230 C.ar      1 <0>         0.0880
     17 N4          1.1161    6.6539   -3.2617 N.ar      1 <0>        -0.4513
     18 C14        -0.0709    5.3506    0.0310 C.3       1 <0>        -0.0249
     19 C15        -0.0672    3.8437    0.0258 C.ar      1 <0>        -0.0778
     20 C16         1.1316    3.1555    0.0074 C.ar      1 <0>        -0.1065
     21 C17         1.1350    1.7732    0.0022 C.ar      1 <0>        -0.1242
     22 C18        -0.0603    1.0790    0.0153 C.ar      1 <0>        -0.1202
     23 C19        -1.2591    1.7671    0.0283 C.ar      1 <0>        -0.1225
     24 C20        -1.2625    3.1495    0.0389 C.ar      1 <0>        -0.1052
     25 H1          7.0812    5.6684   -0.8007 H         1 <0>         0.0705
     26 H2          6.1999    5.8226    0.7569 H         1 <0>         0.0284
     27 H3          6.8222    7.2897   -0.0719 H         1 <0>         0.0709
     28 H4          5.2758    4.5006   -1.8159 H         1 <0>         0.0855
     29 H5          4.3065    4.5798   -0.3057 H         1 <0>         0.0457
     30 H6          3.5151    5.7580   -3.0288 H         1 <0>         0.0636
     31 H7          2.8263    4.2806   -2.2741 H         1 <0>         0.0808
     32 H8          3.1220    7.9325   -1.9739 H         1 <0>         0.0603
     33 H9          2.1528    8.0118   -0.4636 H         1 <0>         0.0825
     34 H10         3.9146    6.7540    0.7492 H         1 <0>         0.0472
     35 H11         4.6033    8.2313   -0.0057 H         1 <0>         0.0861
     36 H12        -3.3984    6.2813   -3.5086 H         1 <0>         0.1403
     37 H13        -3.3918    7.1061   -5.8003 H         1 <0>         0.1370
     38 H14        -1.2869    7.7202   -6.9113 H         1 <0>         0.1366
     39 H15         0.8428    7.5201   -5.7463 H         1 <0>         0.1383
     40 H16         0.8332    5.7177    0.5388 H         1 <0>         0.1073
     41 H17        -0.9629    5.7133    0.5628 H         1 <0>         0.0929
     42 H18         2.0655    3.6979   -0.0032 H         1 <0>         0.1274
     43 H19         2.0716    1.2356   -0.0124 H         1 <0>         0.1204
     44 H20        -0.0576   -0.0010    0.0110 H         1 <0>         0.1199
     45 H21        -2.1930    1.2248    0.0341 H         1 <0>         0.1211
     46 H22        -2.1990    3.6871    0.0528 H         1 <0>         0.1234
@<TRIPOS>BOND
     1    1    2 1
     2    1   25 1
     3    1   26 1
     4    1   27 1
     5    2    7 1
     6    2    3 1
     7    3    4 1
     8    3   28 1
     9    3   29 1
    10    4    5 1
    11    4   30 1
    12    4   31 1
    13    5    6 1
    14    5    8 1
    15    6    7 1
    16    6   32 1
    17    6   33 1
    18    7   34 1
    19    7   35 1
    20    8   17 ar
    21    8    9 ar
    22    9   10 ar
    23    9   18 1
    24   10   11 ar
    25   11   16 ar
    26   11   12 ar
    27   12   13 ar
    28   12   36 1
    29   13   14 ar
    30   13   37 1
    31   14   15 ar
    32   14   38 1
    33   15   16 ar
    34   15   39 1
    35   16   17 ar
    36   18   19 1
    37   18   40 1
    38   18   41 1
    39   19   24 ar
    40   19   20 ar
    41   20   21 ar
    42   20   42 1
    43   21   22 ar
    44   21   43 1
    45   22   23 ar
    46   22   44 1
    47   23   24 ar
    48   23   45 1
    49   24   46 1
@<TRIPOS>MOLECULE
ZINC22112721
   21    21     0     0     0
SMALL
USER_CHARGES

@<TRIPOS>ATOM
      1 C1         -0.0187    1.5258    0.0104 C.3       1 <0>        -0.1842
      2 C2          0.0021   -0.0041    0.0020 C.3       1 <0>         0.0346
      3 H1          0.5123   -0.3556   -0.8948 H         1 <0>         0.1477
      4 C3         -1.4333   -0.5336    0.0129 C.3       1 <0>        -0.0503
      5 C4         -1.4159   -2.0348   -0.1192 C.2       1 <0>        -0.0556
      6 C5         -2.0004   -2.9099    0.7211 C.2       1 <0>        -0.0335
      7 N1         -1.7413   -4.1619    0.2321 N.pl3     1 <0>        -0.5621
      8 H2         -2.0310   -5.0025    0.6197 H         1 <0>         0.4316
      9 C6         -1.0070   -4.0081   -0.8908 C.2       1 <0>         0.2070
     10 N2         -0.8206   -2.7331   -1.0974 N.2       1 <0>        -0.4911
     11 N3          0.7126   -0.4907    1.1921 N.4       1 <0>        -0.6344
     12 H3          1.0039    1.9031    0.0027 H         1 <0>         0.0834
     13 H4         -0.5459    1.8868   -0.8726 H         1 <0>         0.1076
     14 H5         -0.5289    1.8773    0.9072 H         1 <0>         0.0819
     15 H6         -1.9156   -0.2570    0.9504 H         1 <0>         0.0992
     16 H7         -1.9862   -0.1019   -0.8214 H         1 <0>         0.1207
     17 H8         -2.5648   -2.6701    1.6101 H         1 <0>         0.1825
     18 H9         -0.6386   -4.8076   -1.5164 H         1 <0>         0.2170
     19 H10         0.2403   -0.1653    2.0223 H         1 <0>         0.4299
     20 H11         0.7262   -1.4996    1.1866 H         1 <0>         0.4331
     21 H12         1.6592   -0.1415    1.1850 H         1 <0>         0.4350
@<TRIPOS>BOND
     1    1    2 1
     2    1   12 1
     3    1   13 1
     4    1   14 1
     5    2    3 1
     6    2    4 1
     7    2   11 1
     8    4    5 1
     9    4   15 1
    10    4   16 1
    11    5   10 1
    12    5    6 2
    13    6    7 1
    14    6   17 1
    15    7    8 1
    16    7    9 1
    17    9   10 2
    18    9   18 1
    19   11   19 1
    20   11   20 1
    21   11   21 1
@<TRIPOS>MOLECULE
ZINC02559937
   21    21     0     0     0
SMALL
USER_CHARGES

@<TRIPOS>ATOM
      1 C1         -0.0178    1.4648    0.0101 C.3       1 <0>        -0.0463
      2 N1          0.0021   -0.0041    0.0020 N.4       1 <0>        -0.5100
      3 C2          0.6897   -0.4778   -1.2066 C.3       1 <0>        -0.0042
      4 C3          0.7104   -2.0077   -1.2150 C.3       1 <0>        -0.0508
      5 C4          1.4158   -2.4937   -2.4549 C.2       1 <0>        -0.0285
      6 C5          2.4655   -3.3365   -2.4892 C.2       1 <0>        -0.0274
      7 N2          2.7899   -3.5117   -3.8074 N.pl3     1 <0>        -0.5631
      8 H1          3.5062   -4.0657   -4.1552 H         1 <0>         0.4303
      9 C6          1.9265   -2.7692   -4.5333 C.2       1 <0>         0.2054
     10 N3          1.1044   -2.1671   -3.7180 N.2       1 <0>        -0.4942
     11 H2          1.0047    1.8421    0.0024 H         1 <0>         0.1224
     12 H3         -0.5450    1.8259   -0.8730 H         1 <0>         0.1238
     13 H4         -0.5280    1.8163    0.9069 H         1 <0>         0.1261
     14 H5          0.4901   -0.3383    0.8195 H         1 <0>         0.4288
     15 H6          0.1625   -0.1167   -2.0897 H         1 <0>         0.1383
     16 H7          1.7123   -0.1005   -1.2143 H         1 <0>         0.1297
     17 H8          1.2376   -2.3687   -0.3319 H         1 <0>         0.0965
     18 H9         -0.3122   -2.3849   -1.2073 H         1 <0>         0.0961
     19 H10         2.9572   -3.7874   -1.6398 H         1 <0>         0.1810
     20 H11         1.9155   -2.6901   -5.6103 H         1 <0>         0.2155
     21 H12        -0.9445   -0.3533    0.0092 H         1 <0>         0.4307
@<TRIPOS>BOND
     1    1    2 1
     2    1   11 1
     3    1   12 1
     4    1   13 1
     5    2    3 1
     6    2   14 1
     7    2   21 1
     8    3    4 1
     9    3   15 1
    10    3   16 1
    11    4    5 1
    12    4   17 1
    13    4   18 1
    14    5   10 1
    15    5    6 2
    16    6    7 1
    17    6   19 1
    18    7    8 1
    19    7    9 1
    20    9   10 2
    21    9   20 1
@<TRIPOS>MOLECULE
ZINC13209604
   21    21     0     0     0
SMALL
USER_CHARGES

@<TRIPOS>ATOM
      1 C1         -0.0184    1.5028    0.0103 C.3       1 <0>        -0.0894
      2 C2          0.0021   -0.0041    0.0020 C.2       1 <0>        -0.0009
      3 C3          0.0081   -0.8009   -1.0836 C.2       1 <0>        -0.0270
      4 N1          0.0272   -2.0745   -0.6635 N.2       1 <0>        -0.4861
      5 C4          0.0333   -2.0972    0.6413 C.2       1 <0>         0.2050
      6 N2          0.0241   -0.8258    1.0965 N.pl3     1 <0>        -0.5619
      7 H1          0.0299   -0.5470    2.0255 H         1 <0>         0.4283
      8 C5         -0.0046   -0.3419   -2.5190 C.3       1 <0>        -0.0544
      9 C6          1.4335   -0.1671   -3.0112 C.3       1 <0>        -0.0045
     10 N3          1.4212    0.2803   -4.4104 N.4       1 <0>        -0.6372
     11 H2          1.0042    1.8801    0.0026 H         1 <0>         0.0782
     12 H3         -0.5455    1.8639   -0.8728 H         1 <0>         0.0832
     13 H4         -0.5286    1.8543    0.9071 H         1 <0>         0.0754
     14 H5          0.0476   -2.9856    1.2553 H         1 <0>         0.2166
     15 H6         -0.5111   -1.0859   -3.1339 H         1 <0>         0.1005
     16 H7         -0.5317    0.6093   -2.5917 H         1 <0>         0.0962
     17 H8          1.9400    0.5769   -2.3963 H         1 <0>         0.1320
     18 H9          1.9606   -1.1183   -2.9385 H         1 <0>         0.1363
     19 H10         0.9523   -0.4084   -4.9796 H         1 <0>         0.4366
     20 H11         0.9332    1.1609   -4.4777 H         1 <0>         0.4344
     21 H12         2.3696    0.3956   -4.7350 H         1 <0>         0.4389
@<TRIPOS>BOND
     1    1    2 1
     2    1   11 1
     3    1   12 1
     4    1   13 1
     5    2    6 1
     6    2    3 2
     7    3    4 1
     8    3    8 1
     9    4    5 2
    10    5    6 1
    11    5   14 1
    12    6    7 1
    13    8    9 1
    14    8   15 1
    15    8   16 1
    16    9   10 1
    17    9   17 1
    18    9   18 1
    19   10   19 1
    20   10   20 1
    21   10   21 1
@<TRIPOS>MOLECULE
ZINC13209604
   22    22     0     0     0
SMALL
USER_CHARGES

@<TRIPOS>ATOM
      1 C1         -0.0184    1.5028    0.0103 C.3       1 <0>        -0.1139
      2 C2          0.0021   -0.0041    0.0020 C.2       1 <0>         0.0951
      3 C3          0.0081   -0.8009   -1.0836 C.2       1 <0>        -0.0074
      4 N1          0.0272   -2.0745   -0.6635 N.pl3     1 <0>        -0.4730
      5 C4          0.0333   -2.0972    0.6413 C.cat     1 <0>         0.3351
      6 N2          0.0241   -0.8258    1.0965 N.pl3     1 <0>        -0.5099
      7 H1          0.0299   -0.5470    2.0255 H         1 <0>         0.4730
      8 C5         -0.0046   -0.3419   -2.5190 C.3       1 <0>        -0.0839
      9 C6          1.4265   -0.0474   -2.9729 C.3       1 <0>        -0.0089
     10 N3          1.4142    0.4000   -4.3721 N.4       1 <0>        -0.6373
     11 H2          1.0042    1.8801    0.0026 H         1 <0>         0.1092
     12 H3         -0.5455    1.8639   -0.8728 H         1 <0>         0.1082
     13 H4         -0.5286    1.8543    0.9071 H         1 <0>         0.1050
     14 H5          0.0476   -2.9856    1.2553 H         1 <0>         0.2746
     15 H6         -0.4311   -1.1243   -3.1468 H         1 <0>         0.1201
     16 H7         -0.6068    0.5624   -2.6060 H         1 <0>         0.1322
     17 H8          1.8531    0.7349   -2.3451 H         1 <0>         0.1434
     18 H9          2.0287   -0.9518   -2.8859 H         1 <0>         0.1385
     19 H10         1.0194   -0.3242   -4.9532 H         1 <0>         0.4408
     20 H11         0.8568    1.2371   -4.4526 H         1 <0>         0.4418
     21 H12         2.3580    0.5942   -4.6714 H         1 <0>         0.4497
     22 H13         0.0350   -2.8555   -1.2387 H         1 <0>         0.4676
@<TRIPOS>BOND
     1    1    2 1
     2    1   11 1
     3    1   12 1
     4    1   13 1
     5    2    6 1
     6    2    3 2
     7    3    4 1
     8    3    8 1
     9    4    5 2
    10    4   22 1
    11    5    6 1
    12    5   14 1
    13    6    7 1
    14    8    9 1
    15    8   15 1
    16    8   16 1
    17    9   10 1
    18    9   17 1
    19    9   18 1
    20   10   19 1
    21   10   20 1
    22   10   21 1
@<TRIPOS>MOLECULE
ZINC14979641
   26    26     0     0     0
SMALL
USER_CHARGES
3-(1H-imidazol-4-yl)propylsulfanylformamidine
@<TRIPOS>ATOM
      1 C1          0.0021   -0.0041    0.0020 C.2       1 <0>         0.0296
      2 C2          1.2963   -0.3761   -0.0123 C.2       1 <0>         0.0069
      3 N1          2.0475    0.7351   -0.0135 N.pl3     1 <0>        -0.4994
      4 C3          1.2679    1.7816   -0.0005 C.cat     1 <0>         0.3318
      5 N2         -0.0165    1.3646    0.0095 N.pl3     1 <0>        -0.5288
      6 H1         -0.9765    1.9015    0.0215 H         1 <0>         0.5117
      7 C4          1.8104   -1.7926   -0.0249 C.3       1 <0>        -0.0564
      8 C5          2.7508   -1.9833   -1.2166 C.3       1 <0>        -0.1129
      9 C6          3.2728   -3.4215   -1.2293 C.3       1 <0>        -0.1627
     10 S1          4.3853   -3.6471   -2.6390 S.3       1 <0>         0.0699
     11 C7          4.8242   -5.3388   -2.4148 C.cat     1 <0>         0.4834
     12 N3          4.3313   -6.0131   -1.4131 N.pl3     1 <0>        -0.7874
     13 N4          5.6868   -5.9483   -3.2963 N.pl3     1 <0>        -0.7970
     14 H2         -0.8562   -0.6596    0.0072 H         1 <0>         0.2222
     15 H3          1.5957    2.8106    0.0019 H         1 <0>         0.2631
     16 H4          2.3564   -1.9928    0.9088 H         1 <0>         0.1081
     17 H5          0.9635   -2.4893   -0.1110 H         1 <0>         0.1184
     18 H6          2.2047   -1.7831   -2.1503 H         1 <0>         0.0981
     19 H7          3.5977   -1.2866   -1.1306 H         1 <0>         0.0856
     20 H8          3.8188   -3.6216   -0.2956 H         1 <0>         0.1206
     21 H9          2.4259   -4.1182   -1.3153 H         1 <0>         0.1222
     22 H10         4.6053   -7.0692   -1.2731 H         1 <0>         0.4662
     23 H11         5.9608   -7.0044   -3.1563 H         1 <0>         0.4623
     24 H12         6.1025   -5.3795   -4.1411 H         1 <0>         0.4775
     25 H13         3.6416   -5.5257   -0.7083 H         1 <0>         0.4663
     26 H14         3.1447    0.6572   -0.0243 H         1 <0>         0.5007
@<TRIPOS>BOND
     1    1    5 1
     2    1    2 2
     3    1   14 1
     4    2    3 1
     5    2    7 1
     6    3    4 2
     7    3   26 1
     8    4    5 1
     9    4   15 1
    10    5    6 1
    11    7    8 1
    12    7   16 1
    13    7   17 1
    14    8    9 1
    15    8   18 1
    16    8   19 1
    17    9   10 1
    18    9   20 1
    19    9   21 1
    20   10   11 1
    21   11   12 2
    22   11   13 1
    23   12   22 1
    24   12   25 1
    25   13   23 1
    26   13   24 1
@<TRIPOS>MOLECULE
ZINC14979641
   24    24     0     0     0
SMALL
USER_CHARGES
3-(1H-imidazol-4-yl)propylsulfanylformamidine
@<TRIPOS>ATOM
      1 C1          0.0021   -0.0041    0.0020 C.2       1 <0>        -0.0192
      2 C2          1.2963   -0.3761   -0.0123 C.2       1 <0>        -0.0440
      3 N1          2.0475    0.7351   -0.0135 N.pl3     1 <0>        -0.5253
      4 C3          1.2679    1.7816   -0.0005 C.2       1 <0>         0.1615
      5 N2         -0.0165    1.3646    0.0095 N.2       1 <0>        -0.4974
      6 H1          3.0472    0.7580   -0.0229 H         1 <0>         0.4237
      7 C4          1.8104   -1.7926   -0.0249 C.3       1 <0>        -0.0385
      8 C5          2.7508   -1.9833   -1.2166 C.3       1 <0>        -0.1082
      9 C6          3.2728   -3.4215   -1.2293 C.3       1 <0>        -0.0867
     10 S1          4.3853   -3.6471   -2.6390 S.3       1 <0>        -0.0571
     11 C7          4.8242   -5.3388   -2.4148 C.2       1 <0>         0.4030
     12 N3          4.3313   -6.0131   -1.4131 N.2       1 <0>        -0.7690
     13 N4          5.6868   -5.9483   -3.2963 N.pl3     1 <0>        -0.8729
     14 H2         -0.8562   -0.6596    0.0072 H         1 <0>         0.1724
     15 H3          1.5957    2.8106    0.0019 H         1 <0>         0.2068
     16 H4          2.3515   -1.9910    0.9003 H         1 <0>         0.0784
     17 H5          0.9712   -2.4830   -0.1101 H         1 <0>         0.0940
     18 H6          2.2098   -1.7850   -2.1418 H         1 <0>         0.0784
     19 H7          3.5900   -1.2930   -1.1313 H         1 <0>         0.0669
     20 H8          3.8139   -3.6198   -0.3041 H         1 <0>         0.0980
     21 H9          2.4336   -4.1119   -1.3145 H         1 <0>         0.1004
     22 H10         4.5729   -6.9444   -1.2897 H         1 <0>         0.3356
     23 H11         6.0534   -5.4467   -4.0412 H         1 <0>         0.3993
     24 H12         5.9284   -6.8795   -3.1728 H         1 <0>         0.3999
@<TRIPOS>BOND
     1    1    5 1
     2    1    2 2
     3    1   14 1
     4    2    3 1
     5    2    7 1
     6    3    4 1
     7    3    6 1
     8    4   15 1
     9    4    5 2
    10    7    8 1
    11    7   16 1
    12    7   17 1
    13    8    9 1
    14    8   18 1
    15    8   19 1
    16    9   10 1
    17    9   20 1
    18    9   21 1
    19   10   11 1
    20   11   12 2
    21   11   13 1
    22   12   22 1
    23   13   23 1
    24   13   24 1
@<TRIPOS>MOLECULE
ZINC14979641
   25    25     0     0     0
SMALL
USER_CHARGES
3-(1H-imidazol-4-yl)propylsulfanylformamidine
@<TRIPOS>ATOM
      1 C1          0.0021   -0.0041    0.0020 C.2       1 <0>         0.0320
      2 C2          1.2963   -0.3761   -0.0123 C.2       1 <0>         0.0366
      3 C3          1.2679    1.7816   -0.0005 C.cat     1 <0>         0.3042
      4 N1         -0.0165    1.3646    0.0095 N.pl3     1 <0>        -0.5151
      5 H1         -0.8294    1.9469    0.0204 H         1 <0>         0.4755
      6 C4          1.8104   -1.7926   -0.0249 C.3       1 <0>        -0.0589
      7 C5          2.7508   -1.9833   -1.2166 C.3       1 <0>        -0.1123
      8 C6          3.2728   -3.4215   -1.2293 C.3       1 <0>        -0.0952
      9 S1          4.3853   -3.6471   -2.6390 S.3       1 <0>        -0.0502
     10 C7          4.8242   -5.3388   -2.4148 C.2       1 <0>         0.4039
     11 N2          4.3313   -6.0131   -1.4131 N.2       1 <0>        -0.7703
     12 N3          5.6868   -5.9483   -3.2963 N.pl3     1 <0>        -0.8702
     13 H2         -0.8562   -0.6596    0.0072 H         1 <0>         0.2254
     14 H3          1.5957    2.8106    0.0019 H         1 <0>         0.2644
     15 H4          2.3515   -1.9910    0.9003 H         1 <0>         0.1069
     16 H5          0.9712   -2.4830   -0.1101 H         1 <0>         0.1169
     17 H6          2.2098   -1.7850   -2.1418 H         1 <0>         0.0845
     18 H7          3.5900   -1.2930   -1.1313 H         1 <0>         0.0730
     19 H8          3.8139   -3.6198   -0.3041 H         1 <0>         0.1027
     20 H9          2.4336   -4.1119   -1.3145 H         1 <0>         0.1044
     21 H10         4.5729   -6.9444   -1.2897 H         1 <0>         0.3406
     22 H11         6.0534   -5.4467   -4.0412 H         1 <0>         0.4008
     23 H12         5.9284   -6.8795   -3.1728 H         1 <0>         0.4036
     24 N4          2.0461    0.7351   -0.0135 N.pl3     1 <0>        -0.4835
     25 H13         3.0726    0.7586   -0.0231 H         1 <0>         0.4802
@<TRIPOS>BOND
     1    1    4 1
     2    1    2 2
     3    1   13 1
     4    2    6 1
     5    2   24 1
     6    3    4 1
     7    3   14 1
     8    3   24 2
     9    4    5 1
    10    6    7 1
    11    6   15 1
    12    6   16 1
    13    7    8 1
    14    7   17 1
    15    7   18 1
    16    8    9 1
    17    8   19 1
    18    8   20 1
    19    9   10 1
    20   10   11 2
    21   10   12 1
    22   11   21 1
    23   12   22 1
    24   12   23 1
    25   24   25 1
@<TRIPOS>MOLECULE
ZINC14979641
   25    25     0     0     0
SMALL
USER_CHARGES
3-(1H-imidazol-4-yl)propylsulfanylformamidine
@<TRIPOS>ATOM
      1 C1          0.0021   -0.0041    0.0020 C.2       1 <0>        -0.0553
      2 C2          1.2963   -0.3761   -0.0123 C.2       1 <0>        -0.0179
      3 N1          2.0475    0.7351   -0.0135 N.2       1 <0>        -0.4946
      4 C3          1.2679    1.7816   -0.0005 C.2       1 <0>         0.2037
      5 N2         -0.0165    1.3646    0.0095 N.pl3     1 <0>        -0.5792
      6 H1         -0.9765    1.9015    0.0215 H         1 <0>         0.4538
      7 C4          1.8104   -1.7926   -0.0249 C.3       1 <0>        -0.0230
      8 C5          2.7508   -1.9833   -1.2166 C.3       1 <0>        -0.1009
      9 C6          3.2728   -3.4215   -1.2293 C.3       1 <0>        -0.1536
     10 S1          4.3853   -3.6471   -2.6390 S.3       1 <0>         0.0694
     11 C7          4.8242   -5.3388   -2.4148 C.cat     1 <0>         0.4795
     12 N3          4.3313   -6.0131   -1.4131 N.pl3     1 <0>        -0.7889
     13 N4          5.6868   -5.9483   -3.2963 N.pl3     1 <0>        -0.8046
     14 H2         -0.8562   -0.6596    0.0072 H         1 <0>         0.1750
     15 H3          1.5957    2.8106    0.0019 H         1 <0>         0.2086
     16 H4          2.3564   -1.9928    0.9088 H         1 <0>         0.0802
     17 H5          0.9635   -2.4893   -0.1110 H         1 <0>         0.0803
     18 H6          2.2047   -1.7831   -2.1503 H         1 <0>         0.0838
     19 H7          3.5977   -1.2866   -1.1306 H         1 <0>         0.0945
     20 H8          3.8188   -3.6216   -0.2956 H         1 <0>         0.1157
     21 H9          2.4259   -4.1182   -1.3153 H         1 <0>         0.1144
     22 H10         4.6053   -7.0692   -1.2731 H         1 <0>         0.4595
     23 H11         5.9608   -7.0044   -3.1563 H         1 <0>         0.4555
     24 H12         6.1025   -5.3795   -4.1411 H         1 <0>         0.4747
     25 H13         3.6416   -5.5257   -0.7083 H         1 <0>         0.4693
@<TRIPOS>BOND
     1    1    5 1
     2    1    2 2
     3    1   14 1
     4    2    3 1
     5    2    7 1
     6    3    4 2
     7    4    5 1
     8    4   15 1
     9    5    6 1
    10    7    8 1
    11    7   16 1
    12    7   17 1
    13    8    9 1
    14    8   18 1
    15    8   19 1
    16    9   10 1
    17    9   20 1
    18    9   21 1
    19   10   11 1
    20   11   12 2
    21   11   13 1
    22   12   22 1
    23   12   25 1
    24   13   23 1
    25   13   24 1
@<TRIPOS>MOLECULE
ZINC00005099
   22    22     0     0     0
SMALL
USER_CHARGES

@<TRIPOS>ATOM
      1 C1         -0.0184    1.5028    0.0103 C.3       1 <0>        -0.0921
      2 C2          0.0021   -0.0041    0.0020 C.2       1 <0>         0.1547
      3 C3          0.0059   -0.7050   -1.1571 C.2       1 <0>        -0.3048
      4 S1          0.0324   -2.3782   -0.5350 S.3       1 <0>         0.0955
      5 C4          0.0358   -2.0159    1.1085 C.2       1 <0>         0.3478
      6 N1          0.0227   -0.7000    1.1252 N.2       1 <0>        -0.5972
      7 N2          0.0535   -2.8908    2.1834 N.pl3     1 <0>        -0.7914
      8 C5         -0.0088   -0.2089   -2.5800 C.3       1 <0>        -0.0329
      9 C6          1.4286   -0.0205   -3.0693 C.3       1 <0>        -0.0102
     10 N3          1.4143    0.4630   -4.4563 N.4       1 <0>        -0.6377
     11 H1          1.0042    1.8801    0.0026 H         1 <0>         0.0797
     12 H2         -0.5455    1.8639   -0.8728 H         1 <0>         0.0753
     13 H3         -0.5286    1.8543    0.9071 H         1 <0>         0.0832
     14 H4          0.0660   -3.8484    2.0292 H         1 <0>         0.4251
     15 H5          0.0534   -2.5455    3.0899 H         1 <0>         0.4216
     16 H6         -0.5157   -0.9370   -3.2134 H         1 <0>         0.0969
     17 H7         -0.5365    0.7436   -2.6273 H         1 <0>         0.1048
     18 H8          1.9355    0.7075   -2.4359 H         1 <0>         0.1363
     19 H9          1.9563   -0.9731   -3.0220 H         1 <0>         0.1346
     20 H10         0.9451   -0.2109   -5.0426 H         1 <0>         0.4356
     21 H11         0.9258    1.3448   -4.5001 H         1 <0>         0.4358
     22 H12         2.3623    0.5872   -4.7790 H         1 <0>         0.4396
@<TRIPOS>BOND
     1    1    2 1
     2    1   11 1
     3    1   12 1
     4    1   13 1
     5    2    6 1
     6    2    3 2
     7    3    4 1
     8    3    8 1
     9    4    5 1
    10    5    6 2
    11    5    7 1
    12    7   14 1
    13    7   15 1
    14    8    9 1
    15    8   16 1
    16    8   17 1
    17    9   10 1
    18    9   18 1
    19    9   19 1
    20   10   20 1
    21   10   21 1
    22   10   22 1
@<TRIPOS>MOLECULE
ZINC27183322
   36    38     0     0     0
SMALL
USER_CHARGES

@<TRIPOS>ATOM
      1 C1         -0.7447    1.6975    0.7160 C.3       1 <0>         0.0241
      2 N1         -0.4738    0.2636    0.5475 N.3       1 <0>        -0.5442
      3 C2         -1.7041   -0.4698    0.2213 C.3       1 <0>         0.0405
      4 C3         -1.3535   -1.9212   -0.1233 C.3       1 <0>         0.1164
      5 N2         -0.5669   -2.4871    0.9832 N.am      1 <0>        -0.5870
      6 C4          0.6055   -1.7370    1.4584 C.3       1 <0>         0.0832
      7 C5          0.1778   -0.2928    1.7407 C.3       1 <0>         0.0393
      8 C6         -0.9112   -3.6622    1.5465 C.2       1 <0>         0.6026
      9 O1         -1.9496   -4.2078    1.2278 O.2       1 <0>        -0.5338
     10 C7         -0.0262   -4.2872    2.5514 C.2       1 <0>         0.2187
     11 N3         -0.3342   -5.4001    3.2927 N.pl3     1 <0>        -0.5626
     12 H1         -1.1584   -5.9101    3.2525 H         1 <0>         0.4339
     13 C8          0.7476   -5.6556    4.1042 C.ar      1 <0>         0.1160
     14 C9          1.0290   -6.6270    5.0574 C.ar      1 <0>        -0.1865
     15 C10         2.2377   -6.6140    5.7192 C.ar      1 <0>        -0.0263
     16 C11         3.1836   -5.6368    5.4442 C.ar      1 <0>        -0.2336
     17 C12         2.9287   -4.6592    4.5013 C.ar      1 <0>         0.2889
     18 C13         1.6985   -4.6581    3.8153 C.ar      1 <0>        -0.0239
     19 N4          1.1731   -3.8666    2.8658 N.2       1 <0>        -0.4327
     20 N5          3.8828   -3.6806    4.2308 N.pl3     1 <0>        -0.8588
     21 H2          0.1933    2.2276    0.8811 H         1 <0>         0.0715
     22 H3         -1.2272    2.0841   -0.1817 H         1 <0>         0.0708
     23 H4         -1.4012    1.8450    1.5735 H         1 <0>         0.0260
     24 H5         -2.3765   -0.4518    1.0789 H         1 <0>         0.0400
     25 H6         -2.1915   -0.0006   -0.6334 H         1 <0>         0.0916
     26 H7         -2.2691   -2.4979   -0.2541 H         1 <0>         0.0995
     27 H8         -0.7662   -1.9481   -1.0412 H         1 <0>         0.0831
     28 H9          0.9851   -2.1919    2.3733 H         1 <0>         0.1418
     29 H10         1.3811   -1.7461    0.6926 H         1 <0>         0.0784
     30 H11         1.0552    0.3047    1.9879 H         1 <0>         0.0897
     31 H12        -0.5208   -0.2773    2.5772 H         1 <0>         0.0367
     32 H13         0.3000   -7.3922    5.2798 H         1 <0>         0.1243
     33 H14         2.4506   -7.3712    6.4592 H         1 <0>         0.1332
     34 H15         4.1263   -5.6400    5.9713 H         1 <0>         0.1306
     35 H16         4.7290   -3.6840    4.7050 H         1 <0>         0.4030
     36 H17         3.7008   -2.9957    3.5684 H         1 <0>         0.4056
@<TRIPOS>BOND
     1    1    2 1
     2    1   21 1
     3    1   22 1
     4    1   23 1
     5    2    7 1
     6    2    3 1
     7    3    4 1
     8    3   24 1
     9    3   25 1
    10    4    5 1
    11    4   26 1
    12    4   27 1
    13    5    6 1
    14    5    8 am
    15    6    7 1
    16    6   28 1
    17    6   29 1
    18    7   30 1
    19    7   31 1
    20    8    9 2
    21    8   10 1
    22   10   19 2
    23   10   11 1
    24   11   12 1
    25   11   13 1
    26   13   18 ar
    27   13   14 ar
    28   14   15 ar
    29   14   32 1
    30   15   16 ar
    31   15   33 1
    32   16   17 ar
    33   16   34 1
    34   17   18 ar
    35   17   20 1
    36   18   19 1
    37   20   35 1
    38   20   36 1
@<TRIPOS>MOLECULE
ZINC27183322
   37    39     0     0     0
SMALL
USER_CHARGES

@<TRIPOS>ATOM
      1 C1         -0.7095    1.7351    0.7270 C.3       1 <0>        -0.0473
      2 N1         -0.4409    0.3013    0.5533 N.4       1 <0>        -0.3872
      3 C2         -1.7064   -0.4078    0.3254 C.3       1 <0>        -0.0195
      4 C3         -1.4178   -1.8835    0.0305 C.3       1 <0>         0.0899
      5 N2         -0.6058   -2.4285    1.1294 N.am      1 <0>        -0.6129
      6 C4          0.5990   -1.6878    1.5345 C.3       1 <0>         0.0565
      7 C5          0.2153   -0.2214    1.7584 C.3       1 <0>        -0.0217
      8 C6         -0.9558   -3.5737    1.7479 C.2       1 <0>         0.6184
      9 O1         -2.0162   -4.1068    1.4850 O.2       1 <0>        -0.5037
     10 C7         -0.0506   -4.1813    2.7455 C.2       1 <0>         0.1997
     11 N3         -0.3567   -5.2593    3.5374 N.pl3     1 <0>        -0.5582
     12 H1         -1.1922   -5.7520    3.5435 H         1 <0>         0.4371
     13 C8          0.7464   -5.5090    4.3215 C.ar      1 <0>         0.1249
     14 C9          1.0395   -6.4512    5.3004 C.ar      1 <0>        -0.1865
     15 C10         2.2700   -6.4409    5.9209 C.ar      1 <0>        -0.0159
     16 C11         3.2263   -5.4957    5.5785 C.ar      1 <0>        -0.2256
     17 C12         2.9602   -4.5477    4.6089 C.ar      1 <0>         0.2871
     18 C13         1.7078   -4.5442    3.9645 C.ar      1 <0>        -0.0223
     19 N4          1.1672   -3.7763    3.0041 N.2       1 <0>        -0.4384
     20 N5          3.9249   -3.6010    4.2709 N.pl3     1 <0>        -0.8580
     21 H2          0.2299    2.2638    0.8883 H         1 <0>         0.1260
     22 H3         -1.1967    2.1244   -0.1670 H         1 <0>         0.1256
     23 H4         -1.3611    1.8809    1.5886 H         1 <0>         0.1217
     24 H5         -2.3316   -0.3304    1.2149 H         1 <0>         0.1341
     25 H6         -2.2249    0.0378   -0.5234 H         1 <0>         0.1466
     26 H7         -2.3564   -2.4334   -0.0390 H         1 <0>         0.1385
     27 H8         -0.8694   -1.9691   -0.9075 H         1 <0>         0.1011
     28 H9          0.9939   -2.1084    2.4593 H         1 <0>         0.1774
     29 H10         1.3511   -1.7537    0.7483 H         1 <0>         0.0976
     30 H11         1.1127    0.3616    1.9655 H         1 <0>         0.1451
     31 H12        -0.4682   -0.1497    2.6045 H         1 <0>         0.1314
     32 H13         0.3025   -7.1913    5.5750 H         1 <0>         0.1293
     33 H14         2.4918   -7.1753    6.6810 H         1 <0>         0.1392
     34 H15         4.1860   -5.5006    6.0739 H         1 <0>         0.1358
     35 H16         4.7865   -3.6060    4.7166 H         1 <0>         0.4068
     36 H17         3.7350   -2.9369    3.5899 H         1 <0>         0.4018
     37 H18         0.1646    0.1679   -0.2426 H         1 <0>         0.4256
@<TRIPOS>BOND
     1    1    2 1
     2    1   21 1
     3    1   22 1
     4    1   23 1
     5    2    7 1
     6    2    3 1
     7    2   37 1
     8    3    4 1
     9    3   24 1
    10    3   25 1
    11    4    5 1
    12    4   26 1
    13    4   27 1
    14    5    6 1
    15    5    8 am
    16    6    7 1
    17    6   28 1
    18    6   29 1
    19    7   30 1
    20    7   31 1
    21    8    9 2
    22    8   10 1
    23   10   19 2
    24   10   11 1
    25   11   12 1
    26   11   13 1
    27   13   18 ar
    28   13   14 ar
    29   14   15 ar
    30   14   32 1
    31   15   16 ar
    32   15   33 1
    33   16   17 ar
    34   16   34 1
    35   17   18 ar
    36   17   20 1
    37   18   19 1
    38   20   35 1
    39   20   36 1
@<TRIPOS>MOLECULE
ZINC27183322
   37    39     0     0     0
SMALL
USER_CHARGES

@<TRIPOS>ATOM
      1 C1          0.9431    1.7600    0.2414 C.3       1 <0>        -0.0471
      2 N1          0.6936    0.3189    0.1030 N.4       1 <0>        -0.3875
      3 C2          1.4129   -0.1900   -1.0715 C.3       1 <0>        -0.0215
      4 C3          1.0626   -1.6665   -1.2836 C.3       1 <0>         0.0553
      5 N2          1.3426   -2.3959   -0.0370 N.am      1 <0>        -0.6112
      6 C4          0.7932   -1.8600    1.2180 C.3       1 <0>         0.0895
      7 C5          1.1562   -0.3744    1.3119 C.3       1 <0>        -0.0191
      8 C6          2.0812   -3.5232   -0.0447 C.2       1 <0>         0.6171
      9 O1          2.4048   -4.0448    1.0042 O.2       1 <0>        -0.5036
     10 C7          2.4979   -4.1258   -1.3300 C.2       1 <0>         0.2220
     11 N3          3.3601   -5.1813   -1.4629 N.pl3     1 <0>        -0.5477
     12 H1          3.8004   -5.6605   -0.7436 H         1 <0>         0.4326
     13 C8          3.4842   -5.4337   -2.8106 C.ar      1 <0>         0.0098
     14 C9          4.2045   -6.3650   -3.5610 C.ar      1 <0>         0.2327
     15 C10         4.1069   -6.3522   -4.9410 C.ar      1 <0>        -0.1825
     16 C11         3.2988   -5.4210   -5.5806 C.ar      1 <0>        -0.0607
     17 C12         2.5878   -4.5037   -4.8642 C.ar      1 <0>        -0.1246
     18 C13         2.6671   -4.4926   -3.4634 C.ar      1 <0>         0.0894
     19 N4          2.0937   -3.7343   -2.5122 N.2       1 <0>        -0.4562
     20 N5          5.0196   -7.3041   -2.9221 N.pl3     1 <0>        -0.8756
     21 H2          2.0111    1.9327    0.3738 H         1 <0>         0.1215
     22 H3          0.6001    2.2758   -0.6555 H         1 <0>         0.1264
     23 H4          0.4032    2.1406    1.1084 H         1 <0>         0.1253
     24 H5          1.1220    0.3826   -1.9522 H         1 <0>         0.1465
     25 H6          2.4865   -0.0905   -0.9115 H         1 <0>         0.1312
     26 H7          0.0057   -1.7601   -1.5331 H         1 <0>         0.0995
     27 H8          1.6702   -2.0748   -2.0912 H         1 <0>         0.1803
     28 H9         -0.2909   -1.9731    1.2210 H         1 <0>         0.1020
     29 H10         1.2227   -2.3962    2.0643 H         1 <0>         0.1381
     30 H11         2.2376   -0.2693    1.3998 H         1 <0>         0.1339
     31 H12         0.6761    0.0624    2.1876 H         1 <0>         0.1466
     32 H13         4.6629   -7.0708   -5.5248 H         1 <0>         0.1367
     33 H14         3.2330   -5.4231   -6.6586 H         1 <0>         0.1375
     34 H15         1.9639   -3.7854   -5.3753 H         1 <0>         0.1330
     35 H16         5.0860   -7.3101   -1.9544 H         1 <0>         0.3952
     36 H17         5.5187   -7.9497   -3.4465 H         1 <0>         0.4091
     37 H18        -0.2956    0.1601   -0.0165 H         1 <0>         0.4260
@<TRIPOS>BOND
     1    1    2 1
     2    1   21 1
     3    1   22 1
     4    1   23 1
     5    2    7 1
     6    2    3 1
     7    2   37 1
     8    3    4 1
     9    3   24 1
    10    3   25 1
    11    4    5 1
    12    4   26 1
    13    4   27 1
    14    5    6 1
    15    5    8 am
    16    6    7 1
    17    6   28 1
    18    6   29 1
    19    7   30 1
    20    7   31 1
    21    8    9 2
    22    8   10 1
    23   10   19 2
    24   10   11 1
    25   11   12 1
    26   11   13 1
    27   13   18 ar
    28   13   14 ar
    29   14   15 ar
    30   14   20 1
    31   15   16 ar
    32   15   32 1
    33   16   17 ar
    34   16   33 1
    35   17   18 ar
    36   17   34 1
    37   18   19 1
    38   20   35 1
    39   20   36 1
@<TRIPOS>MOLECULE
ZINC13526669
   37    39     0     0     0
SMALL
USER_CHARGES
(5-amino-1H-indol-2-yl)-(4-methylpiperazin-1-yl)methanone
@<TRIPOS>ATOM
      1 C1         -6.1660    4.6797   -2.2434 C.3       1 <0>         0.0218
      2 N1         -5.1225    4.7344   -1.2109 N.3       1 <0>        -0.5424
      3 C2         -4.2797    3.5318   -1.2500 C.3       1 <0>         0.0402
      4 C3         -3.3254    3.5417   -0.0511 C.3       1 <0>         0.0814
      5 N2         -2.5910    4.8160   -0.0490 N.am      1 <0>        -0.6117
      6 C4         -3.3633    6.0644   -0.1406 C.3       1 <0>         0.1148
      7 C5         -4.3157    5.9550   -1.3419 C.3       1 <0>         0.0386
      8 C6         -1.2464    4.8394    0.0400 C.2       1 <0>         0.5860
      9 O1         -0.6554    5.9027    0.0435 O.2       1 <0>        -0.5193
     10 C7         -0.4937    3.5795    0.1329 C.2       1 <0>         0.0166
     11 C8          0.7770    3.3868   -0.3082 C.2       1 <0>        -0.1273
     12 C9          1.1308    2.0438   -0.0324 C.ar      1 <0>        -0.0659
     13 C10         2.2912    1.2908   -0.2563 C.ar      1 <0>        -0.1676
     14 C11         2.3332   -0.0319    0.1356 C.ar      1 <0>         0.2008
     15 C12         1.2280   -0.6190    0.7527 C.ar      1 <0>        -0.1525
     16 C13         0.0832    0.1096    0.9785 C.ar      1 <0>        -0.0870
     17 C14         0.0190    1.4452    0.5908 C.ar      1 <0>         0.0706
     18 N3         -0.9676    2.4021    0.6775 N.pl3     1 <0>        -0.5961
     19 H1         -1.9882    2.3564    1.0854 H         1 <0>         0.4421
     20 N4          3.4900   -0.7877   -0.0866 N.pl3     1 <0>        -0.9044
     21 H2         -6.7537    3.7578   -2.1222 H         1 <0>         0.0723
     22 H3         -5.6977    4.6878   -3.2387 H         1 <0>         0.0279
     23 H4         -6.8278    5.5525   -2.1424 H         1 <0>         0.0737
     24 H5         -4.9167    2.6361   -1.2058 H         1 <0>         0.0922
     25 H6         -3.6977    3.5221   -2.1834 H         1 <0>         0.0428
     26 H7         -3.9040    3.4406    0.8789 H         1 <0>         0.0855
     27 H8         -2.6199    2.7022   -0.1371 H         1 <0>         0.1050
     28 H9         -3.9391    6.2081    0.7856 H         1 <0>         0.0805
     29 H10        -2.6757    6.9116   -0.2801 H         1 <0>         0.1021
     30 H11        -3.7313    5.9101   -2.2727 H         1 <0>         0.0418
     31 H12        -4.9791    6.8321   -1.3674 H         1 <0>         0.0927
     32 H13         1.4049    4.1258   -0.7835 H         1 <0>         0.1485
     33 H14         3.1482    1.7431   -0.7331 H         1 <0>         0.1203
     34 H15         1.2719   -1.6546    1.0560 H         1 <0>         0.1249
     35 H16        -0.7663   -0.3547    1.4573 H         1 <0>         0.1220
     36 H17         3.5263   -1.8421    0.2247 H         1 <0>         0.4137
     37 H18         4.3629   -0.3273   -0.5725 H         1 <0>         0.4152
@<TRIPOS>BOND
     1    1    2 1
     2    1   21 1
     3    1   22 1
     4    1   23 1
     5    2    7 1
     6    2    3 1
     7    3    4 1
     8    3   24 1
     9    3   25 1
    10    4    5 1
    11    4   26 1
    12    4   27 1
    13    5    6 1
    14    5    8 am
    15    6    7 1
    16    6   28 1
    17    6   29 1
    18    7   30 1
    19    7   31 1
    20    8    9 2
    21    8   10 1
    22   10   18 1
    23   10   11 2
    24   11   12 1
    25   11   32 1
    26   12   17 ar
    27   12   13 ar
    28   13   14 ar
    29   13   33 1
    30   14   15 ar
    31   14   20 1
    32   15   16 ar
    33   15   34 1
    34   16   17 ar
    35   16   35 1
    36   17   18 1
    37   18   19 1
    38   20   36 1
    39   20   37 1
@<TRIPOS>MOLECULE
ZINC13526648
   36    38     0     0     0
SMALL
USER_CHARGES
1H-indol-2-yl-[(3R)-3-methylpiperazin-1-yl]methanone
@<TRIPOS>ATOM
      1 C1         -9.0353    4.7880   -0.5245 C.3       1 <0>        -0.1821
      2 C2         -7.5288    4.6269   -0.7373 C.3       1 <0>         0.0177
      3 H1         -7.3420    4.2368   -1.7379 H         1 <0>         0.1443
      4 C3         -6.9665    3.6536    0.3042 C.3       1 <0>         0.0944
      5 N1         -5.5013    3.6290    0.1775 N.am      1 <0>        -0.6354
      6 C4         -4.7806    4.9110    0.1853 C.3       1 <0>         0.0605
      7 C5         -5.4295    5.8351   -0.8574 C.3       1 <0>        -0.0134
      8 C6         -4.8364    2.4623    0.0629 C.2       1 <0>         0.5995
      9 O1         -5.4525    1.4206   -0.0603 O.2       1 <0>        -0.4896
     10 C7         -3.3661    2.4485    0.0870 C.2       1 <0>        -0.0174
     11 C8         -2.5788    1.4750   -0.4408 C.2       1 <0>        -0.0743
     12 C9         -1.2300    1.8410   -0.2136 C.ar      1 <0>        -0.1258
     13 C10        -0.0042    1.2352   -0.5190 C.ar      1 <0>        -0.0541
     14 C11         1.1622    1.8415   -0.1535 C.ar      1 <0>        -0.1420
     15 C12         1.1470    3.0539    0.5250 C.ar      1 <0>        -0.0702
     16 C13        -0.0447    3.6661    0.8416 C.ar      1 <0>        -0.1407
     17 C14        -1.2482    3.0669    0.4797 C.ar      1 <0>         0.1187
     18 N2         -2.5651    3.4230    0.6502 N.pl3     1 <0>        -0.5905
     19 H2         -2.8801    4.2263    1.0933 H         1 <0>         0.4150
     20 H3         -9.2212    5.1792    0.4757 H         1 <0>         0.0850
     21 H4         -9.4350    5.4804   -1.2655 H         1 <0>         0.0887
     22 H5         -9.5231    3.8192   -0.6322 H         1 <0>         0.1116
     23 H6         -7.3662    2.6553    0.1258 H         1 <0>         0.1395
     24 H7         -7.2420    3.9881    1.3043 H         1 <0>         0.0986
     25 H8         -4.8500    5.3641    1.1742 H         1 <0>         0.1016
     26 H9         -3.7345    4.7445   -0.0716 H         1 <0>         0.1362
     27 H10        -5.2719    5.4283   -1.8563 H         1 <0>         0.1380
     28 H11        -4.9803    6.8262   -0.7934 H         1 <0>         0.1486
     29 H12        -2.9204    0.5842   -0.9470 H         1 <0>         0.1594
     30 H13         0.0176    0.2930   -1.0465 H         1 <0>         0.1314
     31 H14         2.1059    1.3748   -0.3941 H         1 <0>         0.1319
     32 H15         2.0793    3.5204    0.8071 H         1 <0>         0.1343
     33 H16        -0.0460    4.6087    1.3689 H         1 <0>         0.1254
     34 N3         -6.8765    5.9424   -0.5859 N.4       1 <0>        -0.5152
     35 H17        -7.0163    6.2807    0.3734 H         1 <0>         0.4315
     36 H18        -7.2962    6.6060   -1.2475 H         1 <0>         0.4389
@<TRIPOS>BOND
     1    1    2 1
     2    1   20 1
     3    1   21 1
     4    1   22 1
     5    2    3 1
     6    2    4 1
     7    2   34 1
     8    4    5 1
     9    4   23 1
    10    4   24 1
    11    5    6 1
    12    5    8 am
    13    6    7 1
    14    6   25 1
    15    6   26 1
    16    7   27 1
    17    7   28 1
    18    7   34 1
    19    8    9 2
    20    8   10 1
    21   10   18 1
    22   10   11 2
    23   11   12 1
    24   11   29 1
    25   12   17 ar
    26   12   13 ar
    27   13   14 ar
    28   13   30 1
    29   14   15 ar
    30   14   31 1
    31   15   16 ar
    32   15   32 1
    33   16   17 ar
    34   16   33 1
    35   17   18 1
    36   18   19 1
    37   34   35 1
    38   34   36 1
@<TRIPOS>MOLECULE
ZINC13526651
   36    38     0     0     0
SMALL
USER_CHARGES
1H-indol-2-yl-[(3S)-3-methylpiperazin-1-yl]methanone
@<TRIPOS>ATOM
      1 C1          1.7745    3.4412    0.8526 C.3       1 <0>        -0.1820
      2 C2          1.6639    1.9256    1.0311 C.3       1 <0>         0.0176
      3 H1          1.6455    1.6845    2.0939 H         1 <0>         0.1442
      4 C3          0.3746    1.4257    0.3709 C.3       1 <0>         0.0944
      5 N1          0.3625   -0.0441    0.4230 N.am      1 <0>        -0.6352
      6 C4          1.5461   -0.7675   -0.0662 C.3       1 <0>         0.0597
      7 C5          2.7893   -0.1812    0.6112 C.3       1 <0>        -0.0130
      8 C6         -0.7045   -0.7105    0.9066 C.2       1 <0>         0.5996
      9 O1         -1.6223   -0.0987    1.4196 O.2       1 <0>        -0.4896
     10 C7         -0.7593   -2.1771    0.8140 C.2       1 <0>        -0.0175
     11 C8         -1.5109   -2.9886    1.6031 C.2       1 <0>        -0.0741
     12 C9         -1.2803   -4.3237    1.1920 C.ar      1 <0>        -0.1257
     13 C10        -1.7679   -5.5626    1.6280 C.ar      1 <0>        -0.0540
     14 C11        -1.3493   -6.7093    1.0186 C.ar      1 <0>        -0.1420
     15 C12        -0.4428   -6.6613   -0.0332 C.ar      1 <0>        -0.0702
     16 C13         0.0509   -5.4563   -0.4799 C.ar      1 <0>        -0.1407
     17 C14        -0.3608   -4.2723    0.1261 C.ar      1 <0>         0.1186
     18 N2         -0.0595   -2.9490   -0.0931 N.pl3     1 <0>        -0.5905
     19 H2          0.5470   -2.6128   -0.7714 H         1 <0>         0.4150
     20 H3          0.9164    3.9254    1.3188 H         1 <0>         0.1116
     21 H4          2.6917    3.7964    1.3223 H         1 <0>         0.0888
     22 H5          1.7940    3.6814   -0.2104 H         1 <0>         0.0851
     23 H6          0.3432    1.7556   -0.6675 H         1 <0>         0.0987
     24 H7         -0.4883    1.8182    0.9089 H         1 <0>         0.1395
     25 H8          1.4577   -1.8250    0.1829 H         1 <0>         0.1360
     26 H9          1.6253   -0.6513   -1.1471 H         1 <0>         0.1014
     27 H10         2.7552   -0.3929    1.6799 H         1 <0>         0.1378
     28 H11         3.6842   -0.6298    0.1799 H         1 <0>         0.1490
     29 H12        -2.1665   -2.6720    2.4008 H         1 <0>         0.1594
     30 H13        -2.4734   -5.6099    2.4444 H         1 <0>         0.1314
     31 H14        -1.7261   -7.6632    1.3570 H         1 <0>         0.1319
     32 H15        -0.1220   -7.5784   -0.5049 H         1 <0>         0.1343
     33 H16         0.7551   -5.4293   -1.2982 H         1 <0>         0.1253
     34 N3          2.8275    1.2784    0.3938 N.4       1 <0>        -0.5152
     35 H17         3.6904    1.6583    0.8004 H         1 <0>         0.4390
     36 H18         2.8109    1.4705   -0.6147 H         1 <0>         0.4315
@<TRIPOS>BOND
     1    1    2 1
     2    1   20 1
     3    1   21 1
     4    1   22 1
     5    2    3 1
     6    2    4 1
     7    2   34 1
     8    4    5 1
     9    4   23 1
    10    4   24 1
    11    5    6 1
    12    5    8 am
    13    6    7 1
    14    6   25 1
    15    6   26 1
    16    7   27 1
    17    7   28 1
    18    7   34 1
    19    8    9 2
    20    8   10 1
    21   10   18 1
    22   10   11 2
    23   11   12 1
    24   11   29 1
    25   12   17 ar
    26   12   13 ar
    27   13   14 ar
    28   13   30 1
    29   14   15 ar
    30   14   31 1
    31   15   16 ar
    32   15   32 1
    33   16   17 ar
    34   16   33 1
    35   17   18 1
    36   18   19 1
    37   34   35 1
    38   34   36 1
@<TRIPOS>MOLECULE
ZINC13678207
   37    39     0     0     0
SMALL
USER_CHARGES

@<TRIPOS>ATOM
      1 C1          0.7676    1.4282    0.0168 C.3       1 <0>        -0.1139
      2 C2          0.4573   -0.0464    0.0057 C.ar      1 <0>        -0.0197
      3 C3          0.3506   -0.7135   -1.1798 C.ar      1 <0>        -0.1325
      4 C4          0.0655   -2.0727   -1.2066 C.ar      1 <0>        -0.0807
      5 C5         -0.1151   -2.7731   -0.0340 C.ar      1 <0>        -0.1217
      6 C6         -0.0110   -2.1141    1.1848 C.ar      1 <0>         0.0673
      7 C7          0.2834   -0.7363    1.2129 C.ar      1 <0>         0.0408
      8 N1          0.3307   -0.3649    2.5046 N.2       1 <0>        -0.4414
      9 C8          0.0950   -1.3991    3.2716 C.2       1 <0>         0.2367
     10 N2         -0.1310   -2.5073    2.4977 N.pl3     1 <0>        -0.5602
     11 H1         -0.3282   -3.4021    2.8159 H         1 <0>         0.4339
     12 C9          0.0660   -1.3732    4.7505 C.2       1 <0>         0.6007
     13 O1         -0.0405   -2.4107    5.3745 O.2       1 <0>        -0.5322
     14 N3          0.1576   -0.1990    5.4058 N.am      1 <0>        -0.5849
     15 C10         0.1287    1.0774    4.6755 C.3       1 <0>         0.0818
     16 C11        -0.9252    1.9835    5.3208 C.3       1 <0>         0.0395
     17 N4         -0.6536    2.0974    6.7599 N.3       1 <0>        -0.5443
     18 C12        -0.7708    0.7948    7.4290 C.3       1 <0>         0.0404
     19 C13         0.2832   -0.1599    6.8707 C.3       1 <0>         0.1159
     20 C14        -1.5358    3.0917    7.3852 C.3       1 <0>         0.0242
     21 H2          1.8478    1.5720    0.0433 H         1 <0>         0.0752
     22 H3          0.3613    1.8918   -0.8821 H         1 <0>         0.0700
     23 H4          0.3183    1.8874    0.8974 H         1 <0>         0.0731
     24 H5          0.4890   -0.1786   -2.1077 H         1 <0>         0.1338
     25 H6         -0.0157   -2.5845   -2.1542 H         1 <0>         0.1353
     26 H7         -0.3369   -3.8297   -0.0620 H         1 <0>         0.1280
     27 H8          1.1069    1.5546    4.7334 H         1 <0>         0.0800
     28 H9         -0.1326    0.8968    3.6328 H         1 <0>         0.1436
     29 H10        -0.8840    2.9721    4.8636 H         1 <0>         0.0909
     30 H11        -1.9156    1.5538    5.1705 H         1 <0>         0.0367
     31 H12        -0.6177    0.9214    8.5008 H         1 <0>         0.0923
     32 H13        -1.7634    0.3817    7.2493 H         1 <0>         0.0395
     33 H14         0.1241   -1.1581    7.2786 H         1 <0>         0.0995
     34 H15         1.2766    0.1962    7.1436 H         1 <0>         0.0838
     35 H16        -2.5749    2.7926    7.2483 H         1 <0>         0.0260
     36 H17        -1.3135    3.1559    8.4504 H         1 <0>         0.0708
     37 H18        -1.3735    4.0644    6.9209 H         1 <0>         0.0719
@<TRIPOS>BOND
     1    1    2 1
     2    1   21 1
     3    1   22 1
     4    1   23 1
     5    2    7 ar
     6    2    3 ar
     7    3    4 ar
     8    3   24 1
     9    4    5 ar
    10    4   25 1
    11    5    6 ar
    12    5   26 1
    13    6   10 1
    14    6    7 ar
    15    7    8 1
    16    8    9 2
    17    9   10 1
    18    9   12 1
    19   10   11 1
    20   12   13 2
    21   12   14 am
    22   14   19 1
    23   14   15 1
    24   15   16 1
    25   15   27 1
    26   15   28 1
    27   16   17 1
    28   16   29 1
    29   16   30 1
    30   17   18 1
    31   17   20 1
    32   18   19 1
    33   18   31 1
    34   18   32 1
    35   19   33 1
    36   19   34 1
    37   20   35 1
    38   20   36 1
    39   20   37 1
@<TRIPOS>MOLECULE
ZINC13678207
   38    40     0     0     0
SMALL
USER_CHARGES

@<TRIPOS>ATOM
      1 C1          0.7562    1.4298    0.0161 C.3       1 <0>        -0.1129
      2 C2          0.4482   -0.0453    0.0052 C.ar      1 <0>        -0.0225
      3 C3          0.3409   -0.7124   -1.1801 C.ar      1 <0>        -0.1248
      4 C4          0.0579   -2.0722   -1.2067 C.ar      1 <0>        -0.0696
      5 C5         -0.1198   -2.7730   -0.0339 C.ar      1 <0>        -0.1222
      6 C6         -0.0150   -2.1139    1.1848 C.ar      1 <0>         0.0764
      7 C7          0.2772   -0.7356    1.2126 C.ar      1 <0>         0.0418
      8 N1          0.3258   -0.3643    2.5043 N.2       1 <0>        -0.4472
      9 C8          0.0929   -1.3989    3.2715 C.2       1 <0>         0.2167
     10 N2         -0.1324   -2.5074    2.4979 N.pl3     1 <0>        -0.5541
     11 H1         -0.3277   -3.4026    2.8163 H         1 <0>         0.4371
     12 C9          0.0660   -1.3732    4.7505 C.2       1 <0>         0.6173
     13 O1         -0.0388   -2.4108    5.3745 O.2       1 <0>        -0.5019
     14 N3          0.1576   -0.1990    5.4058 N.am      1 <0>        -0.6115
     15 C10         0.1287    1.0784    4.6767 C.3       1 <0>         0.0554
     16 C11        -0.9120    1.9900    5.3352 C.3       1 <0>        -0.0216
     17 N4         -0.6143    2.1163    6.7676 N.4       1 <0>        -0.3874
     18 C12        -0.7593    0.8116    7.4254 C.3       1 <0>        -0.0192
     19 C13         0.2833   -0.1583    6.8709 C.3       1 <0>         0.0891
     20 C14        -1.5451    3.0759    7.3766 C.3       1 <0>        -0.0473
     21 H2          1.8361    1.5753    0.0410 H         1 <0>         0.0767
     22 H3          0.3478    1.8929   -0.8822 H         1 <0>         0.0738
     23 H4          0.3074    1.8882    0.8973 H         1 <0>         0.0684
     24 H5          0.4771   -0.1772   -2.1082 H         1 <0>         0.1389
     25 H6         -0.0238   -2.5840   -2.1542 H         1 <0>         0.1412
     26 H7         -0.3399   -3.8299   -0.0617 H         1 <0>         0.1330
     27 H8          1.1105    1.5494    4.7240 H         1 <0>         0.0991
     28 H9         -0.1457    0.9006    3.6369 H         1 <0>         0.1791
     29 H10        -0.8795    2.9748    4.8691 H         1 <0>         0.1461
     30 H11        -1.9052    1.5597    5.2070 H         1 <0>         0.1313
     31 H12        -0.6143    0.9279    8.4994 H         1 <0>         0.1472
     32 H13        -1.7572    0.4169    7.2339 H         1 <0>         0.1339
     33 H14         0.1110   -1.1534    7.2811 H         1 <0>         0.1385
     34 H15         1.2810    0.1857    7.1436 H         1 <0>         0.1016
     35 H16        -2.5679    2.7221    7.2472 H         1 <0>         0.1216
     36 H17        -1.3251    3.1705    8.4400 H         1 <0>         0.1256
     37 H18        -1.4328    4.0470    6.8945 H         1 <0>         0.1263
     38 H19         0.3314    2.4477    6.8853 H         1 <0>         0.4260
@<TRIPOS>BOND
     1    1    2 1
     2    1   21 1
     3    1   22 1
     4    1   23 1
     5    2    7 ar
     6    2    3 ar
     7    3    4 ar
     8    3   24 1
     9    4    5 ar
    10    4   25 1
    11    5    6 ar
    12    5   26 1
    13    6   10 1
    14    6    7 ar
    15    7    8 1
    16    8    9 2
    17    9   10 1
    18    9   12 1
    19   10   11 1
    20   12   13 2
    21   12   14 am
    22   14   19 1
    23   14   15 1
    24   15   16 1
    25   15   27 1
    26   15   28 1
    27   16   17 1
    28   16   29 1
    29   16   30 1
    30   17   18 1
    31   17   20 1
    32   17   38 1
    33   18   19 1
    34   18   31 1
    35   18   32 1
    36   19   33 1
    37   19   34 1
    38   20   35 1
    39   20   36 1
    40   20   37 1
@<TRIPOS>MOLECULE
ZINC13678207
   38    40     0     0     0
SMALL
USER_CHARGES

@<TRIPOS>ATOM
      1 C1          0.4986    1.4476   -0.0062 C.3       1 <0>        -0.1207
      2 C2          0.1765   -0.0245   -0.0038 C.ar      1 <0>        -0.0774
      3 C3         -0.0206   -0.6915   -1.1932 C.ar      1 <0>        -0.0823
      4 C4         -0.3178   -2.0484   -1.2002 C.ar      1 <0>        -0.1118
      5 C5         -0.4202   -2.7461   -0.0322 C.ar      1 <0>        -0.0646
      6 C6         -0.2239   -2.0918    1.1912 C.ar      1 <0>         0.0455
      7 C7          0.0828   -0.7164    1.1974 C.ar      1 <0>         0.0729
      8 N1          0.2232   -0.3609    2.5191 N.pl3     1 <0>        -0.5518
      9 H1          0.4322    0.5231    2.8593 H         1 <0>         0.4360
     10 C8          0.0116   -1.4913    3.2642 C.2       1 <0>         0.2187
     11 N2         -0.2583   -2.4984    2.4727 N.2       1 <0>        -0.4506
     12 C9          0.0674   -1.5603    4.7409 C.2       1 <0>         0.6171
     13 O1          0.1850   -0.5414    5.3929 O.2       1 <0>        -0.5018
     14 N3         -0.0122   -2.7531    5.3633 N.am      1 <0>        -0.6114
     15 C10         0.0015   -4.0086    4.5968 C.3       1 <0>         0.0569
     16 C11         1.0543   -4.9393    5.2077 C.3       1 <0>        -0.0215
     17 N4          0.7847   -5.1074    6.6413 N.4       1 <0>        -0.3874
     18 C12         0.9435   -3.8225    7.3341 C.3       1 <0>        -0.0191
     19 C13        -0.1091   -2.8367    6.8288 C.3       1 <0>         0.0891
     20 C14         1.7265   -6.0845    7.2036 C.3       1 <0>        -0.0473
     21 H2          1.5790    1.5831   -0.0548 H         1 <0>         0.0774
     22 H3          0.0338    1.9199   -0.8717 H         1 <0>         0.0810
     23 H4          0.1158    1.9047    0.9064 H         1 <0>         0.0608
     24 H5          0.0562   -0.1550   -2.1273 H         1 <0>         0.1403
     25 H6         -0.4699   -2.5568   -2.1409 H         1 <0>         0.1397
     26 H7         -0.6525   -3.8007   -0.0505 H         1 <0>         0.1362
     27 H8         -0.9796   -4.4808    4.6496 H         1 <0>         0.0995
     28 H9          0.2556   -3.8005    3.5574 H         1 <0>         0.1779
     29 H10         1.0119   -5.9100    4.7137 H         1 <0>         0.1464
     30 H11         2.0451   -4.5055    5.0726 H         1 <0>         0.1313
     31 H12         0.8195   -3.9702    8.4069 H         1 <0>         0.1473
     32 H13         1.9377   -3.4225    7.1346 H         1 <0>         0.1339
     33 H14         0.0719   -1.8541    7.2645 H         1 <0>         0.1385
     34 H15        -1.1015   -3.1884    7.1108 H         1 <0>         0.1017
     35 H16         2.7469   -5.7272    7.0645 H         1 <0>         0.1216
     36 H17         1.5275   -6.2102    8.2679 H         1 <0>         0.1256
     37 H18         1.6041   -7.0411    6.6956 H         1 <0>         0.1264
     38 H19        -0.1588   -5.4420    6.7679 H         1 <0>         0.4260
@<TRIPOS>BOND
     1    1    2 1
     2    1   21 1
     3    1   22 1
     4    1   23 1
     5    2    7 ar
     6    2    3 ar
     7    3    4 ar
     8    3   24 1
     9    4    5 ar
    10    4   25 1
    11    5    6 ar
    12    5   26 1
    13    6   11 1
    14    6    7 ar
    15    7    8 1
    16    8    9 1
    17    8   10 1
    18   10   11 2
    19   10   12 1
    20   12   13 2
    21   12   14 am
    22   14   19 1
    23   14   15 1
    24   15   16 1
    25   15   27 1
    26   15   28 1
    27   16   17 1
    28   16   29 1
    29   16   30 1
    30   17   18 1
    31   17   20 1
    32   17   38 1
    33   18   19 1
    34   18   31 1
    35   18   32 1
    36   19   33 1
    37   19   34 1
    38   20   35 1
    39   20   36 1
    40   20   37 1
@<TRIPOS>MOLECULE
ZINC13813271
   28    28     0     0     0
SMALL
USER_CHARGES

@<TRIPOS>ATOM
      1 C1         -0.0165    1.3646    0.0095 C.2       1 <0>         0.0361
      2 C2          1.2671    1.7717   -0.0005 C.2       1 <0>         0.0254
      3 N1          2.0482    0.6814   -0.0138 N.pl3     1 <0>        -0.4769
      4 H1         -0.7708   -0.5902    0.0060 H         1 <0>         0.4704
      5 C3          1.2973   -0.3859   -0.0124 C.cat     1 <0>         0.3130
      6 N2          0.0021   -0.0041    0.0020 N.pl3     1 <0>        -0.5083
      7 C4          1.7427    3.2017    0.0026 C.3       1 <0>        -0.0639
      8 C5          1.7980    3.7176    1.4420 C.3       1 <0>        -0.1209
      9 C6          2.2808    5.1695    1.4451 C.3       1 <0>        -0.1219
     10 C7          2.3362    5.6853    2.8845 C.3       1 <0>        -0.1536
     11 C8          2.8190    7.1372    2.8877 C.3       1 <0>        -0.0103
     12 N3          2.8721    7.6325    4.2696 N.4       1 <0>        -0.6393
     13 H2         -0.8922    1.9965    0.0253 H         1 <0>         0.2260
     14 H3          1.6529   -1.4057   -0.0218 H         1 <0>         0.2686
     15 H4          2.7369    3.2550   -0.4409 H         1 <0>         0.0984
     16 H5          1.0529    3.8153   -0.5770 H         1 <0>         0.1144
     17 H6          0.8038    3.6644    1.8855 H         1 <0>         0.0786
     18 H7          2.4878    3.1041    2.0215 H         1 <0>         0.0714
     19 H8          3.2751    5.2227    1.0016 H         1 <0>         0.0807
     20 H9          1.5911    5.7830    0.8655 H         1 <0>         0.0832
     21 H10         1.3419    5.6321    3.3280 H         1 <0>         0.0900
     22 H11         3.0259    5.0718    3.4641 H         1 <0>         0.0885
     23 H12         3.8132    7.1904    2.4441 H         1 <0>         0.1348
     24 H13         2.1292    7.7507    2.3081 H         1 <0>         0.1355
     25 H14         1.9518    7.5832    4.6802 H         1 <0>         0.4365
     26 H15         3.5106    7.0646    4.8061 H         1 <0>         0.4362
     27 H16         3.1905    8.5899    4.2717 H         1 <0>         0.4425
     28 H17         3.0181    0.6856   -0.0234 H         1 <0>         0.4650
@<TRIPOS>BOND
     1    1    6 1
     2    1    2 2
     3    1   13 1
     4    2    3 1
     5    2    7 1
     6    3    5 2
     7    3   28 1
     8    4    6 1
     9    5   14 1
    10    5    6 1
    11    7    8 1
    12    7   15 1
    13    7   16 1
    14    8    9 1
    15    8   17 1
    16    8   18 1
    17    9   10 1
    18    9   19 1
    19    9   20 1
    20   10   11 1
    21   10   21 1
    22   10   22 1
    23   11   12 1
    24   11   23 1
    25   11   24 1
    26   12   25 1
    27   12   26 1
    28   12   27 1
@<TRIPOS>MOLECULE
ZINC13813271
   27    27     0     0     0
SMALL
USER_CHARGES

@<TRIPOS>ATOM
      1 C1         -0.0161    1.3371    0.0094 C.2       1 <0>        -0.0180
      2 C2          1.2587    1.7711   -0.0004 C.2       1 <0>        -0.0368
      3 N1          2.0558    0.6583   -0.0140 N.pl3     1 <0>        -0.5686
      4 C3          1.2397   -0.4176   -0.0120 C.2       1 <0>         0.1914
      5 N2          0.0021   -0.0041    0.0020 N.2       1 <0>        -0.4921
      6 C4          1.7192    3.2060    0.0024 C.3       1 <0>        -0.0423
      7 C5          1.7695    3.7226    1.4417 C.3       1 <0>        -0.1163
      8 C6          2.2370    5.1794    1.4446 C.3       1 <0>        -0.1197
      9 C7          2.2873    5.6960    2.8839 C.3       1 <0>        -0.1530
     10 C8          2.7548    7.1528    2.8868 C.3       1 <0>        -0.0099
     11 N3          2.8031    7.6488    4.2687 N.4       1 <0>        -0.6387
     12 H1         -0.8984    1.9597    0.0252 H         1 <0>         0.1681
     13 H2          1.5585   -1.4495   -0.0206 H         1 <0>         0.2108
     14 H3          2.7127    3.2696   -0.4414 H         1 <0>         0.0716
     15 H4          1.0229    3.8122   -0.5771 H         1 <0>         0.0899
     16 H5          0.7759    3.6590    1.8855 H         1 <0>         0.0735
     17 H6          2.4657    3.1164    2.0212 H         1 <0>         0.0645
     18 H7          3.2305    5.2430    1.0008 H         1 <0>         0.0748
     19 H8          1.5407    5.7856    0.8651 H         1 <0>         0.0782
     20 H9          1.2937    5.6324    3.3276 H         1 <0>         0.0892
     21 H10         2.9835    5.0898    3.4634 H         1 <0>         0.0870
     22 H11         3.7483    7.2164    2.4430 H         1 <0>         0.1333
     23 H12         2.0585    7.7590    2.3073 H         1 <0>         0.1344
     24 H13         1.8834    7.5899    4.6795 H         1 <0>         0.4358
     25 H14         3.4476    7.0877    4.8051 H         1 <0>         0.4353
     26 H15         3.1114    8.6096    4.2706 H         1 <0>         0.4388
     27 H16         3.0256    0.6452   -0.0234 H         1 <0>         0.4190
@<TRIPOS>BOND
     1    1    5 1
     2    1    2 2
     3    1   12 1
     4    2    3 1
     5    2    6 1
     6    3    4 1
     7    3   27 1
     8    4   13 1
     9    4    5 2
    10    6    7 1
    11    6   14 1
    12    6   15 1
    13    7    8 1
    14    7   16 1
    15    7   17 1
    16    8    9 1
    17    8   18 1
    18    8   19 1
    19    9   10 1
    20    9   20 1
    21    9   21 1
    22   10   11 1
    23   10   22 1
    24   10   23 1
    25   11   24 1
    26   11   25 1
    27   11   26 1
@<TRIPOS>MOLECULE
ZINC19796155
   42    45     0     0     0
SMALL
USER_CHARGES

@<TRIPOS>ATOM
      1 C1         -0.0670    1.4396   -0.3852 C.3       1 <0>         0.0243
      2 N1         -0.0229   -0.0169   -0.1987 N.3       1 <0>        -0.5428
      3 C2          0.3808   -0.6943   -1.4380 C.3       1 <0>         0.0399
      4 C3          0.2401   -2.2095   -1.2572 C.3       1 <0>         0.1263
      5 N2          0.9912   -2.6085   -0.0572 N.pl3     1 <0>        -0.5953
      6 C4          0.7394   -1.8803    1.1955 C.3       1 <0>         0.1122
      7 C5          0.8604   -0.3781    0.9181 C.3       1 <0>         0.0393
      8 C6          1.9051   -3.6365   -0.1053 C.2       1 <0>         0.5098
      9 N3          2.1670   -4.1290   -1.2643 N.2       1 <0>        -0.6041
     10 C7          3.0130   -5.1503   -1.5719 C.ar      1 <0>         0.1655
     11 C8          2.6280   -6.0848   -2.5372 C.ar      1 <0>        -0.1058
     12 C9          3.4872   -7.1047   -2.8991 C.ar      1 <0>        -0.0230
     13 C10         4.7348   -7.2069   -2.3106 C.ar      1 <0>        -0.1209
     14 C11         5.1212   -6.2977   -1.3402 C.ar      1 <0>        -0.1017
     15 C12         4.2618   -5.2835   -0.9546 C.ar      1 <0>         0.1117
     16 N4          4.6314   -4.4326    0.1003 N.pl3     1 <0>        -0.7261
     17 C13         3.8434   -4.4184    1.2519 C.ar      1 <0>         0.2140
     18 C14         2.4943   -4.0640    1.1729 C.ar      1 <0>        -0.1453
     19 C15         1.7072   -4.1133    2.3240 C.ar      1 <0>        -0.0723
     20 C16         2.2727   -4.4729    3.5311 C.ar      1 <0>        -0.1389
     21 C17         3.6189   -4.7825    3.6069 C.ar      1 <0>        -0.0765
     22 C18         4.3974   -4.7629    2.4751 C.ar      1 <0>        -0.1433
     23 Cl1         2.9987   -8.2627   -4.0966 Cl        1 <0>        -0.0679
     24 H1          0.9359    1.8090   -0.5992 H         1 <0>         0.0255
     25 H2         -0.7279    1.6794   -1.2181 H         1 <0>         0.0711
     26 H3         -0.4416    1.9111    0.5233 H         1 <0>         0.0709
     27 H4         -0.2581   -0.3649   -2.2574 H         1 <0>         0.0878
     28 H5          1.4186   -0.4499   -1.6647 H         1 <0>         0.0378
     29 H6         -0.8117   -2.4673   -1.1334 H         1 <0>         0.0720
     30 H7          0.6453   -2.7216   -2.1299 H         1 <0>         0.1060
     31 H8         -0.2645   -2.1065    1.5551 H         1 <0>         0.0792
     32 H9          1.4746   -2.1748    1.9444 H         1 <0>         0.0984
     33 H10         1.8915   -0.1381    0.6586 H         1 <0>         0.0379
     34 H11         0.5693    0.1807    1.8075 H         1 <0>         0.0892
     35 H12         1.6558   -6.0097   -3.0016 H         1 <0>         0.1375
     36 H13         5.4083   -7.9971   -2.6081 H         1 <0>         0.1357
     37 H14         6.0961   -6.3802   -0.8829 H         1 <0>         0.1326
     38 H15         5.4169   -3.8679    0.0299 H         1 <0>         0.4097
     39 H16         0.6563   -3.8699    2.2709 H         1 <0>         0.1344
     40 H17         1.6613   -4.5124    4.4205 H         1 <0>         0.1323
     41 H18         4.0571   -5.0467    4.5580 H         1 <0>         0.1317
     42 H19         5.4473   -5.0071    2.5424 H         1 <0>         0.1313
@<TRIPOS>BOND
     1    1    2 1
     2    1   24 1
     3    1   25 1
     4    1   26 1
     5    2    7 1
     6    2    3 1
     7    3    4 1
     8    3   27 1
     9    3   28 1
    10    4    5 1
    11    4   29 1
    12    4   30 1
    13    5    6 1
    14    5    8 1
    15    6    7 1
    16    6   31 1
    17    6   32 1
    18    7   33 1
    19    7   34 1
    20    8   18 1
    21    8    9 2
    22    9   10 1
    23   10   15 ar
    24   10   11 ar
    25   11   12 ar
    26   11   35 1
    27   12   13 ar
    28   12   23 1
    29   13   14 ar
    30   13   36 1
    31   14   15 ar
    32   14   37 1
    33   15   16 1
    34   16   17 1
    35   16   38 1
    36   17   22 ar
    37   17   18 ar
    38   18   19 ar
    39   19   20 ar
    40   19   39 1
    41   20   21 ar
    42   20   40 1
    43   21   22 ar
    44   21   41 1
    45   22   42 1
@<TRIPOS>MOLECULE
ZINC19796155
   44    47     0     0     0
SMALL
USER_CHARGES

@<TRIPOS>ATOM
      1 C1         -1.5703   -0.0018   -1.9302 C.3       1 <0>        -0.0497
      2 N1         -0.7527   -0.7171   -0.9414 N.4       1 <0>        -0.3854
      3 C2         -1.0498   -2.1535   -1.0104 C.3       1 <0>        -0.0252
      4 C3         -0.2839   -2.8861    0.0962 C.3       1 <0>         0.1048
      5 N2          1.1441   -2.5548   -0.0269 N.pl3     1 <0>        -0.7052
      6 C4          1.5202   -1.1363   -0.1296 C.3       1 <0>         0.1049
      7 C5          0.6692   -0.4862   -1.2256 C.3       1 <0>        -0.0251
      8 C6          2.0831   -3.5253   -0.0448 C.2       1 <0>         0.6309
      9 C7          2.6112   -3.9094    1.2074 C.ar      1 <0>        -0.2438
     10 C8          2.0495   -3.1929    2.2728 C.ar      1 <0>         0.0055
     11 C9          2.4602   -3.4528    3.5483 C.ar      1 <0>        -0.1817
     12 C10         3.4265   -4.4148    3.8208 C.ar      1 <0>         0.0489
     13 C11         4.0101   -5.1439    2.8276 C.ar      1 <0>        -0.2233
     14 C12         3.6302   -4.9235    1.4921 C.ar      1 <0>         0.3343
     15 N3          4.2865   -5.7106    0.6358 N.pl3     1 <0>        -0.6131
     16 C13         4.1767   -5.7728   -0.7271 C.ar      1 <0>         0.1589
     17 C14         5.0408   -6.7320   -1.2562 C.ar      1 <0>        -0.1157
     18 C15         5.0795   -6.9478   -2.6222 C.ar      1 <0>        -0.0495
     19 C16         4.2642   -6.2154   -3.4643 C.ar      1 <0>        -0.0338
     20 C17         3.4016   -5.2585   -2.9468 C.ar      1 <0>        -0.0846
     21 C18         3.3520   -5.0321   -1.5848 C.ar      1 <0>         0.0769
     22 N4          2.4115   -4.0290   -1.2719 N.pl3     1 <0>        -0.5773
     23 Cl1         4.3195   -6.4929   -5.1771 Cl        1 <0>        -0.0159
     24 H1         -1.3348   -0.3678   -2.9295 H         1 <0>         0.1246
     25 H2         -2.6262   -0.1724   -1.7203 H         1 <0>         0.1321
     26 H3         -1.3566    1.0656   -1.8745 H         1 <0>         0.1321
     27 H4         -2.1201   -2.3101   -0.8766 H         1 <0>         0.1569
     28 H5         -0.7442   -2.5415   -1.9820 H         1 <0>         0.1344
     29 H6         -0.6518   -2.5648    1.0707 H         1 <0>         0.1155
     30 H7         -0.4211   -3.9618   -0.0138 H         1 <0>         0.1302
     31 H8          1.3345   -0.6383    0.8220 H         1 <0>         0.1155
     32 H9          2.5758   -1.0551   -0.3891 H         1 <0>         0.1302
     33 H10         0.9228   -0.9247   -2.1907 H         1 <0>         0.1344
     34 H11         0.8655    0.5856   -1.2504 H         1 <0>         0.1569
     35 H12         1.2975   -2.4405    2.0860 H         1 <0>         0.1502
     36 H13         2.0243   -2.8976    4.3657 H         1 <0>         0.1496
     37 H14         3.7223   -4.5886    4.8448 H         1 <0>         0.1558
     38 H15         4.7590   -5.8851    3.0650 H         1 <0>         0.1623
     39 H16         5.6790   -7.3052   -0.6001 H         1 <0>         0.1677
     40 H17         5.7487   -7.6901   -3.0316 H         1 <0>         0.1653
     41 H18         2.7675   -4.6896   -3.6107 H         1 <0>         0.1565
     42 H19         1.9393   -3.6432   -2.0263 H         1 <0>         0.4255
     43 H20         4.9278   -6.3202    1.0333 H         1 <0>         0.4372
     44 H21        -0.9695   -0.3754   -0.0171 H         1 <0>         0.4310
@<TRIPOS>BOND
     1    1    2 1
     2    1   24 1
     3    1   25 1
     4    1   26 1
     5    2    7 1
     6    2    3 1
     7    2   44 1
     8    3    4 1
     9    3   27 1
    10    3   28 1
    11    4    5 1
    12    4   29 1
    13    4   30 1
    14    5    6 1
    15    5    8 1
    16    6    7 1
    17    6   31 1
    18    6   32 1
    19    7   33 1
    20    7   34 1
    21    8   22 1
    22    8    9 2
    23    9   14 ar
    24    9   10 ar
    25   10   11 ar
    26   10   35 1
    27   11   12 ar
    28   11   36 1
    29   12   13 ar
    30   12   37 1
    31   13   14 ar
    32   13   38 1
    33   14   15 2
    34   15   16 1
    35   15   43 1
    36   16   21 ar
    37   16   17 ar
    38   17   18 ar
    39   17   39 1
    40   18   19 ar
    41   18   40 1
    42   19   20 ar
    43   19   23 1
    44   20   21 ar
    45   20   41 1
    46   21   22 1
    47   22   42 1
@<TRIPOS>MOLECULE
ZINC19796155
   43    46     0     0     0
SMALL
USER_CHARGES

@<TRIPOS>ATOM
      1 C1         -0.0523    1.4387   -0.3863 C.3       1 <0>        -0.0469
      2 N1         -0.0147   -0.0168   -0.1908 N.4       1 <0>        -0.3852
      3 C2          0.4863   -0.6601   -1.4120 C.3       1 <0>        -0.0213
      4 C3          0.4181   -2.1823   -1.2510 C.3       1 <0>         0.1002
      5 N2          1.1441   -2.5548   -0.0269 N.pl3     1 <0>        -0.6180
      6 C4          0.8178   -1.8405    1.2170 C.3       1 <0>         0.0860
      7 C5          0.8671   -0.3344    0.9395 C.3       1 <0>        -0.0221
      8 C6          2.1017   -3.5432   -0.0451 C.2       1 <0>         0.5019
      9 N3          2.4234   -4.0210   -1.1951 N.2       1 <0>        -0.5760
     10 C7          3.3217   -5.0050   -1.4750 C.ar      1 <0>         0.1390
     11 C8          3.0096   -5.9522   -2.4541 C.ar      1 <0>        -0.0932
     12 C9          3.9229   -6.9340   -2.7877 C.ar      1 <0>        -0.0267
     13 C10         5.1529   -6.9852   -2.1572 C.ar      1 <0>        -0.1032
     14 C11         5.4673   -6.0631   -1.1730 C.ar      1 <0>        -0.1031
     15 C12         4.5533   -5.0871   -0.8155 C.ar      1 <0>         0.1235
     16 N4          4.8505   -4.2243    0.2524 N.pl3     1 <0>        -0.7273
     17 C13         4.0239   -4.2464    1.3765 C.ar      1 <0>         0.2173
     18 C14         2.6645   -3.9489    1.2520 C.ar      1 <0>        -0.1537
     19 C15         1.8414   -4.0345    2.3754 C.ar      1 <0>        -0.0841
     20 C16         2.3802   -4.3733    3.6007 C.ar      1 <0>        -0.1334
     21 C17         3.7349   -4.6261    3.7220 C.ar      1 <0>        -0.0692
     22 C18         4.5500   -4.5705    2.6174 C.ar      1 <0>        -0.1369
     23 Cl1         3.5248   -8.1083   -4.0027 Cl        1 <0>        -0.0551
     24 H1          0.9534    1.8033   -0.5956 H         1 <0>         0.1211
     25 H2         -0.7066    1.6758   -1.2253 H         1 <0>         0.1256
     26 H3         -0.4316    1.9169    0.5167 H         1 <0>         0.1252
     27 H4         -0.1269   -0.3565   -2.2605 H         1 <0>         0.1425
     28 H5          1.5196   -0.3587   -1.5839 H         1 <0>         0.1315
     29 H6         -0.6226   -2.4957   -1.1694 H         1 <0>         0.0898
     30 H7          0.8819   -2.6629   -2.1125 H         1 <0>         0.1431
     31 H8         -0.1827   -2.1194    1.5479 H         1 <0>         0.0960
     32 H9          1.5457   -2.0950    1.9873 H         1 <0>         0.1385
     33 H10         1.8889   -0.0428    0.6965 H         1 <0>         0.1320
     34 H11         0.5345    0.2092    1.8238 H         1 <0>         0.1439
     35 H12         2.0515   -5.9169   -2.9512 H         1 <0>         0.1396
     36 H13         5.8689   -7.7454   -2.4325 H         1 <0>         0.1422
     37 H14         6.4287   -6.1057   -0.6827 H         1 <0>         0.1382
     38 H15         5.6134   -3.6267    0.2096 H         1 <0>         0.4129
     39 H16         0.7836   -3.8354    2.2868 H         1 <0>         0.1314
     40 H17         1.7411   -4.4409    4.4686 H         1 <0>         0.1357
     41 H18         4.1512   -4.8742    4.6872 H         1 <0>         0.1370
     42 H19         5.6063   -4.7705    2.7202 H         1 <0>         0.1363
     43 H20        -0.9456   -0.3526    0.0057 H         1 <0>         0.4250
@<TRIPOS>BOND
     1    1    2 1
     2    1   24 1
     3    1   25 1
     4    1   26 1
     5    2    7 1
     6    2    3 1
     7    2   43 1
     8    3    4 1
     9    3   27 1
    10    3   28 1
    11    4    5 1
    12    4   29 1
    13    4   30 1
    14    5    6 1
    15    5    8 1
    16    6    7 1
    17    6   31 1
    18    6   32 1
    19    7   33 1
    20    7   34 1
    21    8   18 1
    22    8    9 2
    23    9   10 1
    24   10   15 ar
    25   10   11 ar
    26   11   12 ar
    27   11   35 1
    28   12   13 ar
    29   12   23 1
    30   13   14 ar
    31   13   36 1
    32   14   15 ar
    33   14   37 1
    34   15   16 1
    35   16   17 1
    36   16   38 1
    37   17   22 ar
    38   17   18 ar
    39   18   19 ar
    40   19   20 ar
    41   19   39 1
    42   20   21 ar
    43   20   40 1
    44   21   22 ar
    45   21   41 1
    46   22   42 1
@<TRIPOS>MOLECULE
ZINC20028330
   35    37     0     0     0
SMALL
USER_CHARGES

@<TRIPOS>ATOM
      1 C1          1.7349    1.7439   -0.9420 C.3       1 <0>         0.0239
      2 N1          1.2958    0.3869   -0.5903 N.3       1 <0>        -0.5432
      3 C2          1.3873   -0.5127   -1.7480 C.3       1 <0>         0.0386
      4 C3          0.7544   -1.8624   -1.3933 C.3       1 <0>         0.1167
      5 N2          1.3851   -2.3654   -0.1635 N.am      1 <0>        -0.6105
      6 C4          1.4542   -1.4685    1.0002 C.3       1 <0>         0.0882
      7 C5          2.0596   -0.1343    0.5512 C.3       1 <0>         0.0408
      8 C6          1.8862   -3.6152   -0.1043 C.2       1 <0>         0.5851
      9 O1          1.8164   -4.3450   -1.0750 O.2       1 <0>        -0.5145
     10 C7          2.5171   -4.0965    1.1337 C.2       1 <0>         0.0257
     11 C8          3.5030   -5.0289    1.2044 C.2       1 <0>        -0.1061
     12 C9          3.8300   -5.2083    2.5702 C.ar      1 <0>        -0.0922
     13 C10         4.7531   -6.0230    3.2392 C.ar      1 <0>        -0.0980
     14 C11         4.8399   -5.9740    4.6017 C.ar      1 <0>         0.0750
     15 C12         4.0189   -5.1211    5.3326 C.ar      1 <0>        -0.1184
     16 C13         3.1049   -4.3118    4.6965 C.ar      1 <0>        -0.0989
     17 C14         2.9983   -4.3445    3.3088 C.ar      1 <0>         0.0979
     18 N3          2.2062   -3.6685    2.4097 N.pl3     1 <0>        -0.5783
     19 H1          1.5376   -3.0029    2.6350 H         1 <0>         0.4234
     20 F1          5.7303   -6.7606    5.2448 F         1 <0>        -0.1396
     21 H2          2.7919    1.7264   -1.2075 H         1 <0>         0.0281
     22 H3          1.1533    2.1057   -1.7899 H         1 <0>         0.0730
     23 H4          1.5853    2.4065   -0.0896 H         1 <0>         0.0722
     24 H5          0.8572   -0.0732   -2.5929 H         1 <0>         0.0931
     25 H6          2.4345   -0.6602   -2.0121 H         1 <0>         0.0418
     26 H7         -0.3155   -1.7334   -1.2297 H         1 <0>         0.0812
     27 H8          0.9207   -2.5697   -2.2058 H         1 <0>         0.1017
     28 H9          0.4516   -1.3016    1.3938 H         1 <0>         0.0851
     29 H10         2.0832   -1.9154    1.7701 H         1 <0>         0.0958
     30 H11         3.0974   -0.2871    0.2551 H         1 <0>         0.0429
     31 H12         2.0170    0.5796    1.3737 H         1 <0>         0.0919
     32 H13         3.9557   -5.5415    0.3685 H         1 <0>         0.1591
     33 H14         5.3939   -6.6882    2.6794 H         1 <0>         0.1402
     34 H15         4.0992   -5.0940    6.4093 H         1 <0>         0.1428
     35 H16         2.4722   -3.6529    5.2726 H         1 <0>         0.1354
@<TRIPOS>BOND
     1    1    2 1
     2    1   21 1
     3    1   22 1
     4    1   23 1
     5    2    7 1
     6    2    3 1
     7    3    4 1
     8    3   24 1
     9    3   25 1
    10    4    5 1
    11    4   26 1
    12    4   27 1
    13    5    6 1
    14    5    8 am
    15    6    7 1
    16    6   28 1
    17    6   29 1
    18    7   30 1
    19    7   31 1
    20    8    9 2
    21    8   10 1
    22   10   18 1
    23   10   11 2
    24   11   12 1
    25   11   32 1
    26   12   17 ar
    27   12   13 ar
    28   13   14 ar
    29   13   33 1
    30   14   15 ar
    31   14   20 1
    32   15   16 ar
    33   15   34 1
    34   16   17 ar
    35   16   35 1
    36   17   18 1
    37   18   19 1
@<TRIPOS>MOLECULE
ZINC00315706
   46    49     0     0     0
SMALL
USER_CHARGES
N-(2-furylmethyl)-2-(4-methylpiperazin-1-yl)-quinazolin-4-amine
@<TRIPOS>ATOM
      1 C1          3.5006    2.0165    1.2367 C.3       1 <0>        -0.0405
      2 C2          1.4190    1.9924   -0.0008 C.3       1 <0>         0.0000
      3 C3         -0.0179    1.4653    0.0101 C.3       1 <0>         0.0431
      4 N1          0.0021   -0.0041    0.0020 N.pl3     1 <0>        -0.4631
      5 C4          0.7209   -0.5246    1.1733 C.3       1 <0>         0.0376
      6 C5          2.1578    0.0025    1.1624 C.3       1 <0>         0.0037
      7 C6         -1.2809   -0.5168   -0.0603 C.ar      1 <0>         0.5312
      8 N2         -2.2967    0.3245   -0.0966 N.ar      1 <0>        -0.5835
      9 C7         -3.5556   -0.1336   -0.1620 C.ar      1 <0>         0.2092
     10 C8         -4.6574    0.7316   -0.2066 C.ar      1 <0>        -0.1180
     11 C9         -5.9174    0.2145   -0.2665 C.ar      1 <0>        -0.0604
     12 C10        -6.1278   -1.1613   -0.2849 C.ar      1 <0>        -0.1299
     13 C11        -5.0778   -2.0311   -0.2426 C.ar      1 <0>        -0.0648
     14 C12        -3.7720   -1.5330   -0.1804 C.ar      1 <0>        -0.2060
     15 C13        -2.6428   -2.3882   -0.1341 C.ar      1 <0>         0.5052
     16 N3         -1.4392   -1.8373   -0.0757 N.ar      1 <0>        -0.6040
     17 N4         -2.7929   -3.7583   -0.1499 N.pl3     1 <0>        -0.6875
     18 C14        -1.6128   -4.6251   -0.1018 C.3       1 <0>         0.2153
     19 C15        -2.0475   -6.0677   -0.1310 C.2       1 <0>        -0.0612
     20 C16        -2.2248   -6.8136   -1.2362 C.2       1 <0>        -0.1696
     21 C17        -2.6315   -8.0967   -0.8035 C.2       1 <0>        -0.2184
     22 C18        -2.6784   -8.0581    0.5403 C.2       1 <0>        -0.0167
     23 O1         -2.3181   -6.8283    0.9423 O.3       1 <0>        -0.1720
     24 H1          4.0690    1.6795    0.3699 H         1 <0>         0.1244
     25 H2          3.4567    3.1056    1.2413 H         1 <0>         0.1232
     26 H3          3.9870    1.6686    2.1479 H         1 <0>         0.1225
     27 H4          1.9202    1.6632   -0.9110 H         1 <0>         0.1399
     28 H5          1.4070    3.0818    0.0344 H         1 <0>         0.1403
     29 H6         -0.5445    1.8267   -0.8732 H         1 <0>         0.1344
     30 H7         -0.5275    1.8172    0.9071 H         1 <0>         0.0786
     31 H8          0.2197   -0.1954    2.0835 H         1 <0>         0.0682
     32 H9          0.7329   -1.6140    1.1381 H         1 <0>         0.1381
     33 H10         2.6844   -0.3589    2.0457 H         1 <0>         0.1399
     34 H11         2.6675   -0.3497    0.2656 H         1 <0>         0.1426
     35 H12        -4.5091    1.8013   -0.1937 H         1 <0>         0.1404
     36 H13        -6.7653    0.8825   -0.3004 H         1 <0>         0.1382
     37 H14        -7.1360   -1.5453   -0.3329 H         1 <0>         0.1357
     38 H15        -5.2533   -3.0966   -0.2568 H         1 <0>         0.1279
     39 H16        -3.6799   -4.1486   -0.1928 H         1 <0>         0.4195
     40 H17        -0.9760   -4.4200   -0.9624 H         1 <0>         0.1048
     41 H18        -1.0570   -4.4316    0.8157 H         1 <0>         0.0886
     42 H19        -2.0842   -6.4936   -2.2581 H         1 <0>         0.1524
     43 H20        -2.8609   -8.9450   -1.4314 H         1 <0>         0.1551
     44 H21        -2.9540   -8.8784    1.1865 H         1 <0>         0.2095
     45 N5          2.1235    1.4799    1.1931 N.4       1 <0>        -0.4016
     46 H22         1.6199    1.7848    2.0344 H         1 <0>         0.4278
@<TRIPOS>BOND
     1    1   24 1
     2    1   25 1
     3    1   26 1
     4    1   45 1
     5    2    3 1
     6    2   27 1
     7    2   28 1
     8    2   45 1
     9    3    4 1
    10    3   29 1
    11    3   30 1
    12    4    5 1
    13    4    7 1
    14    5    6 1
    15    5   31 1
    16    5   32 1
    17    6   33 1
    18    6   34 1
    19    6   45 1
    20    7   16 ar
    21    7    8 ar
    22    8    9 ar
    23    9   14 ar
    24    9   10 ar
    25   10   11 ar
    26   10   35 1
    27   11   12 ar
    28   11   36 1
    29   12   13 ar
    30   12   37 1
    31   13   14 ar
    32   13   38 1
    33   14   15 ar
    34   15   16 ar
    35   15   17 1
    36   17   18 1
    37   17   39 1
    38   18   19 1
    39   18   40 1
    40   18   41 1
    41   19   23 1
    42   19   20 2
    43   20   21 1
    44   20   42 1
    45   21   22 2
    46   21   43 1
    47   22   23 1
    48   22   44 1
    49   45   46 1
@<TRIPOS>MOLECULE
ZINC03602061
   45    48     0     0     0
SMALL
USER_CHARGES
2-(4-methylpiperazin-1-yl)-4-phenoxy-quinazoline
@<TRIPOS>ATOM
      1 C1         -7.7713    2.2473    1.0139 C.3       1 <0>        -0.0407
      2 C2         -5.6532    2.6729   -0.0804 C.3       1 <0>         0.0007
      3 C3         -4.3742    3.5105   -0.0113 C.3       1 <0>         0.0415
      4 N1         -4.7176    4.9348   -0.1257 N.pl3     1 <0>        -0.4594
      5 C4         -5.6263    5.3429    0.9548 C.3       1 <0>         0.0357
      6 C5         -6.9054    4.5053    0.8857 C.3       1 <0>         0.0039
      7 C6         -3.5789    5.7197   -0.1387 C.ar      1 <0>         0.5175
      8 N2         -3.7142    7.0283   -0.2375 N.ar      1 <0>        -0.5300
      9 C7         -2.6339    7.8220   -0.2537 C.ar      1 <0>         0.2047
     10 C8         -2.7398    9.2159   -0.3580 C.ar      1 <0>        -0.1149
     11 C9         -1.6096    9.9778   -0.3704 C.ar      1 <0>        -0.0546
     12 C10        -0.3492    9.3933   -0.2807 C.ar      1 <0>        -0.1253
     13 C11        -0.2100    8.0405   -0.1782 C.ar      1 <0>        -0.0544
     14 C12        -1.3507    7.2294   -0.1571 C.ar      1 <0>        -0.1759
     15 C13        -1.2678    5.8201   -0.0591 C.ar      1 <0>         0.4356
     16 N3         -2.3927    5.1238   -0.0515 N.ar      1 <0>        -0.6070
     17 O1         -0.0685    5.2008    0.0302 O.3       1 <0>        -0.2279
     18 C14        -0.0515    3.8420    0.0427 C.ar      1 <0>         0.0790
     19 C15         0.1564    3.1605    1.2333 C.ar      1 <0>        -0.1106
     20 C16         0.1737    1.7793    1.2432 C.ar      1 <0>        -0.1059
     21 C17        -0.0160    1.0759    0.0680 C.ar      1 <0>        -0.1084
     22 C18        -0.2178    1.7527   -1.1208 C.ar      1 <0>        -0.1057
     23 C19        -0.2416    3.1338   -1.1352 C.ar      1 <0>        -0.1120
     24 H1         -7.4923    1.2048    1.1670 H         1 <0>         0.1233
     25 H2         -8.4263    2.5706    1.8229 H         1 <0>         0.1235
     26 H3         -8.2928    2.3477    0.0620 H         1 <0>         0.1251
     27 H4         -6.1393    2.8301   -1.0432 H         1 <0>         0.1409
     28 H5         -5.4036    1.6179    0.0330 H         1 <0>         0.1405
     29 H6         -3.7108    3.2295   -0.8293 H         1 <0>         0.1328
     30 H7         -3.8738    3.3324    0.9406 H         1 <0>         0.0774
     31 H8         -5.1402    5.1856    1.9176 H         1 <0>         0.0690
     32 H9         -5.8759    6.3978    0.8410 H         1 <0>         0.1410
     33 H10        -7.4057    4.6833   -0.0662 H         1 <0>         0.1437
     34 H11        -7.5687    4.7862    1.7037 H         1 <0>         0.1417
     35 H12        -3.7109    9.6832   -0.4284 H         1 <0>         0.1467
     36 H13        -1.6931   11.0515   -0.4508 H         1 <0>         0.1427
     37 H14         0.5304   10.0198   -0.2920 H         1 <0>         0.1404
     38 H15         0.7730    7.5985   -0.1091 H         1 <0>         0.1428
     39 H16         0.3050    3.7095    2.1514 H         1 <0>         0.1308
     40 H17         0.3358    1.2484    2.1696 H         1 <0>         0.1342
     41 H18        -0.0022   -0.0040    0.0778 H         1 <0>         0.1320
     42 H19        -0.3613    1.2010   -2.0381 H         1 <0>         0.1332
     43 H20        -0.4036    3.6619   -2.0632 H         1 <0>         0.1269
     44 N4         -6.5482    3.0779    1.0242 N.4       1 <0>        -0.4018
     45 H21        -6.0596    2.9412    1.9169 H         1 <0>         0.4275
@<TRIPOS>BOND
     1    1   24 1
     2    1   25 1
     3    1   26 1
     4    1   44 1
     5    2    3 1
     6    2   27 1
     7    2   28 1
     8    2   44 1
     9    3    4 1
    10    3   29 1
    11    3   30 1
    12    4    5 1
    13    4    7 1
    14    5    6 1
    15    5   31 1
    16    5   32 1
    17    6   33 1
    18    6   34 1
    19    6   44 1
    20    7   16 ar
    21    7    8 ar
    22    8    9 ar
    23    9   14 ar
    24    9   10 ar
    25   10   11 ar
    26   10   35 1
    27   11   12 ar
    28   11   36 1
    29   12   13 ar
    30   12   37 1
    31   13   14 ar
    32   13   38 1
    33   14   15 ar
    34   15   16 ar
    35   15   17 1
    36   17   18 1
    37   18   23 ar
    38   18   19 ar
    39   19   20 ar
    40   19   39 1
    41   20   21 ar
    42   20   40 1
    43   21   22 ar
    44   21   41 1
    45   22   23 ar
    46   22   42 1
    47   23   43 1
    48   44   45 1
@<TRIPOS>MOLECULE
ZINC00205303
   32    33     0     0     0
SMALL
USER_CHARGES
6-(4-methylpiperazin-1-yl)pyrimidine-2,4-diamine
@<TRIPOS>ATOM
      1 C1         -0.1087    1.0567   -2.4117 C.3       1 <0>        -0.0407
      2 C2         -0.0127    1.0858    0.0080 C.3       1 <0>         0.0031
      3 C3         -0.7300    1.5798    1.2666 C.3       1 <0>         0.0301
      4 N1         -0.7832    3.0484    1.2523 N.pl3     1 <0>        -0.4744
      5 C4         -1.4948    3.5356    0.0624 C.3       1 <0>         0.0373
      6 C5         -0.7771    3.0416   -1.1959 C.3       1 <0>        -0.0011
      7 C6         -1.3641    3.5357    2.4127 C.ar      1 <0>         0.4056
      8 C7         -0.8477    3.1908    3.6584 C.ar      1 <0>        -0.3556
      9 C8         -1.4608    3.7075    4.7957 C.ar      1 <0>         0.4984
     10 N2         -2.5202    4.5015    4.6565 N.ar      1 <0>        -0.6320
     11 C9         -2.9875    4.8045    3.4550 C.ar      1 <0>         0.6336
     12 N3         -2.4265    4.3351    2.3507 N.ar      1 <0>        -0.6406
     13 N4         -4.0906    5.6334    3.3504 N.pl3     1 <0>        -0.8148
     14 N5         -0.9780    3.3954    6.0571 N.pl3     1 <0>        -0.8286
     15 H1         -0.1432   -0.0328   -2.4055 H         1 <0>         0.1228
     16 H2         -0.6548    1.4326   -3.2769 H         1 <0>         0.1235
     17 H3          0.9286    1.3870   -2.4651 H         1 <0>         0.1246
     18 H4          0.0021   -0.0041    0.0020 H         1 <0>         0.1405
     19 H5          1.0098    1.4634    0.0003 H         1 <0>         0.1423
     20 H6         -1.7436    1.1797    1.2882 H         1 <0>         0.0728
     21 H7         -0.1871    1.2439    2.1500 H         1 <0>         0.1325
     22 H8         -1.5096    4.6255    0.0684 H         1 <0>         0.1332
     23 H9         -2.5172    3.1577    0.0699 H         1 <0>         0.0771
     24 H10         0.2366    3.4417   -1.2171 H         1 <0>         0.1396
     25 H11        -1.3193    3.3776   -2.0798 H         1 <0>         0.1391
     26 H12         0.0109    2.5407    3.7402 H         1 <0>         0.1410
     27 H13        -4.4432    5.8637    2.4765 H         1 <0>         0.4162
     28 H14        -4.5114    5.9843    4.1509 H         1 <0>         0.4195
     29 H15        -1.4125    3.7562    6.8457 H         1 <0>         0.4125
     30 H16        -0.2056    2.8162    6.1511 H         1 <0>         0.4155
     31 N6         -0.7506    1.5637   -1.1801 N.4       1 <0>        -0.4011
     32 H17        -1.7146    1.2130   -1.1376 H         1 <0>         0.4279
@<TRIPOS>BOND
     1    1   15 1
     2    1   16 1
     3    1   17 1
     4    1   31 1
     5    2    3 1
     6    2   18 1
     7    2   19 1
     8    2   31 1
     9    3    4 1
    10    3   20 1
    11    3   21 1
    12    4    5 1
    13    4    7 1
    14    5    6 1
    15    5   22 1
    16    5   23 1
    17    6   24 1
    18    6   25 1
    19    6   31 1
    20    7   12 ar
    21    7    8 ar
    22    8    9 ar
    23    8   26 1
    24    9   10 ar
    25    9   14 1
    26   10   11 ar
    27   11   12 ar
    28   11   13 1
    29   13   27 1
    30   13   28 1
    31   14   29 1
    32   14   30 1
    33   31   32 1
@<TRIPOS>MOLECULE
ZINC00205303
   33    34     0     0     0
SMALL
USER_CHARGES
6-(4-methylpiperazin-1-yl)pyrimidine-2,4-diamine
@<TRIPOS>ATOM
      1 C1         -0.1087    1.0567   -2.4117 C.3       1 <0>        -0.0431
      2 C2         -0.0127    1.0858    0.0080 C.3       1 <0>        -0.0002
      3 C3         -0.7300    1.5798    1.2666 C.3       1 <0>         0.0232
      4 N1         -0.7832    3.0484    1.2523 N.pl3     1 <0>        -0.4626
      5 C4         -1.4948    3.5356    0.0624 C.3       1 <0>         0.0269
      6 C5         -0.7771    3.0416   -1.1959 C.3       1 <0>        -0.0030
      7 C6         -1.3641    3.5357    2.4127 C.ar      1 <0>         0.4401
      8 C7         -0.8477    3.1908    3.6584 C.ar      1 <0>        -0.3524
      9 C8         -1.4608    3.7075    4.7957 C.ar      1 <0>         0.4056
     10 N2         -2.5202    4.5015    4.6565 N.ar      1 <0>        -0.5330
     11 C9         -2.9875    4.8045    3.4550 C.ar      1 <0>         0.6137
     12 N3         -4.0906    5.6334    3.3504 N.pl3     1 <0>        -0.7290
     13 N4         -0.9780    3.3954    6.0571 N.pl3     1 <0>        -0.7581
     14 H1         -0.1432   -0.0328   -2.4055 H         1 <0>         0.1288
     15 H2         -0.6548    1.4326   -3.2769 H         1 <0>         0.1293
     16 H3          0.9286    1.3870   -2.4651 H         1 <0>         0.1288
     17 H4          0.0021   -0.0041    0.0020 H         1 <0>         0.1537
     18 H5          1.0098    1.4634    0.0003 H         1 <0>         0.1495
     19 H6         -1.7436    1.1797    1.2882 H         1 <0>         0.0934
     20 H7         -0.1871    1.2439    2.1500 H         1 <0>         0.1428
     21 H8         -1.5096    4.6255    0.0684 H         1 <0>         0.1444
     22 H9         -2.5172    3.1577    0.0699 H         1 <0>         0.0957
     23 H10         0.2366    3.4417   -1.2171 H         1 <0>         0.1468
     24 H11        -1.3193    3.3776   -2.0798 H         1 <0>         0.1519
     25 H12         0.0109    2.5407    3.7402 H         1 <0>         0.2131
     26 H13        -4.4432    5.8637    2.4765 H         1 <0>         0.4501
     27 H14        -4.5114    5.9843    4.1509 H         1 <0>         0.4425
     28 H15        -1.4125    3.7562    6.8457 H         1 <0>         0.4526
     29 H16        -0.2056    2.8162    6.1511 H         1 <0>         0.4583
     30 N5         -0.7506    1.5637   -1.1801 N.4       1 <0>        -0.4031
     31 H17        -1.7146    1.2130   -1.1376 H         1 <0>         0.4308
     32 N6         -2.4546    4.3536    2.2849 N.ar      1 <0>        -0.5477
     33 H18        -1.7237    3.9037    4.7471 H         1 <0>         0.4100
@<TRIPOS>BOND
     1    1   14 1
     2    1   15 1
     3    1   16 1
     4    1   30 1
     5    2    3 1
     6    2   17 1
     7    2   18 1
     8    2   30 1
     9    3    4 1
    10    3   19 1
    11    3   20 1
    12    4    5 1
    13    4    7 1
    14    5    6 1
    15    5   21 1
    16    5   22 1
    17    6   23 1
    18    6   24 1
    19    6   30 1
    20    7    8 ar
    21    7   32 ar
    22    8    9 ar
    23    8   25 1
    24    9   10 ar
    25    9   13 1
    26   10   11 ar
    27   10   33 1
    28   11   12 1
    29   11   32 ar
    30   12   26 1
    31   12   27 1
    32   13   28 1
    33   13   29 1
    34   30   31 1
@<TRIPOS>MOLECULE
ZINC00205303
   33    34     0     0     0
SMALL
USER_CHARGES
6-(4-methylpiperazin-1-yl)pyrimidine-2,4-diamine
@<TRIPOS>ATOM
      1 C1         -0.1087    1.0567   -2.4117 C.3       1 <0>        -0.0433
      2 C2         -0.0127    1.0858    0.0080 C.3       1 <0>        -0.0016
      3 C3         -0.7300    1.5798    1.2666 C.3       1 <0>         0.0236
      4 N1         -0.7832    3.0484    1.2523 N.pl3     1 <0>        -0.4785
      5 C4         -1.4948    3.5356    0.0624 C.3       1 <0>        -0.0088
      6 C5         -0.7771    3.0416   -1.1959 C.3       1 <0>         0.0064
      7 C6         -1.3641    3.5357    2.4127 C.ar      1 <0>         0.4067
      8 C7         -0.8477    3.1908    3.6584 C.ar      1 <0>        -0.2771
      9 C8         -1.4608    3.7075    4.7957 C.ar      1 <0>         0.5434
     10 N2         -2.5202    4.5015    4.6565 N.ar      1 <0>        -0.5690
     11 C9         -2.9875    4.8045    3.4550 C.ar      1 <0>         0.6877
     12 N3         -4.0906    5.6334    3.3504 N.pl3     1 <0>        -0.7838
     13 N4         -0.9780    3.3954    6.0571 N.pl3     1 <0>        -0.7654
     14 H1         -0.1432   -0.0328   -2.4055 H         1 <0>         0.1308
     15 H2         -0.6548    1.4326   -3.2769 H         1 <0>         0.1297
     16 H3          0.9286    1.3870   -2.4651 H         1 <0>         0.1303
     17 H4          0.0021   -0.0041    0.0020 H         1 <0>         0.1550
     18 H5          1.0098    1.4634    0.0003 H         1 <0>         0.1512
     19 H6         -1.7436    1.1797    1.2882 H         1 <0>         0.0913
     20 H7         -0.1871    1.2439    2.1500 H         1 <0>         0.1481
     21 H8         -1.5096    4.6255    0.0684 H         1 <0>         0.1394
     22 H9         -2.5172    3.1577    0.0699 H         1 <0>         0.0897
     23 H10         0.2366    3.4417   -1.2171 H         1 <0>         0.1520
     24 H11        -1.3193    3.3776   -2.0798 H         1 <0>         0.1540
     25 H12         0.0109    2.5407    3.7402 H         1 <0>         0.1899
     26 H13        -4.4432    5.8637    2.4765 H         1 <0>         0.4305
     27 H14        -4.5114    5.9843    4.1509 H         1 <0>         0.4489
     28 H15        -1.4125    3.7562    6.8457 H         1 <0>         0.4343
     29 H16        -0.2056    2.8162    6.1511 H         1 <0>         0.4366
     30 N5         -0.7506    1.5637   -1.1801 N.4       1 <0>        -0.4030
     31 H17        -1.7146    1.2130   -1.1376 H         1 <0>         0.4304
     32 N6         -2.4546    4.3536    2.2849 N.ar      1 <0>        -0.6301
     33 H18        -2.8055    4.5807    1.3765 H         1 <0>         0.4502
@<TRIPOS>BOND
     1    1   14 1
     2    1   15 1
     3    1   16 1
     4    1   30 1
     5    2    3 1
     6    2   17 1
     7    2   18 1
     8    2   30 1
     9    3    4 1
    10    3   19 1
    11    3   20 1
    12    4    5 1
    13    4    7 1
    14    5    6 1
    15    5   21 1
    16    5   22 1
    17    6   23 1
    18    6   24 1
    19    6   30 1
    20    7    8 ar
    21    7   32 ar
    22    8    9 ar
    23    8   25 1
    24    9   10 ar
    25    9   13 1
    26   10   11 ar
    27   11   12 1
    28   11   32 ar
    29   12   26 1
    30   12   27 1
    31   13   28 1
    32   13   29 1
    33   30   31 1
    34   32   33 1
@<TRIPOS>MOLECULE
ZINC13234187
   36    38     0     0     0
SMALL
USER_CHARGES

@<TRIPOS>ATOM
      1 C1         -0.0178    1.4648    0.0101 C.3       1 <0>        -0.0466
      2 N1          0.0021   -0.0041    0.0020 N.4       1 <0>        -0.3858
      3 C2          0.6802   -0.4759   -1.2119 C.3       1 <0>        -0.0213
      4 C3          0.6009   -2.0047   -1.2786 C.3       1 <0>         0.1078
      5 N2          1.1441   -2.5548   -0.0269 N.pl3     1 <0>        -0.6051
      6 C4          0.6349   -2.0181    1.2446 C.3       1 <0>         0.1086
      7 C5          0.7126   -0.4887    1.1922 C.3       1 <0>        -0.0213
      8 C6          2.1057   -3.5486   -0.0452 C.ar      1 <0>         0.6083
      9 N3          2.5570   -4.0125    1.1046 N.ar      1 <0>        -0.6029
     10 C7          3.4892   -4.9765    1.1288 C.ar      1 <0>         0.2280
     11 C8          3.9903   -5.4926    2.3317 C.ar      1 <0>        -0.1266
     12 C9          4.9375   -6.4728    2.3010 C.ar      1 <0>        -0.0562
     13 C10         5.4162   -6.9698    1.0922 C.ar      1 <0>        -0.1418
     14 C11         4.9498   -6.4897   -0.0964 C.ar      1 <0>        -0.0586
     15 C12         3.9773   -5.4841   -0.0998 C.ar      1 <0>        -0.2295
     16 C13         3.4556   -4.9476   -1.3034 C.ar      1 <0>         0.5195
     17 N4          2.5328   -4.0004   -1.2210 N.ar      1 <0>        -0.6399
     18 N5          3.8933   -5.4032   -2.5284 N.pl3     1 <0>        -0.8128
     19 H1          1.0047    1.8421    0.0024 H         1 <0>         0.1209
     20 H2         -0.5450    1.8259   -0.8730 H         1 <0>         0.1248
     21 H3         -0.5280    1.8163    0.9069 H         1 <0>         0.1252
     22 H4          0.1945   -0.0482   -2.0890 H         1 <0>         0.1427
     23 H5          1.7251   -0.1668   -1.1880 H         1 <0>         0.1310
     24 H6         -0.4382   -2.3129   -1.3936 H         1 <0>         0.0896
     25 H7          1.1887   -2.3654   -2.1226 H         1 <0>         0.1392
     26 H8         -0.4008   -2.3277    1.3844 H         1 <0>         0.0903
     27 H9          1.2452   -2.3877    2.0687 H         1 <0>         0.1424
     28 H10         1.7566   -0.1792    1.1434 H         1 <0>         0.1316
     29 H11         0.2508   -0.0704    2.0865 H         1 <0>         0.1436
     30 H12         3.6287   -5.1160    3.2771 H         1 <0>         0.1391
     31 H13         5.3226   -6.8693    3.2288 H         1 <0>         0.1364
     32 H14         6.1673   -7.7459    1.0954 H         1 <0>         0.1337
     33 H15         5.3289   -6.8828   -1.0281 H         1 <0>         0.1272
     34 H16         4.5668   -6.0997   -2.5744 H         1 <0>         0.4191
     35 H17         3.5278   -5.0272   -3.3445 H         1 <0>         0.4145
     36 H18        -0.9449   -0.3521    0.0122 H         1 <0>         0.4249
@<TRIPOS>BOND
     1    1    2 1
     2    1   19 1
     3    1   20 1
     4    1   21 1
     5    2    7 1
     6    2    3 1
     7    2   36 1
     8    3    4 1
     9    3   22 1
    10    3   23 1
    11    4    5 1
    12    4   24 1
    13    4   25 1
    14    5    6 1
    15    5    8 1
    16    6    7 1
    17    6   26 1
    18    6   27 1
    19    7   28 1
    20    7   29 1
    21    8   17 ar
    22    8    9 ar
    23    9   10 ar
    24   10   15 ar
    25   10   11 ar
    26   11   12 ar
    27   11   30 1
    28   12   13 ar
    29   12   31 1
    30   13   14 ar
    31   13   32 1
    32   14   15 ar
    33   14   33 1
    34   15   16 ar
    35   16   17 ar
    36   16   18 1
    37   18   34 1
    38   18   35 1
@<TRIPOS>MOLECULE
ZINC13234187
   35    37     0     0     0
SMALL
USER_CHARGES
2-(4-methylpiperazin-1-yl)quinazolin-4-amine
@<TRIPOS>ATOM
      1 C1          3.5006    2.0165    1.2367 C.3       1 <0>         0.0226
      2 N1          2.1378    1.4719    1.1705 N.3       1 <0>        -0.5467
      3 C2          1.4190    1.9924   -0.0008 C.3       1 <0>         0.0504
      4 C3         -0.0179    1.4653    0.0101 C.3       1 <0>         0.0744
      5 N2          0.0021   -0.0041    0.0020 N.pl3     1 <0>        -0.4615
      6 C4          0.7209   -0.5246    1.1733 C.3       1 <0>         0.0705
      7 C5          2.1578    0.0025    1.1624 C.3       1 <0>         0.0536
      8 C6         -1.2809   -0.5168   -0.0603 C.ar      1 <0>         0.5469
      9 N3         -1.4380   -1.8268   -0.0756 N.ar      1 <0>        -0.5718
     10 C7         -2.6660   -2.3626   -0.1355 C.ar      1 <0>         0.2150
     11 C8         -2.8691   -3.7493   -0.1528 C.ar      1 <0>        -0.1194
     12 C9         -4.1384   -4.2431   -0.2140 C.ar      1 <0>        -0.0684
     13 C10        -5.2379   -3.3909   -0.2592 C.ar      1 <0>        -0.1483
     14 C11        -5.0755   -2.0365   -0.2434 C.ar      1 <0>        -0.0603
     15 C12        -3.7861   -1.4974   -0.1819 C.ar      1 <0>        -0.2250
     16 C13        -3.5563   -0.0991   -0.1627 C.ar      1 <0>         0.5042
     17 N4         -2.3049    0.3312   -0.0969 N.ar      1 <0>        -0.6291
     18 N5         -4.6082    0.7906   -0.2063 N.pl3     1 <0>        -0.8424
     19 H1          3.4564    3.1156    1.2414 H         1 <0>         0.0707
     20 H2          4.0743    1.6763    0.3619 H         1 <0>         0.0282
     21 H3          3.9915    1.6653    2.1563 H         1 <0>         0.0710
     22 H4          1.4076    3.0918    0.0347 H         1 <0>         0.0874
     23 H5          1.9254    1.6605   -0.9191 H         1 <0>         0.0444
     24 H6         -0.5321    1.8210    0.9151 H         1 <0>         0.0619
     25 H7         -0.5493    1.8307   -0.8810 H         1 <0>         0.0918
     26 H8          0.2145   -0.1926    2.0916 H         1 <0>         0.0523
     27 H9          0.7323   -1.6240    1.1378 H         1 <0>         0.1016
     28 H10         2.6727   -0.3522    0.2574 H         1 <0>         0.0481
     29 H11         2.6899   -0.3619    2.0535 H         1 <0>         0.0887
     30 H12        -2.0253   -4.4225   -0.1183 H         1 <0>         0.1377
     31 H13        -4.2931   -5.3119   -0.2273 H         1 <0>         0.1315
     32 H14        -6.2332   -3.8075   -0.3070 H         1 <0>         0.1280
     33 H15        -5.9363   -1.3851   -0.2785 H         1 <0>         0.1230
     34 H16        -4.4139    1.8732   -0.1907 H         1 <0>         0.4349
     35 H17        -5.6420    0.4180   -0.2567 H         1 <0>         0.4345
@<TRIPOS>BOND
     1    1    2 1
     2    1   19 1
     3    1   20 1
     4    1   21 1
     5    2    7 1
     6    2    3 1
     7    3    4 1
     8    3   22 1
     9    3   23 1
    10    4    5 1
    11    4   24 1
    12    4   25 1
    13    5    6 1
    14    5    8 1
    15    6    7 1
    16    6   26 1
    17    6   27 1
    18    7   28 1
    19    7   29 1
    20    8   17 ar
    21    8    9 ar
    22    9   10 ar
    23   10   15 ar
    24   10   11 ar
    25   11   12 ar
    26   11   30 1
    27   12   13 ar
    28   12   31 1
    29   13   14 ar
    30   13   32 1
    31   14   15 ar
    32   14   33 1
    33   15   16 ar
    34   16   17 ar
    35   16   18 1
    36   18   34 1
    37   18   35 1
