@<TRIPOS>MOLECULE
ZINC01530860
   50    51     0     0     0
SMALL
USER_CHARGES

@<TRIPOS>ATOM
      1 C1          0.0823    1.4510   -0.2163 C.3       1 <0>        -0.1903
      2 C2          0.0237   -0.0664   -0.0289 C.3       1 <0>        -0.0143
      3 N1         -1.3740   -0.4850    0.1418 N.4       1 <0>        -0.3869
      4 C3         -2.1159   -0.2330   -1.1009 C.3       1 <0>        -0.0160
      5 C4         -3.5996   -0.5332   -0.8788 C.3       1 <0>        -0.1889
      6 C5         -1.4206   -1.9189    0.4577 C.3       1 <0>        -0.0160
      7 C6         -0.7562   -2.1642    1.8139 C.3       1 <0>        -0.1531
      8 C7         -0.8047   -3.6576    2.1429 C.3       1 <0>        -0.1306
      9 C8         -0.1402   -3.9029    3.4991 C.3       1 <0>         0.1283
     10 H1         -0.6138   -3.2758    4.2544 H         1 <0>         0.1053
     11 C9         -0.2985   -5.3747    3.8858 C.3       1 <0>        -0.1803
     12 N2          1.2841   -3.5713    3.4121 N.pl3     1 <0>        -0.6786
     13 C10         1.9824   -3.2088    4.5537 C.ar      1 <0>         0.3547
     14 C11         1.3560   -3.1586    5.7895 C.ar      1 <0>        -0.2665
     15 C12         2.0821   -2.7926    6.9140 C.ar      1 <0>         0.2404
     16 N3          3.3577   -2.4886    6.8466 N.ar      1 <0>        -0.5038
     17 C13         4.0259   -2.5152    5.6879 C.ar      1 <0>         0.1857
     18 C14         3.3585   -2.8841    4.4953 C.ar      1 <0>        -0.1339
     19 C15         4.0649   -2.9157    3.2847 C.ar      1 <0>        -0.0505
     20 C16         5.3889   -2.5961    3.2686 C.ar      1 <0>        -0.1009
     21 C17         6.0512   -2.2380    4.4418 C.ar      1 <0>         0.0417
     22 C18         5.3910   -2.1860    5.6326 C.ar      1 <0>        -0.1402
     23 Cl1         7.7395   -1.8382    4.3823 Cl        1 <0>        -0.0018
     24 H2          1.1228    1.7753   -0.2311 H         1 <0>         0.1068
     25 H3         -0.3953    1.7194   -1.1586 H         1 <0>         0.0848
     26 H4         -0.4388    1.9392    0.6072 H         1 <0>         0.0802
     27 H5          0.4455   -0.5574   -0.9059 H         1 <0>         0.1304
     28 H6          0.5971   -0.3457    0.8550 H         1 <0>         0.1244
     29 H7         -1.9958    0.8109   -1.3904 H         1 <0>         0.1347
     30 H8         -1.7294   -0.8761   -1.8915 H         1 <0>         0.1309
     31 H9         -4.1656   -0.2421   -1.7637 H         1 <0>         0.1098
     32 H10        -3.7314   -1.6000   -0.6980 H         1 <0>         0.0800
     33 H11        -3.9590    0.0285   -0.0166 H         1 <0>         0.0802
     34 H12        -2.4588   -2.2488    0.4968 H         1 <0>         0.1375
     35 H13        -0.8905   -2.4782   -0.3132 H         1 <0>         0.1319
     36 H14         0.2820   -1.8343    1.7748 H         1 <0>         0.0832
     37 H15        -1.2864   -1.6049    2.5847 H         1 <0>         0.0927
     38 H16        -1.8428   -3.9875    2.1820 H         1 <0>         0.1078
     39 H17        -0.2745   -4.2169    1.3720 H         1 <0>         0.0895
     40 H18         0.1751   -6.0018    3.1304 H         1 <0>         0.0726
     41 H19         0.1749   -5.5495    4.8519 H         1 <0>         0.0711
     42 H20        -1.3582   -5.6215    3.9505 H         1 <0>         0.0881
     43 H21         1.7386   -3.6053    2.5558 H         1 <0>         0.4161
     44 H22         0.3076   -3.4029    5.8765 H         1 <0>         0.1793
     45 H23         1.5839   -2.7565    7.8715 H         1 <0>         0.2103
     46 H24         3.5620   -3.1923    2.3699 H         1 <0>         0.1509
     47 H25         5.9323   -2.6207    2.3356 H         1 <0>         0.1625
     48 H26         5.9179   -1.9061    6.5327 H         1 <0>         0.1693
     49 H27        -1.7925    0.0392    0.8955 H         1 <0>         0.4223
     50 H28         3.8273   -2.2380    7.6575 H         1 <0>         0.4488
@<TRIPOS>BOND
     1    1    2 1
     2    1   24 1
     3    1   25 1
     4    1   26 1
     5    2    3 1
     6    2   27 1
     7    2   28 1
     8    3    4 1
     9    3    6 1
    10    3   49 1
    11    4    5 1
    12    4   29 1
    13    4   30 1
    14    5   31 1
    15    5   32 1
    16    5   33 1
    17    6    7 1
    18    6   34 1
    19    6   35 1
    20    7    8 1
    21    7   36 1
    22    7   37 1
    23    8    9 1
    24    8   38 1
    25    8   39 1
    26    9   10 1
    27    9   11 1
    28    9   12 1
    29   11   40 1
    30   11   41 1
    31   11   42 1
    32   12   13 1
    33   12   43 1
    34   13   18 ar
    35   13   14 ar
    36   14   15 ar
    37   14   44 1
    38   15   16 ar
    39   15   45 1
    40   16   17 ar
    41   16   50 1
    42   17   22 ar
    43   17   18 ar
    44   18   19 ar
    45   19   20 ar
    46   19   46 1
    47   20   21 ar
    48   20   47 1
    49   21   22 ar
    50   21   23 1
    51   22   48 1
@<TRIPOS>MOLECULE
ZINC01530861
   50    51     0     0     0
SMALL
USER_CHARGES

@<TRIPOS>ATOM
      1 C1          0.0823    1.4510   -0.2163 C.3       1 <0>        -0.1898
      2 C2          0.0237   -0.0664   -0.0289 C.3       1 <0>        -0.0154
      3 N1         -1.3740   -0.4850    0.1418 N.4       1 <0>        -0.3864
      4 C3         -2.1159   -0.2330   -1.1009 C.3       1 <0>        -0.0167
      5 C4         -3.5996   -0.5332   -0.8788 C.3       1 <0>        -0.1881
      6 C5         -1.4206   -1.9189    0.4577 C.3       1 <0>        -0.0162
      7 C6         -0.7562   -2.1642    1.8139 C.3       1 <0>        -0.1531
      8 C7         -0.8047   -3.6576    2.1429 C.3       1 <0>        -0.1307
      9 C8         -0.1402   -3.9029    3.4991 C.3       1 <0>         0.1285
     10 H1          0.8696   -3.4928    3.4883 H         1 <0>         0.1049
     11 C9         -0.0770   -5.4071    3.7714 C.3       1 <0>        -0.1802
     12 N2         -0.9219   -3.2486    4.5513 N.pl3     1 <0>        -0.6784
     13 C10        -0.3101   -2.8735    5.7376 C.ar      1 <0>         0.3550
     14 C11         1.0409   -3.1017    5.9489 C.ar      1 <0>        -0.2671
     15 C12         1.6245   -2.7142    7.1468 C.ar      1 <0>         0.2403
     16 N3          0.9324   -2.1317    8.0984 N.ar      1 <0>        -0.5038
     17 C13        -0.3748   -1.8810    7.9634 C.ar      1 <0>         0.1856
     18 C14        -1.0437   -2.2401    6.7687 C.ar      1 <0>        -0.1339
     19 C15        -2.4124   -1.9700    6.6303 C.ar      1 <0>        -0.0501
     20 C16        -3.0847   -1.3591    7.6453 C.ar      1 <0>        -0.1009
     21 C17        -2.4283   -0.9984    8.8210 C.ar      1 <0>         0.0418
     22 C18        -1.1016   -1.2576    8.9919 C.ar      1 <0>        -0.1403
     23 Cl1        -3.3181   -0.2204   10.0925 Cl        1 <0>        -0.0018
     24 H2          1.1228    1.7753   -0.2311 H         1 <0>         0.1081
     25 H3         -0.3953    1.7194   -1.1586 H         1 <0>         0.0841
     26 H4         -0.4388    1.9392    0.6072 H         1 <0>         0.0786
     27 H5          0.4455   -0.5574   -0.9059 H         1 <0>         0.1320
     28 H6          0.5971   -0.3457    0.8550 H         1 <0>         0.1275
     29 H7         -1.9958    0.8109   -1.3904 H         1 <0>         0.1349
     30 H8         -1.7294   -0.8761   -1.8915 H         1 <0>         0.1320
     31 H9         -4.1656   -0.2421   -1.7637 H         1 <0>         0.1099
     32 H10        -3.7314   -1.6000   -0.6980 H         1 <0>         0.0794
     33 H11        -3.9590    0.0285   -0.0166 H         1 <0>         0.0786
     34 H12        -2.4588   -2.2488    0.4968 H         1 <0>         0.1346
     35 H13        -0.8905   -2.4782   -0.3132 H         1 <0>         0.1347
     36 H14         0.2820   -1.8343    1.7748 H         1 <0>         0.0929
     37 H15        -1.2864   -1.6049    2.5847 H         1 <0>         0.0830
     38 H16        -1.8428   -3.9875    2.1820 H         1 <0>         0.0897
     39 H17        -0.2745   -4.2169    1.3720 H         1 <0>         0.1076
     40 H18        -1.0868   -5.8172    3.7821 H         1 <0>         0.0727
     41 H19         0.5046   -5.8940    2.9885 H         1 <0>         0.0879
     42 H20         0.3964   -5.5819    4.7375 H         1 <0>         0.0711
     43 H21        -1.8674   -3.0779    4.4180 H         1 <0>         0.4164
     44 H22         1.6364   -3.5792    5.1848 H         1 <0>         0.1791
     45 H23         2.6777   -2.8972    7.3008 H         1 <0>         0.2102
     46 H24        -2.9309   -2.2445    5.7235 H         1 <0>         0.1511
     47 H25        -4.1391   -1.1514    7.5378 H         1 <0>         0.1626
     48 H26        -0.6074   -0.9726    9.9090 H         1 <0>         0.1693
     49 H27        -1.7925    0.0392    0.8955 H         1 <0>         0.4199
     50 H28         1.3801   -1.8771    8.9203 H         1 <0>         0.4488
@<TRIPOS>BOND
     1    1    2 1
     2    1   24 1
     3    1   25 1
     4    1   26 1
     5    2    3 1
     6    2   27 1
     7    2   28 1
     8    3    4 1
     9    3    6 1
    10    3   49 1
    11    4    5 1
    12    4   29 1
    13    4   30 1
    14    5   31 1
    15    5   32 1
    16    5   33 1
    17    6    7 1
    18    6   34 1
    19    6   35 1
    20    7    8 1
    21    7   36 1
    22    7   37 1
    23    8    9 1
    24    8   38 1
    25    8   39 1
    26    9   10 1
    27    9   11 1
    28    9   12 1
    29   11   40 1
    30   11   41 1
    31   11   42 1
    32   12   13 1
    33   12   43 1
    34   13   18 ar
    35   13   14 ar
    36   14   15 ar
    37   14   44 1
    38   15   16 ar
    39   15   45 1
    40   16   17 ar
    41   16   50 1
    42   17   22 ar
    43   17   18 ar
    44   18   19 ar
    45   19   20 ar
    46   19   46 1
    47   20   21 ar
    48   20   47 1
    49   21   22 ar
    50   21   23 1
    51   22   48 1
