@<TRIPOS>MOLECULE
ZINC49792055
   85    86     0     0     0
SMALL
USER_CHARGES

@<TRIPOS>ATOM
      1 C1         -1.2800    1.7819   -0.9304 C.3       1 <0>        -0.1391
      2 C2         -0.9342    0.2901   -1.0056 C.3       1 <0>        -0.1018
      3 H1         -1.7564   -0.2918   -0.6095 H         1 <0>         0.0901
      4 C3         -0.6725   -0.0847   -2.4661 C.3       1 <0>        -0.1300
      5 C4         -1.9444   -0.4896   -3.1987 C.3       1 <0>         0.1043
      6 H2         -2.1341    0.2297   -4.0017 H         1 <0>         0.0908
      7 C5         -1.7814   -1.8802   -3.8197 C.3       1 <0>         0.0765
      8 H3         -1.8067   -2.6341   -3.0359 H         1 <0>         0.0685
      9 C6         -2.9237   -2.1388   -4.8110 C.3       1 <0>        -0.0878
     10 H4         -3.4940   -1.2245   -4.9340 H         1 <0>         0.0888
     11 C7         -3.7772   -3.2720   -4.3216 C.2       1 <0>        -0.1476
     12 C8         -5.0549   -3.1792   -4.0657 C.2       1 <0>        -0.1043
     13 C9         -5.7902   -4.3986   -3.5505 C.3       1 <0>         0.1378
     14 H5         -5.5244   -5.2590   -4.1609 H         1 <0>         0.0978
     15 C10        -5.3940   -4.6630   -2.0950 C.3       1 <0>         0.1047
     16 H6         -4.9838   -5.6742   -2.0162 H         1 <0>         0.0918
     17 C11        -6.5918   -4.5383   -1.1944 C.2       1 <0>        -0.1246
     18 C12        -6.4935   -4.0910    0.0581 C.2       1 <0>        -0.1225
     19 C13        -5.2151   -3.7314    0.6390 C.2       1 <0>        -0.0260
     20 C14        -5.0502   -2.6929    1.4839 C.2       1 <0>        -0.1720
     21 C15        -3.6922   -2.4189    1.9679 C.2       1 <0>         0.5236
     22 O1         -2.8544   -3.2892    1.7711 O.2       1 <0>        -0.4923
     23 N1         -3.3563   -1.3225    2.6091 N.2       1 <0>        -0.5245
     24 C16        -2.2518   -0.6353    2.4375 C.2       1 <0>         0.2771
     25 C17        -2.0167    0.4867    3.2672 C.2       1 <0>        -0.2432
     26 C18        -0.9035    1.2487    3.1110 C.2       1 <0>         0.1735
     27 O2         -0.7219    2.3251    3.9094 O.3       1 <0>        -0.4523
     28 C19         0.1168    0.9303    2.1051 C.2       1 <0>         0.1840
     29 C20         0.0444   -0.2995    1.2586 C.3       1 <0>        -0.0682
     30 C21         0.3419    0.0300   -0.1968 C.3       1 <0>        -0.1009
     31 C22        -1.2687   -1.0085    1.3983 C.2       1 <0>         0.3476
     32 O3         -1.5103   -1.9075    0.6284 O.2       1 <0>        -0.3765
     33 N2          1.1166    1.7362    1.9613 N.2       1 <0>        -0.4419
     34 C23         1.2343    2.9178    2.8193 C.3       1 <0>         0.0612
     35 C24         2.4711    3.6917    2.4416 C.2       1 <0>        -0.1455
     36 C25         2.3795    4.9602    2.1276 C.2       1 <0>        -0.1802
     37 C26        -6.2079   -1.8390    1.9141 C.3       1 <0>        -0.1050
     38 O4         -4.3861   -3.7198   -1.7241 O.3       1 <0>        -0.3410
     39 C27        -3.1206   -4.3104   -1.4211 C.3       1 <0>        -0.0053
     40 O5         -7.1943   -4.1617   -3.6400 O.3       1 <0>        -0.3452
     41 C28        -7.8034   -4.5233   -4.7850 C.2       1 <0>         0.6481
     42 O6         -7.1585   -5.0265   -5.6835 O.2       1 <0>        -0.5685
     43 N3         -9.1284   -4.3271   -4.9345 N.am      1 <0>        -0.8257
     44 C29        -5.8184   -1.8968   -4.2741 C.3       1 <0>        -0.1100
     45 C30        -2.3152   -2.5259   -6.1659 C.3       1 <0>        -0.1433
     46 O7         -0.5351   -1.9529   -4.5160 O.3       1 <0>        -0.5576
     47 O8         -3.0643   -0.4966   -2.3149 O.3       1 <0>        -0.3726
     48 C31        -3.2649   -1.7405   -1.6407 C.3       1 <0>        -0.0203
     49 H7         -0.4204    2.3707   -1.2508 H         1 <0>         0.0528
     50 H8         -2.1276    1.9917   -1.5828 H         1 <0>         0.0599
     51 H9         -1.5377    2.0438    0.0957 H         1 <0>         0.0411
     52 H10        -0.2233    0.7745   -2.9737 H         1 <0>         0.0672
     53 H11         0.0426   -0.9105   -2.4915 H         1 <0>         0.0738
     54 H12        -3.3053   -4.2486   -4.1710 H         1 <0>         0.0985
     55 H13        -7.5735   -4.8361   -1.5580 H         1 <0>         0.1335
     56 H14        -7.4011   -4.0076    0.6520 H         1 <0>         0.1247
     57 H15        -4.3384   -4.3398    0.4155 H         1 <0>         0.1332
     58 H16        -2.7358    0.7290    4.0358 H         1 <0>         0.1563
     59 H17         0.8886   -0.8029   -0.6547 H         1 <0>         0.0793
     60 H18         0.9797    0.9195   -0.2536 H         1 <0>         0.0950
     61 H19         0.8324   -0.9904    1.6041 H         1 <0>         0.1364
     62 H20         0.3561    3.5503    2.6892 H         1 <0>         0.0937
     63 H21         1.3055    2.6048    3.8609 H         1 <0>         0.1001
     64 H22         3.4328    3.2005    2.4299 H         1 <0>         0.1136
     65 H23         3.2659    5.5148    1.8569 H         1 <0>         0.1026
     66 H24         1.4178    5.4514    2.1393 H         1 <0>         0.0959
     67 H25        -6.6517   -2.2570    2.8177 H         1 <0>         0.0684
     68 H26        -5.8576   -0.8268    2.1161 H         1 <0>         0.0684
     69 H27        -6.9550   -1.8134    1.1208 H         1 <0>         0.0657
     70 H28        -2.4578   -3.5539   -1.0011 H         1 <0>         0.1118
     71 H29        -3.2586   -5.1144   -0.6981 H         1 <0>         0.0517
     72 H30        -2.6802   -4.7135   -2.3330 H         1 <0>         0.0438
     73 H31        -9.6432   -3.9254   -4.2172 H         1 <0>         0.4089
     74 H32        -9.5672   -4.5876   -5.7594 H         1 <0>         0.4267
     75 H33        -6.2807   -1.9055   -5.2612 H         1 <0>         0.0581
     76 H34        -6.5918   -1.8064   -3.5114 H         1 <0>         0.0673
     77 H35        -5.1349   -1.0510   -4.2004 H         1 <0>         0.0719
     78 H36        -1.7129   -3.4268   -6.0496 H         1 <0>         0.0524
     79 H37        -3.1146   -2.7133   -6.8829 H         1 <0>         0.0573
     80 H38        -1.6862   -1.7124   -6.5274 H         1 <0>         0.0690
     81 H39        -0.3676   -2.8085   -4.9342 H         1 <0>         0.3786
     82 H40        -2.4593   -1.8993   -0.9239 H         1 <0>         0.0630
     83 H41        -4.2197   -1.7191   -1.1153 H         1 <0>         0.0839
     84 H42        -3.2688   -2.5518   -2.3686 H         1 <0>         0.0998
     85 H43        -1.4327    2.4639    4.5502 H         1 <0>         0.4053
@<TRIPOS>BOND
     1    1    2 1
     2    1   49 1
     3    1   50 1
     4    1   51 1
     5    2    3 1
     6    2   30 1
     7    2    4 1
     8    4    5 1
     9    4   52 1
    10    4   53 1
    11    5    6 1
    12    5    7 1
    13    5   47 1
    14    7    8 1
    15    7    9 1
    16    7   46 1
    17    9   10 1
    18    9   11 1
    19    9   45 1
    20   11   12 2
    21   11   54 1
    22   12   13 1
    23   12   44 1
    24   13   14 1
    25   13   15 1
    26   13   40 1
    27   15   16 1
    28   15   17 1
    29   15   38 1
    30   17   18 2
    31   17   55 1
    32   18   19 1
    33   18   56 1
    34   19   20 2
    35   19   57 1
    36   20   21 1
    37   20   37 1
    38   21   22 2
    39   21   23 1
    40   23   24 2
    41   24   31 1
    42   24   25 1
    43   25   26 2
    44   25   58 1
    45   26   27 1
    46   26   28 1
    47   27   85 1
    48   28   33 2
    49   28   29 1
    50   29   30 1
    51   29   31 1
    52   29   61 1
    53   30   59 1
    54   30   60 1
    55   31   32 2
    56   33   34 1
    57   34   35 1
    58   34   62 1
    59   34   63 1
    60   35   36 2
    61   35   64 1
    62   36   65 1
    63   36   66 1
    64   37   67 1
    65   37   68 1
    66   37   69 1
    67   38   39 1
    68   39   70 1
    69   39   71 1
    70   39   72 1
    71   40   41 1
    72   41   42 2
    73   41   43 am
    74   43   73 1
    75   43   74 1
    76   44   75 1
    77   44   76 1
    78   44   77 1
    79   45   78 1
    80   45   79 1
    81   45   80 1
    82   46   81 1
    83   47   48 1
    84   48   82 1
    85   48   83 1
    86   48   84 1
@<TRIPOS>MOLECULE
ZINC20411962
   42    45     0     0     0
SMALL
USER_CHARGES

@<TRIPOS>ATOM
      1 C1          0.0965    0.3033   -5.8323 C.3       1 <0>        -0.1447
      2 C2          0.8973    1.1309   -4.8250 C.3       1 <0>        -0.0789
      3 C3          1.2275    0.2803   -3.6256 C.ar      1 <0>        -0.1122
      4 C4          2.4811   -0.2829   -3.5059 C.ar      1 <0>        -0.0642
      5 C5          2.7881   -1.0695   -2.3978 C.ar      1 <0>        -0.0132
      6 C6          1.8220   -1.2855   -1.4093 C.ar      1 <0>         0.1376
      7 C7          0.5668   -0.7165   -1.5375 C.ar      1 <0>        -0.1745
      8 C8          0.2710    0.0702   -2.6413 C.ar      1 <0>         0.1180
      9 O1         -0.9602    0.6322   -2.7622 O.3       1 <0>        -0.4947
     10 O2          2.1150   -2.0519   -0.3265 O.3       1 <0>        -0.4861
     11 C9          4.1344   -1.6764   -2.2668 C.2       1 <0>         0.0737
     12 C10         4.8425   -2.3708   -3.2794 C.2       1 <0>        -0.1458
     13 C11         6.0485   -2.7471   -2.6816 C.2       1 <0>         0.0134
     14 N1          6.0001   -2.2772   -1.3961 N.pl3     1 <0>        -0.3704
     15 H1          6.7030   -2.3887   -0.7370 H         1 <0>         0.4476
     16 N2          4.8916   -1.6635   -1.1919 N.2       1 <0>        -0.2903
     17 C12         7.1424   -3.4932   -3.3038 C.2       1 <0>         0.5452
     18 O3          8.1492   -3.7563   -2.6580 O.co2     1 <0>        -0.6865
     19 O4          7.0512   -3.8546   -4.4704 O.co2     1 <0>        -0.6508
     20 C13         4.4012   -2.6391   -4.6661 C.ar      1 <0>         0.0481
     21 C14         3.3246   -3.4947   -4.9042 C.ar      1 <0>        -0.0970
     22 C15         2.9145   -3.7437   -6.1970 C.ar      1 <0>        -0.1008
     23 C16         3.5692   -3.1461   -7.2644 C.ar      1 <0>         0.0171
     24 C17         4.6457   -2.2904   -7.0328 C.ar      1 <0>         0.0310
     25 C18         5.0570   -2.0329   -5.7383 C.ar      1 <0>        -0.0558
     26 O5          5.1097   -1.8387   -8.2348 O.3       1 <0>        -0.3120
     27 C19         4.5720   -2.7424   -9.2183 C.3       1 <0>         0.2142
     28 O6          3.3607   -3.2286   -8.6108 O.3       1 <0>        -0.3154
     29 H2          0.6878   -0.5561   -6.1481 H         1 <0>         0.0592
     30 H3         -0.8265   -0.0421   -5.3666 H         1 <0>         0.0498
     31 H4         -0.1423    0.9186   -6.6998 H         1 <0>         0.0568
     32 H5          1.8203    1.4763   -5.2907 H         1 <0>         0.0717
     33 H6          0.3060    1.9904   -4.5091 H         1 <0>         0.0759
     34 H7          3.2243   -0.1143   -4.2712 H         1 <0>         0.1328
     35 H8         -0.1811   -0.8815   -0.7761 H         1 <0>         0.1331
     36 H9         -1.6017    0.0778   -3.2273 H         1 <0>         0.3862
     37 H10         2.4085   -1.5476    0.4445 H         1 <0>         0.3908
     38 H11         2.8129   -3.9620   -4.0759 H         1 <0>         0.1304
     39 H12         2.0814   -4.4064   -6.3792 H         1 <0>         0.1288
     40 H13         5.8874   -1.3665   -5.5573 H         1 <0>         0.1285
     41 H14         4.3499   -2.2123  -10.1445 H         1 <0>         0.1242
     42 H15         5.2644   -3.5638   -9.4027 H         1 <0>         0.0792
@<TRIPOS>BOND
     1    1    2 1
     2    1   29 1
     3    1   30 1
     4    1   31 1
     5    2    3 1
     6    2   32 1
     7    2   33 1
     8    3    8 ar
     9    3    4 ar
    10    4    5 ar
    11    4   34 1
    12    5    6 ar
    13    5   11 1
    14    6    7 ar
    15    6   10 1
    16    7    8 ar
    17    7   35 1
    18    8    9 1
    19    9   36 1
    20   10   37 1
    21   11   16 2
    22   11   12 1
    23   12   13 2
    24   12   20 1
    25   13   14 1
    26   13   17 1
    27   14   15 1
    28   14   16 1
    29   17   18 2
    30   17   19 1
    31   20   25 ar
    32   20   21 ar
    33   21   22 ar
    34   21   38 1
    35   22   23 ar
    36   22   39 1
    37   23   28 1
    38   23   24 ar
    39   24   25 ar
    40   24   26 1
    41   25   40 1
    42   26   27 1
    43   27   28 1
    44   27   41 1
    45   27   42 1
@<TRIPOS>MOLECULE
ZINC00781553
   51    54     0     0     0
SMALL
USER_CHARGES

@<TRIPOS>ATOM
      1 C1          3.3370   -3.0110   12.3378 C.3       1 <0>        -0.1475
      2 C2          3.3375   -4.2119   11.3899 C.3       1 <0>        -0.0955
      3 C3          3.2946   -3.7263    9.9639 C.ar      1 <0>        -0.0187
      4 C4          2.0783   -3.5209    9.3399 C.ar      1 <0>        -0.1372
      5 C5          2.0390   -3.0754    8.0319 C.ar      1 <0>        -0.0132
      6 C6          3.2160   -2.8349    7.3480 C.ar      1 <0>        -0.6809
      7 C7          4.4323   -3.0394    7.9722 C.ar      1 <0>        -0.0141
      8 C8          4.4716   -3.4808    9.2816 C.ar      1 <0>        -0.1390
      9 S1          3.1658   -2.2682    5.6804 S.o2      1 <0>         2.6875
     10 O1          4.3511   -2.7409    5.0550 O.2       1 <0>        -0.9515
     11 O2          1.8694   -2.5749    5.1860 O.2       1 <0>        -0.9469
     12 N1          3.2785   -0.6166    5.7209 N.pl3     1 <0>        -1.0619
     13 C9          2.2508    0.1410    6.2940 C.ar      1 <0>         0.1158
     14 C10         1.0537    0.3166    5.6099 C.ar      1 <0>        -0.0825
     15 C11         0.0348    1.0634    6.1699 C.ar      1 <0>        -0.1346
     16 C12         0.2005    1.6414    7.4174 C.ar      1 <0>         0.1290
     17 C13         1.4026    1.4685    8.1120 C.ar      1 <0>        -0.0559
     18 C14         2.4261    0.7103    7.5453 C.ar      1 <0>        -0.0729
     19 C15         1.5851    2.0841    9.4458 C.ar      1 <0>        -0.0657
     20 C16         1.2301    1.3730   10.6166 C.ar      1 <0>        -0.0209
     21 C17         0.7006    0.0761   10.5467 C.ar      1 <0>        -0.1092
     22 C18         0.3698   -0.5803   11.6934 C.ar      1 <0>        -0.1059
     23 C19         0.5498    0.0183   12.9385 C.ar      1 <0>        -0.1186
     24 C20         1.0608    1.2757   13.0437 C.ar      1 <0>        -0.0984
     25 C21         1.4138    1.9829   11.8814 C.ar      1 <0>        -0.0602
     26 C22         1.9455    3.2827   11.9553 C.ar      1 <0>        -0.0835
     27 C23         2.2806    3.9498   10.8177 C.ar      1 <0>        -0.1390
     28 C24         2.1119    3.3636    9.5624 C.ar      1 <0>         0.1356
     29 O3          2.4615    4.0524    8.4449 O.3       1 <0>        -0.4928
     30 O4         -0.8033    2.3761    7.9661 O.3       1 <0>        -0.4918
     31 H1          2.4318   -2.4245   12.1808 H         1 <0>         0.0606
     32 H2          3.3680   -3.3622   13.3692 H         1 <0>         0.0622
     33 H3          4.2109   -2.3907   12.1388 H         1 <0>         0.0562
     34 H4          4.2427   -4.7984   11.5469 H         1 <0>         0.0777
     35 H5          2.4636   -4.8322   11.5889 H         1 <0>         0.0782
     36 H6          1.1588   -3.7088    9.8743 H         1 <0>         0.1315
     37 H7          1.0887   -2.9156    7.5442 H         1 <0>         0.1396
     38 H8          5.3518   -2.8519    7.4378 H         1 <0>         0.1385
     39 H9          5.4218   -3.6370    9.7706 H         1 <0>         0.1323
     40 H10         4.0567   -0.1742    5.3474 H         1 <0>         0.4273
     41 H11         0.9195   -0.1322    4.6367 H         1 <0>         0.1419
     42 H12        -0.8929    1.1969    5.6332 H         1 <0>         0.1405
     43 H13         3.3548    0.5702    8.0784 H         1 <0>         0.1325
     44 H14         0.5555   -0.3998    9.5881 H         1 <0>         0.1229
     45 H15        -0.0380   -1.5787   11.6367 H         1 <0>         0.1226
     46 H16         0.2798   -0.5229   13.8332 H         1 <0>         0.1240
     47 H17         1.1945    1.7275   14.0155 H         1 <0>         0.1286
     48 H18         2.0878    3.7527   12.9172 H         1 <0>         0.1332
     49 H19         2.6877    4.9477   10.8875 H         1 <0>         0.1330
     50 H20         1.7484    4.5912    8.0758 H         1 <0>         0.3938
     51 H21        -1.4186    1.8606    8.5053 H         1 <0>         0.3931
@<TRIPOS>BOND
     1    1    2 1
     2    1   31 1
     3    1   32 1
     4    1   33 1
     5    2    3 1
     6    2   34 1
     7    2   35 1
     8    3    8 ar
     9    3    4 ar
    10    4    5 ar
    11    4   36 1
    12    5    6 ar
    13    5   37 1
    14    6    7 ar
    15    6    9 1
    16    7    8 ar
    17    7   38 1
    18    8   39 1
    19    9   10 2
    20    9   11 2
    21    9   12 1
    22   12   13 1
    23   12   40 1
    24   13   18 ar
    25   13   14 ar
    26   14   15 ar
    27   14   41 1
    28   15   16 ar
    29   15   42 1
    30   16   17 ar
    31   16   30 1
    32   17   18 ar
    33   17   19 1
    34   18   43 1
    35   19   28 ar
    36   19   20 ar
    37   20   25 ar
    38   20   21 ar
    39   21   22 ar
    40   21   44 1
    41   22   23 ar
    42   22   45 1
    43   23   24 ar
    44   23   46 1
    45   24   25 ar
    46   24   47 1
    47   25   26 ar
    48   26   27 ar
    49   26   48 1
    50   27   28 ar
    51   27   49 1
    52   28   29 1
    53   29   50 1
    54   30   51 1
@<TRIPOS>MOLECULE
ZINC13679213
   50    53     0     0     0
SMALL
USER_CHARGES
8-[(6-iodo-1,3-benzodioxol-5-yl)sulfanyl]-9-[3-(isopropylamino)propyl]purin-6-amine
@<TRIPOS>ATOM
      1 C1          5.9387   -6.5240    7.9117 C.3       1 <0>        -0.1843
      2 C2          4.6097   -7.2814    7.8791 C.3       1 <0>         0.0274
      3 C3          4.1127   -7.5011    9.3094 C.3       1 <0>        -0.1861
      4 C4          3.7255   -6.7518    5.6882 C.3       1 <0>        -0.0009
      5 C5          2.6789   -5.9199    4.9442 C.3       1 <0>        -0.1730
      6 C6          2.7912   -6.1845    3.4415 C.3       1 <0>         0.1165
      7 N1          1.7890   -5.3880    2.7291 N.pl3     1 <0>        -0.4586
      8 C7          0.5040   -5.7762    2.4278 C.ar      1 <0>         0.3029
      9 C8         -0.0789   -4.6990    1.7401 C.ar      1 <0>        -0.0580
     10 C9         -1.4074   -4.8311    1.3047 C.ar      1 <0>         0.4555
     11 N2         -2.0491   -5.9662    1.5630 N.ar      1 <0>        -0.5694
     12 C10        -1.4591   -6.9521    2.2133 C.ar      1 <0>         0.3556
     13 N3         -0.2158   -6.8721    2.6404 N.ar      1 <0>        -0.5444
     14 N4         -2.0351   -3.8017    0.6218 N.pl3     1 <0>        -0.7408
     15 N5          0.8556   -3.7193    1.6585 N.2       1 <0>        -0.4246
     16 C11         1.9580   -4.1197    2.2430 C.2       1 <0>         0.2344
     17 S1          3.4371   -3.1714    2.3762 S.3       1 <0>         0.1284
     18 C12         2.9875   -1.7662    1.4130 C.ar      1 <0>        -0.1120
     19 C13         2.6408   -0.5764    2.0399 C.ar      1 <0>        -0.0338
     20 C14         2.2880    0.5275    1.2824 C.ar      1 <0>         0.0431
     21 C15         2.2815    0.4425   -0.1082 C.ar      1 <0>         0.0863
     22 C16         2.6283   -0.7456   -0.7302 C.ar      1 <0>        -0.0787
     23 C17         2.9801   -1.8479    0.0264 C.ar      1 <0>        -0.0291
     24 I1          3.5030   -3.6428   -0.9191 I         1 <0>         0.0073
     25 O1          1.9020    1.6522   -0.6170 O.3       1 <0>        -0.2960
     26 C18         2.0725    2.5926    0.4600 C.3       1 <0>         0.2108
     27 O2          1.9127    1.7893    1.6442 O.3       1 <0>        -0.2993
     28 H1          5.7953   -5.5595    8.3987 H         1 <0>         0.0825
     29 H2          6.6748   -7.1055    8.4668 H         1 <0>         0.1069
     30 H3          6.2927   -6.3675    6.8927 H         1 <0>         0.0809
     31 H4          4.7530   -8.2460    7.3921 H         1 <0>         0.1394
     32 H5          3.1659   -8.0407    9.2862 H         1 <0>         0.0821
     33 H6          4.8488   -8.0826    9.8645 H         1 <0>         0.1075
     34 H7          3.9694   -6.5366    9.7964 H         1 <0>         0.0819
     35 H8          3.5549   -7.8103    5.4919 H         1 <0>         0.1375
     36 H9          4.7218   -6.4744    5.3439 H         1 <0>         0.1369
     37 H10         2.8495   -4.8614    5.1405 H         1 <0>         0.0975
     38 H11         1.6826   -6.1973    5.2885 H         1 <0>         0.0984
     39 H12         2.6206   -7.2430    3.2452 H         1 <0>         0.1135
     40 H13         3.7875   -5.9071    3.0972 H         1 <0>         0.1086
     41 H14        -2.0167   -7.8575    2.4023 H         1 <0>         0.2092
     42 H15        -2.0571   -2.9844    1.1976 H         1 <0>         0.3711
     43 H16        -2.9532   -3.9048    0.3261 H         1 <0>         0.3781
     44 H17         2.6468   -0.5121    3.1180 H         1 <0>         0.1524
     45 H18         2.6232   -0.8112   -1.8082 H         1 <0>         0.1522
     46 H19         1.3070    3.3674    0.4166 H         1 <0>         0.1428
     47 H20         3.0683    3.0345    0.4285 H         1 <0>         0.0955
     48 N6          3.6106   -6.4910    7.1355 N.4       1 <0>        -0.5187
     49 H21         3.7685   -5.4922    7.3132 H         1 <0>         0.4315
     50 H22         2.6692   -6.7505    7.4527 H         1 <0>         0.4327
@<TRIPOS>BOND
     1    1    2 1
     2    1   28 1
     3    1   29 1
     4    1   30 1
     5    2    3 1
     6    2   31 1
     7    2   48 1
     8    3   32 1
     9    3   33 1
    10    3   34 1
    11    4    5 1
    12    4   35 1
    13    4   36 1
    14    4   48 1
    15    5    6 1
    16    5   37 1
    17    5   38 1
    18    6    7 1
    19    6   39 1
    20    6   40 1
    21    7   16 1
    22    7    8 1
    23    8   13 ar
    24    8    9 ar
    25    9   10 ar
    26    9   15 1
    27   10   11 ar
    28   10   14 1
    29   11   12 ar
    30   12   13 ar
    31   12   41 1
    32   14   42 1
    33   14   43 1
    34   15   16 2
    35   16   17 1
    36   17   18 1
    37   18   23 ar
    38   18   19 ar
    39   19   20 ar
    40   19   44 1
    41   20   27 1
    42   20   21 ar
    43   21   22 ar
    44   21   25 1
    45   22   23 ar
    46   22   45 1
    47   23   24 1
    48   25   26 1
    49   26   27 1
    50   26   46 1
    51   26   47 1
    52   48   49 1
    53   48   50 1
@<TRIPOS>MOLECULE
ZINC08871904
   45    48     0     0     0
SMALL
USER_CHARGES

@<TRIPOS>ATOM
      1 C1          0.0290    1.7446   -0.1264 C.ar      1 <0>        -0.1193
      2 C2          1.2509    2.4138   -0.1117 C.ar      1 <0>        -0.1060
      3 C3          2.4261    1.7254   -0.1037 C.ar      1 <0>        -0.1128
      4 C4          2.4097    0.3229   -0.1098 C.ar      1 <0>        -0.0217
      5 C5          1.1683   -0.3591   -0.1242 C.ar      1 <0>        -0.0612
      6 C6         -0.0246    0.3844   -0.1326 C.ar      1 <0>        -0.0986
      7 C7          1.1481   -1.7648   -0.1294 C.ar      1 <0>        -0.0824
      8 C8          2.3149   -2.4654   -0.1201 C.ar      1 <0>        -0.1395
      9 C9          3.5475   -1.8118   -0.1054 C.ar      1 <0>         0.1363
     10 C10         3.6110   -0.4243   -0.1013 C.ar      1 <0>        -0.0673
     11 C11         4.9210    0.2649   -0.0866 C.ar      1 <0>        -0.0428
     12 C12         5.5317    0.5812    1.1261 C.ar      1 <0>        -0.0898
     13 C13         6.7584    1.2260    1.1329 C.ar      1 <0>         0.1341
     14 C14         7.3784    1.5572   -0.0661 C.ar      1 <0>        -0.1322
     15 C15         6.7765    1.2461   -1.2705 C.ar      1 <0>        -0.1193
     16 C16         5.5536    0.5962   -1.2897 C.ar      1 <0>         0.1138
     17 O1          4.9663    0.2856   -2.4758 O.3       1 <0>        -0.4915
     18 N1          7.3734    1.5446    2.3489 N.pl3     1 <0>        -1.0544
     19 S1          8.9816    1.2196    2.5735 S.o2      1 <0>         2.6912
     20 O2          9.6706    1.7999    1.4745 O.2       1 <0>        -0.9427
     21 O3          9.2792    1.5546    3.9220 O.2       1 <0>        -0.9443
     22 C17         9.1854   -0.5248    2.4312 C.ar      1 <0>        -0.6661
     23 C18         8.9670   -1.3377    3.5278 C.ar      1 <0>        -0.0100
     24 C19         9.1262   -2.7062    3.4165 C.ar      1 <0>        -0.1116
     25 C20         9.5042   -3.2623    2.2077 C.ar      1 <0>        -0.0333
     26 C21         9.7227   -2.4484    1.1107 C.ar      1 <0>        -0.1099
     27 C22         9.5581   -1.0806    1.2215 C.ar      1 <0>        -0.0075
     28 Br1         9.7229   -5.1344    2.0550 Br        1 <0>        -0.0305
     29 O4          4.6951   -2.5386   -0.0960 O.3       1 <0>        -0.4921
     30 H1         -0.8892    2.3133   -0.1283 H         1 <0>         0.1252
     31 H2          1.2664    3.4937   -0.1070 H         1 <0>         0.1248
     32 H3          3.3662    2.2570   -0.0931 H         1 <0>         0.1248
     33 H4         -0.9790   -0.1210   -0.1436 H         1 <0>         0.1295
     34 H5          0.2044   -2.2900   -0.1404 H         1 <0>         0.1335
     35 H6          2.2862   -3.5450   -0.1238 H         1 <0>         0.1330
     36 H7          5.0499    0.3246    2.0580 H         1 <0>         0.1336
     37 H8          8.3342    2.0601   -0.0565 H         1 <0>         0.1618
     38 H9          7.2628    1.5066   -2.1990 H         1 <0>         0.1410
     39 H10         4.3850    0.9775   -2.8200 H         1 <0>         0.3916
     40 H11         6.8578    1.9558    3.0602 H         1 <0>         0.4294
     41 H12         8.6722   -0.9035    4.4717 H         1 <0>         0.1488
     42 H13         8.9559   -3.3412    4.2734 H         1 <0>         0.1452
     43 H14        10.0178   -2.8822    0.1667 H         1 <0>         0.1452
     44 H15         9.7246   -0.4455    0.3640 H         1 <0>         0.1510
     45 H16         5.0364   -2.7462   -0.9766 H         1 <0>         0.3931
@<TRIPOS>BOND
     1    1    6 ar
     2    1    2 ar
     3    1   30 1
     4    2    3 ar
     5    2   31 1
     6    3    4 ar
     7    3   32 1
     8    4   10 ar
     9    4    5 ar
    10    5    6 ar
    11    5    7 ar
    12    6   33 1
    13    7    8 ar
    14    7   34 1
    15    8    9 ar
    16    8   35 1
    17    9   10 ar
    18    9   29 1
    19   10   11 1
    20   11   16 ar
    21   11   12 ar
    22   12   13 ar
    23   12   36 1
    24   13   14 ar
    25   13   18 1
    26   14   15 ar
    27   14   37 1
    28   15   16 ar
    29   15   38 1
    30   16   17 1
    31   17   39 1
    32   18   19 1
    33   18   40 1
    34   19   20 2
    35   19   21 2
    36   19   22 1
    37   22   27 ar
    38   22   23 ar
    39   23   24 ar
    40   23   41 1
    41   24   25 ar
    42   24   42 1
    43   25   26 ar
    44   25   28 1
    45   26   27 ar
    46   26   43 1
    47   27   44 1
    48   29   45 1
@<TRIPOS>MOLECULE
ZINC00793392
   41    44     0     0     0
SMALL
USER_CHARGES

@<TRIPOS>ATOM
      1 C1         -0.0164    1.3570    0.0095 C.ar      1 <0>        -0.1190
      2 C2          1.1684    2.0900    0.0021 C.ar      1 <0>        -0.1230
      3 C3          2.3784    1.4649   -0.0133 C.ar      1 <0>        -0.0915
      4 C4          2.4363    0.0635   -0.0213 C.ar      1 <0>        -0.0281
      5 C5          1.2327   -0.6833   -0.0134 C.ar      1 <0>        -0.0583
      6 C6          0.0021   -0.0041    0.0020 C.ar      1 <0>        -0.1105
      7 C7          1.2868   -2.0881   -0.0205 C.ar      1 <0>        -0.1047
      8 C8          2.4891   -2.7259   -0.0345 C.ar      1 <0>        -0.1311
      9 C9          3.6854   -2.0079   -0.0421 C.ar      1 <0>         0.1169
     10 C10         3.6754   -0.6190   -0.0368 C.ar      1 <0>        -0.0269
     11 C11         4.9470    0.1387   -0.0459 C.ar      1 <0>        -0.0303
     12 C12         5.5631    0.4861    1.1556 C.ar      1 <0>        -0.1411
     13 C13         6.7538    1.1951    1.1402 C.ar      1 <0>         0.2782
     14 C14         7.3325    1.5595   -0.0698 C.ar      1 <0>        -0.2470
     15 C15         6.7251    1.2176   -1.2630 C.ar      1 <0>        -0.0819
     16 C16         5.5383    0.5038   -1.2602 C.ar      1 <0>         0.0011
     17 O1          4.9458    0.1633   -2.4355 O.3       1 <0>        -0.4964
     18 N1          7.3741    1.5450    2.3449 N.2       1 <0>        -1.0843
     19 S1          8.7969    2.3922    2.3280 S.o2      1 <0>         2.6314
     20 O2          9.7740    1.5336    1.7559 O.2       1 <0>        -1.0201
     21 O3          8.5002    3.6736    1.7902 O.2       1 <0>        -1.0217
     22 C17         9.2711    2.6476    4.0056 C.2       1 <0>        -0.6676
     23 C18        10.0439    1.8693    4.8022 C.2       1 <0>        -0.0449
     24 C19        10.2868    2.2731    6.1017 C.2       1 <0>        -0.1802
     25 C20         9.7450    3.4353    6.5410 C.2       1 <0>        -0.1688
     26 S2          8.8649    4.0024    5.0950 S.3       1 <0>         0.1393
     27 O4          4.8699   -2.6728   -0.0556 O.3       1 <0>        -0.4883
     28 H1         -0.9632    1.8762    0.0259 H         1 <0>         0.1187
     29 H2          1.1268    3.1692    0.0083 H         1 <0>         0.1213
     30 H3          3.2891    2.0456   -0.0196 H         1 <0>         0.1319
     31 H4         -0.9242   -0.5594    0.0082 H         1 <0>         0.1230
     32 H5          0.3723   -2.6626   -0.0145 H         1 <0>         0.1265
     33 H6          2.5176   -3.8055   -0.0395 H         1 <0>         0.1268
     34 H7          5.1133    0.2038    2.0960 H         1 <0>         0.1173
     35 H8          8.2603    2.1122   -0.0775 H         1 <0>         0.1019
     36 H9          7.1792    1.5041   -2.2001 H         1 <0>         0.1118
     37 H10         4.3222    0.8236   -2.7674 H         1 <0>         0.3628
     38 H11        10.4633    0.9474    4.4272 H         1 <0>         0.1432
     39 H12        10.8988    1.6713    6.7572 H         1 <0>         0.1366
     40 H13         9.8277    3.8998    7.5126 H         1 <0>         0.1884
     41 H14         5.2050   -2.8615   -0.9429 H         1 <0>         0.3889
@<TRIPOS>BOND
     1    1    6 ar
     2    1    2 ar
     3    1   28 1
     4    2    3 ar
     5    2   29 1
     6    3    4 ar
     7    3   30 1
     8    4   10 ar
     9    4    5 ar
    10    5    6 ar
    11    5    7 ar
    12    6   31 1
    13    7    8 ar
    14    7   32 1
    15    8    9 ar
    16    8   33 1
    17    9   10 ar
    18    9   27 1
    19   10   11 1
    20   11   16 ar
    21   11   12 ar
    22   12   13 ar
    23   12   34 1
    24   13   14 ar
    25   13   18 1
    26   14   15 ar
    27   14   35 1
    28   15   16 ar
    29   15   36 1
    30   16   17 1
    31   17   37 1
    32   18   19 1
    33   19   20 2
    34   19   21 2
    35   19   22 1
    36   22   26 1
    37   22   23 2
    38   23   24 1
    39   23   38 1
    40   24   25 2
    41   24   39 1
    42   25   26 1
    43   25   40 1
    44   27   41 1
@<TRIPOS>MOLECULE
ZINC02485286
   45    48     0     0     0
SMALL
USER_CHARGES

@<TRIPOS>ATOM
      1 C1          0.0289    1.7446   -0.1264 C.ar      1 <0>        -0.1193
      2 C2          1.2509    2.4138   -0.1117 C.ar      1 <0>        -0.1060
      3 C3          2.4261    1.7254   -0.1037 C.ar      1 <0>        -0.1127
      4 C4          2.4097    0.3229   -0.1097 C.ar      1 <0>        -0.0217
      5 C5          1.1683   -0.3591   -0.1242 C.ar      1 <0>        -0.0612
      6 C6         -0.0246    0.3844   -0.1326 C.ar      1 <0>        -0.0986
      7 C7          1.1481   -1.7648   -0.1294 C.ar      1 <0>        -0.0825
      8 C8          2.3149   -2.4654   -0.1201 C.ar      1 <0>        -0.1395
      9 C9          3.5475   -1.8118   -0.1054 C.ar      1 <0>         0.1362
     10 C10         3.6110   -0.4243   -0.1013 C.ar      1 <0>        -0.0672
     11 C11         4.9210    0.2649   -0.0866 C.ar      1 <0>        -0.0429
     12 C12         5.5317    0.5812    1.1261 C.ar      1 <0>        -0.0899
     13 C13         6.7584    1.2260    1.1329 C.ar      1 <0>         0.1346
     14 C14         7.3784    1.5572   -0.0661 C.ar      1 <0>        -0.1323
     15 C15         6.7765    1.2461   -1.2705 C.ar      1 <0>        -0.1193
     16 C16         5.5536    0.5962   -1.2897 C.ar      1 <0>         0.1136
     17 O1          4.9663    0.2856   -2.4758 O.3       1 <0>        -0.4916
     18 N1          7.3734    1.5446    2.3489 N.pl3     1 <0>        -1.0548
     19 S1          8.9816    1.2196    2.5735 S.o2      1 <0>         2.6921
     20 O2          9.6706    1.7999    1.4745 O.2       1 <0>        -0.9436
     21 O3          9.2792    1.5546    3.9220 O.2       1 <0>        -0.9450
     22 C17         9.1854   -0.5248    2.4312 C.ar      1 <0>        -0.6767
     23 C18         8.9670   -1.3377    3.5278 C.ar      1 <0>        -0.0035
     24 C19         9.1267   -2.7061    3.4169 C.ar      1 <0>        -0.1310
     25 C20         9.5051   -3.2623    2.2079 C.ar      1 <0>         0.0231
     26 C21         9.7235   -2.4482    1.1107 C.ar      1 <0>        -0.1294
     27 C22         9.5581   -1.0805    1.2215 C.ar      1 <0>        -0.0010
     28 Cl1         9.7064   -4.9809    2.0679 Cl        1 <0>        -0.0506
     29 O4          4.6951   -2.5386   -0.0960 O.3       1 <0>        -0.4923
     30 H1         -0.8892    2.3133   -0.1283 H         1 <0>         0.1252
     31 H2          1.2664    3.4937   -0.1070 H         1 <0>         0.1248
     32 H3          3.3662    2.2570   -0.0931 H         1 <0>         0.1249
     33 H4         -0.9790   -0.1210   -0.1436 H         1 <0>         0.1295
     34 H5          0.2044   -2.2900   -0.1404 H         1 <0>         0.1335
     35 H6          2.2862   -3.5450   -0.1238 H         1 <0>         0.1329
     36 H7          5.0499    0.3246    2.0580 H         1 <0>         0.1336
     37 H8          8.3342    2.0601   -0.0565 H         1 <0>         0.1618
     38 H9          7.2627    1.5066   -2.1990 H         1 <0>         0.1410
     39 H10         4.3850    0.9775   -2.8200 H         1 <0>         0.3916
     40 H11         6.8578    1.9558    3.0602 H         1 <0>         0.4292
     41 H12         8.6719   -0.9033    4.4716 H         1 <0>         0.1490
     42 H13         8.9564   -3.3410    4.2738 H         1 <0>         0.1459
     43 H14        10.0193   -2.8818    0.1669 H         1 <0>         0.1459
     44 H15         9.7239   -0.4454    0.3639 H         1 <0>         0.1512
     45 H16         5.0364   -2.7462   -0.9766 H         1 <0>         0.3931
@<TRIPOS>BOND
     1    1    6 ar
     2    1    2 ar
     3    1   30 1
     4    2    3 ar
     5    2   31 1
     6    3    4 ar
     7    3   32 1
     8    4   10 ar
     9    4    5 ar
    10    5    6 ar
    11    5    7 ar
    12    6   33 1
    13    7    8 ar
    14    7   34 1
    15    8    9 ar
    16    8   35 1
    17    9   10 ar
    18    9   29 1
    19   10   11 1
    20   11   16 ar
    21   11   12 ar
    22   12   13 ar
    23   12   36 1
    24   13   14 ar
    25   13   18 1
    26   14   15 ar
    27   14   37 1
    28   15   16 ar
    29   15   38 1
    30   16   17 1
    31   17   39 1
    32   18   19 1
    33   18   40 1
    34   19   20 2
    35   19   21 2
    36   19   22 1
    37   22   27 ar
    38   22   23 ar
    39   23   24 ar
    40   23   41 1
    41   24   25 ar
    42   24   42 1
    43   25   26 ar
    44   25   28 1
    45   26   27 ar
    46   26   43 1
    47   27   44 1
    48   29   45 1
@<TRIPOS>MOLECULE
ZINC00781556
   45    48     0     0     0
SMALL
USER_CHARGES

@<TRIPOS>ATOM
      1 C1          0.0289    1.7446   -0.1263 C.ar      1 <0>        -0.1193
      2 C2          1.2509    2.4138   -0.1117 C.ar      1 <0>        -0.1060
      3 C3          2.4261    1.7254   -0.1037 C.ar      1 <0>        -0.1127
      4 C4          2.4097    0.3229   -0.1097 C.ar      1 <0>        -0.0218
      5 C5          1.1683   -0.3591   -0.1242 C.ar      1 <0>        -0.0611
      6 C6         -0.0246    0.3844   -0.1326 C.ar      1 <0>        -0.0987
      7 C7          1.1481   -1.7648   -0.1293 C.ar      1 <0>        -0.0825
      8 C8          2.3149   -2.4654   -0.1201 C.ar      1 <0>        -0.1396
      9 C9          3.5475   -1.8118   -0.1054 C.ar      1 <0>         0.1358
     10 C10         3.6110   -0.4243   -0.1013 C.ar      1 <0>        -0.0669
     11 C11         4.9210    0.2649   -0.0866 C.ar      1 <0>        -0.0432
     12 C12         5.5317    0.5812    1.1261 C.ar      1 <0>        -0.0902
     13 C13         6.7583    1.2260    1.1329 C.ar      1 <0>         0.1350
     14 C14         7.3784    1.5573   -0.0661 C.ar      1 <0>        -0.1324
     15 C15         6.7765    1.2461   -1.2705 C.ar      1 <0>        -0.1193
     16 C16         5.5536    0.5962   -1.2897 C.ar      1 <0>         0.1133
     17 O1          4.9663    0.2856   -2.4758 O.3       1 <0>        -0.4917
     18 N1          7.3734    1.5446    2.3489 N.pl3     1 <0>        -1.0552
     19 S1          8.9816    1.2196    2.5735 S.o2      1 <0>         2.6938
     20 O2          9.6706    1.7999    1.4745 O.2       1 <0>        -0.9443
     21 O3          9.2792    1.5546    3.9220 O.2       1 <0>        -0.9457
     22 C17         9.1854   -0.5248    2.4312 C.ar      1 <0>        -0.6921
     23 C18         8.9669   -1.3375    3.5280 C.ar      1 <0>         0.0132
     24 C19         9.1259   -2.7058    3.4175 C.ar      1 <0>        -0.1741
     25 C20         9.5043   -3.2627    2.2076 C.ar      1 <0>         0.1631
     26 C21         9.7229   -2.4478    1.1098 C.ar      1 <0>        -0.1726
     27 C22         9.5581   -1.0802    1.2213 C.ar      1 <0>         0.0155
     28 F1          9.6605   -4.6002    2.0986 F         1 <0>        -0.1269
     29 O4          4.6951   -2.5386   -0.0960 O.3       1 <0>        -0.4927
     30 H1         -0.8892    2.3133   -0.1283 H         1 <0>         0.1252
     31 H2          1.2664    3.4937   -0.1070 H         1 <0>         0.1249
     32 H3          3.3662    2.2570   -0.0930 H         1 <0>         0.1249
     33 H4         -0.9790   -0.1210   -0.1436 H         1 <0>         0.1295
     34 H5          0.2044   -2.2900   -0.1403 H         1 <0>         0.1336
     35 H6          2.2862   -3.5450   -0.1238 H         1 <0>         0.1329
     36 H7          5.0499    0.3246    2.0580 H         1 <0>         0.1337
     37 H8          8.3341    2.0601   -0.0565 H         1 <0>         0.1620
     38 H9          7.2627    1.5066   -2.1989 H         1 <0>         0.1409
     39 H10         4.3850    0.9775   -2.8200 H         1 <0>         0.3916
     40 H11         6.8578    1.9558    3.0602 H         1 <0>         0.4291
     41 H12         8.6721   -0.9028    4.4717 H         1 <0>         0.1497
     42 H13         8.9555   -3.3404    4.2746 H         1 <0>         0.1481
     43 H14        10.0183   -2.8811    0.1657 H         1 <0>         0.1482
     44 H15         9.7242   -0.4448    0.3640 H         1 <0>         0.1519
     45 H16         5.0364   -2.7462   -0.9766 H         1 <0>         0.3932
@<TRIPOS>BOND
     1    1    6 ar
     2    1    2 ar
     3    1   30 1
     4    2    3 ar
     5    2   31 1
     6    3    4 ar
     7    3   32 1
     8    4   10 ar
     9    4    5 ar
    10    5    6 ar
    11    5    7 ar
    12    6   33 1
    13    7    8 ar
    14    7   34 1
    15    8    9 ar
    16    8   35 1
    17    9   10 ar
    18    9   29 1
    19   10   11 1
    20   11   16 ar
    21   11   12 ar
    22   12   13 ar
    23   12   36 1
    24   13   14 ar
    25   13   18 1
    26   14   15 ar
    27   14   37 1
    28   15   16 ar
    29   15   38 1
    30   16   17 1
    31   17   39 1
    32   18   19 1
    33   18   40 1
    34   19   20 2
    35   19   21 2
    36   19   22 1
    37   22   27 ar
    38   22   23 ar
    39   23   24 ar
    40   23   41 1
    41   24   25 ar
    42   24   42 1
    43   25   26 ar
    44   25   28 1
    45   26   27 ar
    46   26   43 1
    47   27   44 1
    48   29   45 1
@<TRIPOS>MOLECULE
ZINC14974852
   44    46     0     0     0
SMALL
USER_CHARGES

@<TRIPOS>ATOM
      1 C1         -0.6077    1.4854    0.3909 C.3       1 <0>        -0.1677
      2 C2         -0.4578   -0.0344    0.2982 C.3       1 <0>         0.1136
      3 N1          0.3674   -0.5125    1.4103 N.am      1 <0>        -0.7136
      4 C3          0.6358   -1.8275    1.5336 C.2       1 <0>         0.5900
      5 O1          0.1933   -2.6165    0.7224 O.2       1 <0>        -0.4939
      6 C4          1.4706   -2.3110    2.6585 C.2       1 <0>         0.0779
      7 C5          1.8526   -3.7004    2.9227 C.2       1 <0>        -0.1442
      8 C6          2.6298   -3.6864    4.0686 C.2       1 <0>         0.1261
      9 O2          2.7268   -2.4116    4.4845 O.3       1 <0>        -0.0367
     10 N2          2.0098   -1.5744    3.6000 N.2       1 <0>        -0.2766
     11 C7          3.2412   -4.8599    4.7172 C.ar      1 <0>        -0.0690
     12 C8          3.9443   -5.7965    3.9539 C.ar      1 <0>        -0.0349
     13 C9          4.5144   -6.8925    4.5644 C.ar      1 <0>        -0.0752
     14 C10         4.3927   -7.0702    5.9389 C.ar      1 <0>         0.1616
     15 C11         3.6970   -6.1461    6.7043 C.ar      1 <0>        -0.1633
     16 C12         3.1250   -5.0384    6.1032 C.ar      1 <0>         0.1690
     17 O3          2.4488   -4.1300    6.8525 O.3       1 <0>        -0.4818
     18 O4          4.9570   -8.1533    6.5336 O.3       1 <0>        -0.4815
     19 Cl1         5.3868   -8.0552    3.6155 Cl        1 <0>        -0.0386
     20 C13         1.4804   -4.8882    2.1206 C.ar      1 <0>        -0.0600
     21 C14         0.6267   -5.8534    2.6553 C.ar      1 <0>        -0.0557
     22 C15         0.2822   -6.9582    1.9055 C.ar      1 <0>        -0.1504
     23 C16         0.7839   -7.1106    0.6199 C.ar      1 <0>         0.1394
     24 C17         1.6340   -6.1524    0.0847 C.ar      1 <0>        -0.2047
     25 C18         1.9779   -5.0419    0.8263 C.ar      1 <0>        -0.0388
     26 O5          0.4422   -8.2008   -0.1161 O.3       1 <0>        -0.3160
     27 C19         0.9941   -8.2947   -1.4309 C.3       1 <0>         0.0259
     28 H1          0.3764    1.9513    0.3395 H         1 <0>         0.0643
     29 H2         -1.2217    1.8411   -0.4365 H         1 <0>         0.0794
     30 H3         -1.0845    1.7466    1.3356 H         1 <0>         0.0644
     31 H4         -1.4419   -0.5003    0.3495 H         1 <0>         0.0745
     32 H5          0.0190   -0.2956   -0.6465 H         1 <0>         0.0743
     33 H6          0.7207    0.1174    2.0578 H         1 <0>         0.4085
     34 H7          4.0402   -5.6615    2.8867 H         1 <0>         0.1499
     35 H8          3.6051   -6.2889    7.7708 H         1 <0>         0.1555
     36 H9          1.5060   -4.3227    6.9482 H         1 <0>         0.4008
     37 H10         5.8659   -8.0097    6.8310 H         1 <0>         0.4020
     38 H11         0.2364   -5.7356    3.6554 H         1 <0>         0.1252
     39 H12        -0.3783   -7.7060    2.3189 H         1 <0>         0.1333
     40 H13         2.0226   -6.2744   -0.9156 H         1 <0>         0.1306
     41 H14         2.6354   -4.2944    0.4075 H         1 <0>         0.1215
     42 H15         0.6789   -7.4333   -2.0197 H         1 <0>         0.0570
     43 H16         2.0821   -8.3132   -1.3678 H         1 <0>         0.0566
     44 H17         0.6422   -9.2093   -1.9082 H         1 <0>         0.1012
@<TRIPOS>BOND
     1    1    2 1
     2    1   28 1
     3    1   29 1
     4    1   30 1
     5    2    3 1
     6    2   31 1
     7    2   32 1
     8    3    4 am
     9    3   33 1
    10    4    5 2
    11    4    6 1
    12    6   10 2
    13    6    7 1
    14    7    8 2
    15    7   20 1
    16    8    9 1
    17    8   11 1
    18    9   10 1
    19   11   16 ar
    20   11   12 ar
    21   12   13 ar
    22   12   34 1
    23   13   14 ar
    24   13   19 1
    25   14   15 ar
    26   14   18 1
    27   15   16 ar
    28   15   35 1
    29   16   17 1
    30   17   36 1
    31   18   37 1
    32   20   25 ar
    33   20   21 ar
    34   21   22 ar
    35   21   38 1
    36   22   23 ar
    37   22   39 1
    38   23   24 ar
    39   23   26 1
    40   24   25 ar
    41   24   40 1
    42   25   41 1
    43   26   27 1
    44   27   42 1
    45   27   43 1
    46   27   44 1
@<TRIPOS>MOLECULE
ZINC14974931
   64    67     0     0     0
SMALL
USER_CHARGES

@<TRIPOS>ATOM
      1 C1          1.0424    1.3221    0.6407 C.3       1 <0>        -0.1675
      2 C2          0.9313   -0.1986    0.5148 C.3       1 <0>         0.1153
      3 N1          1.3424   -0.6087   -0.8302 N.am      1 <0>        -0.7262
      4 C3          1.3257   -1.9123   -1.1718 C.2       1 <0>         0.5816
      5 O1          0.9697   -2.7475   -0.3643 O.2       1 <0>        -0.4785
      6 C4          1.7413   -2.3268   -2.5314 C.2       1 <0>         0.1132
      7 C5          1.7675   -3.6287   -3.0175 C.2       1 <0>        -0.1367
      8 C6          2.2225   -3.5778   -4.3502 C.2       1 <0>         0.1682
      9 C7          2.4021   -4.7219   -5.2428 C.2       1 <0>        -0.1606
     10 C8          1.9701   -5.9974   -4.8522 C.2       1 <0>        -0.0820
     11 C9          2.1380   -7.0624   -5.6858 C.2       1 <0>        -0.1356
     12 C10         2.7398   -6.9015   -6.9351 C.2       1 <0>         0.3243
     13 C11         3.1763   -5.6576   -7.3483 C.2       1 <0>        -0.4419
     14 C12         3.0090   -4.5490   -6.5124 C.2       1 <0>         0.3427
     15 O2          3.4211   -3.3435   -6.9027 O.2       1 <0>        -0.6550
     16 O3          2.8978   -7.9755   -7.7499 O.3       1 <0>        -0.6769
     17 C13         1.6694   -8.4281   -5.2542 C.3       1 <0>        -0.0279
     18 C14         0.6221   -8.9441   -6.2432 C.3       1 <0>        -0.1454
     19 C15         2.8593   -9.3895   -5.2237 C.3       1 <0>        -0.1442
     20 O4          2.4606   -2.2963   -4.6540 O.3       1 <0>         0.0121
     21 N2          2.1561   -1.5068   -3.5196 N.pl3     1 <0>        -0.5555
     22 C16         1.3860   -4.8493   -2.2696 C.ar      1 <0>         0.0008
     23 C17         2.3629   -5.7642   -1.8776 C.ar      1 <0>        -0.0894
     24 C18         2.0014   -6.8993   -1.1813 C.ar      1 <0>        -0.1123
     25 C19         0.6730   -7.1307   -0.8719 C.ar      1 <0>        -0.0754
     26 C20        -0.3006   -6.2268   -1.2580 C.ar      1 <0>        -0.0953
     27 C21         0.0492   -5.0853   -1.9497 C.ar      1 <0>        -0.0825
     28 C22         0.2848   -8.3726   -0.1117 C.3       1 <0>         0.0953
     29 N3          0.3183   -8.0945    1.3304 N.3       1 <0>        -0.5296
     30 C23         1.6914   -7.8295    1.7841 C.3       1 <0>         0.0136
     31 C24         1.6729   -7.4867    3.2761 C.3       1 <0>         0.0644
     32 O5          1.0612   -8.5586    3.9988 O.3       1 <0>        -0.3882
     33 C25        -0.2772   -8.8433    3.5830 C.3       1 <0>         0.0645
     34 C26        -0.2785   -9.1998    2.0941 C.3       1 <0>         0.0167
     35 H1          2.0747    1.6265    0.4677 H         1 <0>         0.0634
     36 H2          0.3953    1.7961   -0.0974 H         1 <0>         0.0634
     37 H3          0.7365    1.6272    1.6414 H         1 <0>         0.0782
     38 H4          1.5784   -0.6725    1.2529 H         1 <0>         0.0743
     39 H5         -0.1010   -0.5030    0.6878 H         1 <0>         0.0745
     40 H6          1.6266    0.0581   -1.4748 H         1 <0>         0.3980
     41 H7          1.5035   -6.1362   -3.8881 H         1 <0>         0.1219
     42 H8          3.6417   -5.5409   -8.3159 H         1 <0>         0.0984
     43 H9          1.2288   -8.3635   -4.2593 H         1 <0>         0.0524
     44 H10         1.0627   -9.0087   -7.2381 H         1 <0>         0.0849
     45 H11         0.2832   -9.9319   -5.9310 H         1 <0>         0.0379
     46 H12        -0.2255   -8.2592   -6.2649 H         1 <0>         0.0394
     47 H13         3.6053   -9.0219   -4.5192 H         1 <0>         0.0391
     48 H14         2.5203  -10.3773   -4.9116 H         1 <0>         0.0375
     49 H15         3.2998   -9.4541   -6.2186 H         1 <0>         0.0848
     50 H16         2.2342   -0.5417   -3.4617 H         1 <0>         0.4572
     51 H17         3.4002   -5.5849   -2.1189 H         1 <0>         0.1232
     52 H18         2.7569   -7.6087   -0.8776 H         1 <0>         0.1196
     53 H19        -1.3360   -6.4128   -1.0136 H         1 <0>         0.1214
     54 H20        -0.7112   -4.3781   -2.2467 H         1 <0>         0.1171
     55 H21        -0.7218   -8.6754   -0.4000 H         1 <0>         0.0849
     56 H22         0.9858   -9.1745   -0.3434 H         1 <0>         0.0461
     57 H23         2.3057   -8.7151    1.6217 H         1 <0>         0.0420
     58 H24         2.1046   -6.9912    1.2231 H         1 <0>         0.0945
     59 H25         2.6942   -7.3454    3.6297 H         1 <0>         0.0964
     60 H26         1.1030   -6.5707    3.4321 H         1 <0>         0.0597
     61 H27        -0.6662   -9.6832    4.1587 H         1 <0>         0.0960
     62 H28        -0.9038   -7.9668    3.7480 H         1 <0>         0.0590
     63 H29        -1.3031   -9.3619    1.7596 H         1 <0>         0.0861
     64 H30         0.3044  -10.1074    1.9367 H         1 <0>         0.0427
@<TRIPOS>BOND
     1    1    2 1
     2    1   35 1
     3    1   36 1
     4    1   37 1
     5    2    3 1
     6    2   38 1
     7    2   39 1
     8    3    4 am
     9    3   40 1
    10    4    5 2
    11    4    6 1
    12    6   21 1
    13    6    7 2
    14    7    8 1
    15    7   22 1
    16    8    9 2
    17    8   20 1
    18    9   14 1
    19    9   10 1
    20   10   11 2
    21   10   41 1
    22   11   12 1
    23   11   17 1
    24   12   13 2
    25   12   16 1
    26   13   14 1
    27   13   42 1
    28   14   15 2
    29   17   18 1
    30   17   19 1
    31   17   43 1
    32   18   44 1
    33   18   45 1
    34   18   46 1
    35   19   47 1
    36   19   48 1
    37   19   49 1
    38   20   21 1
    39   21   50 1
    40   22   27 ar
    41   22   23 ar
    42   23   24 ar
    43   23   51 1
    44   24   25 ar
    45   24   52 1
    46   25   26 ar
    47   25   28 1
    48   26   27 ar
    49   26   53 1
    50   27   54 1
    51   28   29 1
    52   28   55 1
    53   28   56 1
    54   29   34 1
    55   29   30 1
    56   30   31 1
    57   30   57 1
    58   30   58 1
    59   31   32 1
    60   31   59 1
    61   31   60 1
    62   32   33 1
    63   33   34 1
    64   33   61 1
    65   33   62 1
    66   34   63 1
    67   34   64 1
@<TRIPOS>MOLECULE
ZINC14974931
   65    68     0     0     0
SMALL
USER_CHARGES

@<TRIPOS>ATOM
      1 C1         -0.0540    1.4997   -0.6888 C.3       1 <0>        -0.1676
      2 C2         -0.0248   -0.0232   -0.5441 C.3       1 <0>         0.1140
      3 N1         -1.3928   -0.5259   -0.3951 N.am      1 <0>        -0.7141
      4 C3         -1.6130   -1.8478   -0.2514 C.2       1 <0>         0.5894
      5 O1         -0.6770   -2.6225   -0.2455 O.2       1 <0>        -0.4924
      6 C4         -2.9970   -2.3563   -0.1006 C.2       1 <0>         0.0795
      7 C5         -3.3950   -3.7559    0.0696 C.2       1 <0>        -0.1609
      8 C6         -4.7761   -3.7654    0.1705 C.2       1 <0>         0.1363
      9 O2         -5.2044   -2.4950    0.0732 O.3       1 <0>        -0.0385
     10 N2         -4.0932   -1.6370   -0.0890 N.2       1 <0>        -0.2804
     11 C7         -5.6250   -4.9562    0.3522 C.ar      1 <0>        -0.0782
     12 C8         -5.3010   -5.9072    1.3239 C.ar      1 <0>        -0.0369
     13 C9         -6.0972   -7.0184    1.4908 C.ar      1 <0>        -0.1083
     14 C10        -7.2236   -7.1983    0.6957 C.ar      1 <0>         0.1512
     15 C11        -7.5536   -6.2605   -0.2717 C.ar      1 <0>        -0.1754
     16 C12        -6.7646   -5.1368   -0.4452 C.ar      1 <0>         0.1580
     17 O3         -7.0896   -4.2150   -1.3875 O.3       1 <0>        -0.4853
     18 O4         -8.0037   -8.2968    0.8667 O.3       1 <0>        -0.4905
     19 C13        -5.7462   -8.0431    2.5386 C.3       1 <0>        -0.0545
     20 C14        -4.3604   -8.6205    2.2432 C.3       1 <0>        -0.1431
     21 C15        -5.7394   -7.3807    3.9177 C.3       1 <0>        -0.1475
     22 C16        -2.4959   -4.9312    0.1228 C.ar      1 <0>        -0.0106
     23 C17        -2.5176   -5.8765   -0.9028 C.ar      1 <0>        -0.0945
     24 C18        -1.6770   -6.9693   -0.8477 C.ar      1 <0>        -0.1128
     25 C19        -0.8143   -7.1288    0.2220 C.ar      1 <0>        -0.0694
     26 C20        -0.7881   -6.1947    1.2422 C.ar      1 <0>        -0.0938
     27 C21        -1.6197   -5.0947    1.1958 C.ar      1 <0>        -0.0806
     28 C22         0.1004   -8.3252    0.2764 C.3       1 <0>         0.0934
     29 N3          1.3713   -8.0003   -0.3848 N.3       1 <0>        -0.5301
     30 C23         1.1753   -7.7835   -1.8256 C.3       1 <0>         0.0148
     31 C24         2.5104   -7.3900   -2.4633 C.3       1 <0>         0.0634
     32 O5          3.4790   -8.4077   -2.1958 O.3       1 <0>        -0.3859
     33 C25         3.6953   -8.6446   -0.8021 C.3       1 <0>         0.0633
     34 C26         2.3722   -9.0507   -0.1476 C.3       1 <0>         0.0173
     35 H1          0.9638    1.8737   -0.7997 H         1 <0>         0.0794
     36 H2         -0.6383    1.7699   -1.5684 H         1 <0>         0.0641
     37 H3         -0.5084    1.9403    0.1986 H         1 <0>         0.0642
     38 H4          0.4296   -0.4638   -1.4315 H         1 <0>         0.0742
     39 H5          0.5595   -0.2934    0.3355 H         1 <0>         0.0744
     40 H6         -2.1400    0.0926   -0.3998 H         1 <0>         0.4082
     41 H7         -4.4267   -5.7710    1.9430 H         1 <0>         0.1392
     42 H8         -8.4292   -6.4053   -0.8872 H         1 <0>         0.1448
     43 H9         -6.7618   -4.4251   -2.2727 H         1 <0>         0.3968
     44 H10        -8.7174   -8.1765    1.5080 H         1 <0>         0.3973
     45 H11        -6.4845   -8.8450    2.5243 H         1 <0>         0.0888
     46 H12        -3.6222   -7.8186    2.2575 H         1 <0>         0.0579
     47 H13        -4.1066   -9.3616    3.0010 H         1 <0>         0.0606
     48 H14        -4.3653   -9.0924    1.2607 H         1 <0>         0.0569
     49 H15        -6.7267   -6.9694    4.1281 H         1 <0>         0.0558
     50 H16        -5.4855   -8.1219    4.6755 H         1 <0>         0.0628
     51 H17        -5.0012   -6.5789    3.9320 H         1 <0>         0.0568
     52 H18        -3.1911   -5.7535   -1.7381 H         1 <0>         0.1165
     53 H19        -1.6928   -7.7019   -1.6411 H         1 <0>         0.1191
     54 H20        -0.1124   -6.3247    2.0747 H         1 <0>         0.1238
     55 H21        -1.5952   -4.3639    1.9906 H         1 <0>         0.1177
     56 H22         0.2895   -8.5910    1.3164 H         1 <0>         0.0856
     57 H23        -0.3701   -9.1657   -0.2337 H         1 <0>         0.0449
     58 H24         0.8088   -8.7014   -2.2853 H         1 <0>         0.0419
     59 H25         0.4497   -6.9845   -1.9780 H         1 <0>         0.0915
     60 H26         2.3819   -7.2839   -3.5405 H         1 <0>         0.0976
     61 H27         2.8504   -6.4441   -2.0417 H         1 <0>         0.0607
     62 H28         4.4238   -9.4457   -0.6779 H         1 <0>         0.0986
     63 H29         4.0698   -7.7351   -0.3322 H         1 <0>         0.0604
     64 H30         2.5203   -9.1768    0.9249 H         1 <0>         0.0872
     65 H31         2.0249   -9.9888   -0.5804 H         1 <0>         0.0435
@<TRIPOS>BOND
     1    1    2 1
     2    1   35 1
     3    1   36 1
     4    1   37 1
     5    2    3 1
     6    2   38 1
     7    2   39 1
     8    3    4 am
     9    3   40 1
    10    4    5 2
    11    4    6 1
    12    6   10 2
    13    6    7 1
    14    7    8 2
    15    7   22 1
    16    8    9 1
    17    8   11 1
    18    9   10 1
    19   11   16 ar
    20   11   12 ar
    21   12   13 ar
    22   12   41 1
    23   13   14 ar
    24   13   19 1
    25   14   15 ar
    26   14   18 1
    27   15   16 ar
    28   15   42 1
    29   16   17 1
    30   17   43 1
    31   18   44 1
    32   19   20 1
    33   19   21 1
    34   19   45 1
    35   20   46 1
    36   20   47 1
    37   20   48 1
    38   21   49 1
    39   21   50 1
    40   21   51 1
    41   22   27 ar
    42   22   23 ar
    43   23   24 ar
    44   23   52 1
    45   24   25 ar
    46   24   53 1
    47   25   26 ar
    48   25   28 1
    49   26   27 ar
    50   26   54 1
    51   27   55 1
    52   28   29 1
    53   28   56 1
    54   28   57 1
    55   29   34 1
    56   29   30 1
    57   30   31 1
    58   30   58 1
    59   30   59 1
    60   31   32 1
    61   31   60 1
    62   31   61 1
    63   32   33 1
    64   33   34 1
    65   33   62 1
    66   33   63 1
    67   34   64 1
    68   34   65 1
@<TRIPOS>MOLECULE
ZINC14974435
   79    80     0     0     0
SMALL
USER_CHARGES

@<TRIPOS>ATOM
      1 C1         -0.2239    0.7132    1.7044 C.3       1 <0>        -0.1402
      2 C2         -0.3398   -0.7147    1.1649 C.3       1 <0>        -0.0739
      3 H1         -1.3438   -0.8719    0.7782 H         1 <0>         0.0859
      4 C3          0.6899   -0.9346    0.0563 C.3       1 <0>        -0.1308
      5 C4          0.1076   -0.6374   -1.3236 C.3       1 <0>         0.1076
      6 H2          0.9219   -0.6819   -2.0549 H         1 <0>         0.0568
      7 C5         -0.9532   -1.6700   -1.6939 C.3       1 <0>         0.1155
      8 H3         -1.7173   -1.7118   -0.9176 H         1 <0>         0.0818
      9 C6         -1.6179   -1.3140   -3.0281 C.3       1 <0>        -0.0868
     10 H4         -1.4228   -0.2770   -3.2701 H         1 <0>         0.0910
     11 C7         -3.0912   -1.6024   -2.9366 C.2       1 <0>        -0.1195
     12 C8         -4.0302   -0.7074   -3.0596 C.2       1 <0>        -0.1287
     13 C9         -5.4789   -1.1327   -2.9283 C.3       1 <0>         0.1222
     14 H5         -5.6526   -1.9792   -3.5893 H         1 <0>         0.0958
     15 C10        -5.7498   -1.5520   -1.4848 C.3       1 <0>         0.1229
     16 H6         -5.8198   -2.6377   -1.4378 H         1 <0>         0.1201
     17 C11        -7.0330   -0.9452   -0.9747 C.2       1 <0>        -0.1720
     18 C12        -7.2785   -0.9105    0.3436 C.2       1 <0>        -0.0997
     19 C13        -6.3624   -1.4825    1.2460 C.2       1 <0>        -0.0683
     20 C14        -6.1110   -1.0200    2.4930 C.2       1 <0>        -0.1355
     21 C15        -5.1050   -1.7106    3.2727 C.2       1 <0>         0.5213
     22 O1         -4.7790   -2.8209    2.8577 O.2       1 <0>        -0.5299
     23 N1         -4.5309   -1.2822    4.3865 N.2       1 <0>        -0.6046
     24 C16        -3.2260   -1.1751    4.5052 C.2       1 <0>         0.2799
     25 C17        -2.6262   -0.7586    5.7202 C.2       1 <0>        -0.3844
     26 C18        -1.2765   -0.6372    5.8113 C.2       1 <0>         0.2957
     27 O2         -0.7213   -0.2142    6.9727 O.3       1 <0>        -0.6471
     28 C19        -0.4037   -0.9541    4.6685 C.2       1 <0>         0.1511
     29 C20        -0.9341   -1.3654    3.4941 C.2       1 <0>        -0.2139
     30 C21        -0.0743   -1.7046    2.3018 C.3       1 <0>        -0.0540
     31 C22        -2.3402   -1.4984    3.3488 C.2       1 <0>         0.3752
     32 O3         -2.7948   -1.8611    2.2836 O.2       1 <0>        -0.3990
     33 O4          0.9374   -0.8415    4.8117 O.3       1 <0>        -0.3264
     34 C23         1.5688   -1.7334    5.7325 C.3       1 <0>         0.0384
     35 C24        -6.8436    0.1698    3.0458 C.3       1 <0>        -0.1095
     36 O5         -4.6540   -1.1198   -0.6701 O.3       1 <0>        -0.3393
     37 C25        -4.6649    0.2785   -0.3754 C.3       1 <0>         0.0250
     38 O6         -6.3204   -0.0442   -3.2972 O.3       1 <0>        -0.3455
     39 C26        -6.6733    0.0436   -4.5935 C.2       1 <0>         0.6470
     40 O7         -6.2753   -0.7842   -5.3889 O.2       1 <0>        -0.5704
     41 N2         -7.4679    1.0498   -5.0089 N.am      1 <0>        -0.8288
     42 C27        -3.7237    0.7447   -3.3208 C.3       1 <0>        -0.1129
     43 C28        -1.0115   -2.1977   -4.1280 C.3       1 <0>        -0.1357
     44 O8         -0.3361   -2.9574   -1.8156 O.3       1 <0>        -0.5622
     45 O9         -0.4562    0.6735   -1.3447 O.3       1 <0>        -0.3682
     46 C29         0.4637    1.6956   -1.7332 C.3       1 <0>         0.0322
     47 H7          0.7817    0.8743    2.0930 H         1 <0>         0.0474
     48 H8         -0.4207    1.4225    0.9005 H         1 <0>         0.0561
     49 H9         -0.9501    0.8596    2.5040 H         1 <0>         0.0478
     50 H10         1.5531   -0.2956    0.2388 H         1 <0>         0.0596
     51 H11         1.0171   -1.9770    0.0895 H         1 <0>         0.0768
     52 H12        -3.3975   -2.6351   -2.7561 H         1 <0>         0.0997
     53 H13        -7.7627   -0.5541   -1.6568 H         1 <0>         0.1240
     54 H14        -8.1894   -0.4440    0.6965 H         1 <0>         0.1186
     55 H15        -5.8292   -2.3851    0.9268 H         1 <0>         0.1339
     56 H16        -3.2453   -0.5464    6.5756 H         1 <0>         0.1237
     57 H17        -0.3204   -2.7143    1.9639 H         1 <0>         0.0672
     58 H18         0.9759   -1.6671    2.5825 H         1 <0>         0.0705
     59 H19         1.4171   -2.7617    5.4044 H         1 <0>         0.0402
     60 H20         2.6366   -1.5185    5.7724 H         1 <0>         0.0878
     61 H21         1.1341   -1.6003    6.7232 H         1 <0>         0.0700
     62 H22        -7.7466   -0.1646    3.5565 H         1 <0>         0.0670
     63 H23        -6.2010    0.6965    3.7514 H         1 <0>         0.0730
     64 H24        -7.1145    0.8407    2.2305 H         1 <0>         0.0572
     65 H25        -3.6710    0.5899   -0.0543 H         1 <0>         0.0781
     66 H26        -4.9496    0.8357   -1.2680 H         1 <0>         0.0517
     67 H27        -5.3826    0.4764    0.4207 H         1 <0>         0.0431
     68 H28        -7.7856    1.7107   -4.3739 H         1 <0>         0.4079
     69 H29        -7.7222    1.1131   -5.9429 H         1 <0>         0.4241
     70 H30        -2.6442    0.8830   -3.3810 H         1 <0>         0.0693
     71 H31        -4.1821    1.0493   -4.2616 H         1 <0>         0.0496
     72 H32        -4.1230    1.3522   -2.5086 H         1 <0>         0.0723
     73 H33        -1.1912   -3.2465   -3.8918 H         1 <0>         0.0560
     74 H34        -1.4747   -1.9562   -5.0847 H         1 <0>         0.0495
     75 H35         0.0618   -2.0176   -4.1882 H         1 <0>         0.0567
     76 H36        -0.9497   -3.6672   -2.0499 H         1 <0>         0.3800
     77 H37        -0.0413    2.6615   -1.7242 H         1 <0>         0.0840
     78 H38         1.3001    1.7164   -1.0345 H         1 <0>         0.0422
     79 H39         0.8340    1.4886   -2.7372 H         1 <0>         0.0366
@<TRIPOS>BOND
     1    1    2 1
     2    1   47 1
     3    1   48 1
     4    1   49 1
     5    2    3 1
     6    2   30 1
     7    2    4 1
     8    4    5 1
     9    4   50 1
    10    4   51 1
    11    5    6 1
    12    5    7 1
    13    5   45 1
    14    7    8 1
    15    7    9 1
    16    7   44 1
    17    9   10 1
    18    9   11 1
    19    9   43 1
    20   11   12 2
    21   11   52 1
    22   12   13 1
    23   12   42 1
    24   13   14 1
    25   13   15 1
    26   13   38 1
    27   15   16 1
    28   15   17 1
    29   15   36 1
    30   17   18 2
    31   17   53 1
    32   18   19 1
    33   18   54 1
    34   19   20 2
    35   19   55 1
    36   20   21 1
    37   20   35 1
    38   21   22 2
    39   21   23 1
    40   23   24 2
    41   24   31 1
    42   24   25 1
    43   25   26 2
    44   25   56 1
    45   26   27 1
    46   26   28 1
    47   28   29 2
    48   28   33 1
    49   29   30 1
    50   29   31 1
    51   30   57 1
    52   30   58 1
    53   31   32 2
    54   33   34 1
    55   34   59 1
    56   34   60 1
    57   34   61 1
    58   35   62 1
    59   35   63 1
    60   35   64 1
    61   36   37 1
    62   37   65 1
    63   37   66 1
    64   37   67 1
    65   38   39 1
    66   39   40 2
    67   39   41 am
    68   41   68 1
    69   41   69 1
    70   42   70 1
    71   42   71 1
    72   42   72 1
    73   43   73 1
    74   43   74 1
    75   43   75 1
    76   44   76 1
    77   45   46 1
    78   46   77 1
    79   46   78 1
    80   46   79 1
@<TRIPOS>MOLECULE
ZINC14974435
   79    80     0     0     0
SMALL
USER_CHARGES

@<TRIPOS>ATOM
      1 C1         -1.6220    0.1444   -2.6455 C.3       1 <0>        -0.1448
      2 C2         -0.6490   -0.8066   -1.9371 C.3       1 <0>        -0.0845
      3 H1         -0.6978   -1.7780   -2.4222 H         1 <0>         0.1086
      4 C3         -1.0622   -0.9329   -0.4699 C.3       1 <0>        -0.1082
      5 C4         -0.7837   -2.3347    0.0657 C.3       1 <0>         0.1006
      6 H2         -0.3800   -2.2498    1.0815 H         1 <0>         0.0536
      7 C5         -2.0726   -3.1546    0.1189 C.3       1 <0>         0.0952
      8 H3         -2.5051   -3.2207   -0.8792 H         1 <0>         0.0666
      9 C6         -1.7733   -4.5662    0.6401 C.3       1 <0>        -0.0933
     10 H4         -0.7499   -4.5873    1.0101 H         1 <0>         0.0877
     11 C7         -1.9551   -5.5601   -0.4725 C.2       1 <0>        -0.1028
     12 C8         -1.3371   -6.7091   -0.5150 C.2       1 <0>        -0.1408
     13 C9         -1.5553   -7.6234   -1.7056 C.3       1 <0>         0.1232
     14 H5         -2.6024   -7.9056   -1.7600 H         1 <0>         0.0963
     15 C10        -1.1547   -6.8647   -2.9701 C.3       1 <0>         0.1209
     16 H6         -2.0377   -6.4028   -3.4087 H         1 <0>         0.1217
     17 C11        -0.5066   -7.7806   -3.9798 C.2       1 <0>        -0.1757
     18 C12         0.0696   -7.2257   -5.0637 C.2       1 <0>        -0.0950
     19 C13        -0.0011   -5.8286   -5.2050 C.2       1 <0>        -0.0748
     20 C14         0.8796   -5.0408   -5.8657 C.2       1 <0>        -0.1261
     21 C15         0.6168   -3.6158   -5.8257 C.2       1 <0>         0.5129
     22 O1         -0.4421   -3.3003   -5.2794 O.2       1 <0>        -0.5440
     23 N1          1.3377   -2.6269   -6.3326 N.2       1 <0>        -0.6030
     24 C16         1.5561   -1.5416   -5.6189 C.2       1 <0>         0.2802
     25 C17         2.1162   -0.3783   -6.2014 C.2       1 <0>        -0.3858
     26 C18         2.1747    0.7772   -5.4900 C.2       1 <0>         0.2999
     27 O2          2.6933    1.8898   -6.0628 O.3       1 <0>        -0.6452
     28 C19         1.6896    0.8405   -4.1008 C.2       1 <0>         0.1380
     29 C20         1.2354   -0.2702   -3.4732 C.2       1 <0>        -0.2027
     30 C21         0.7646   -0.2381   -2.0418 C.3       1 <0>        -0.0423
     31 C22         1.1964   -1.5034   -4.1728 C.2       1 <0>         0.3733
     32 O3          0.9115   -2.5221   -3.5706 O.2       1 <0>        -0.3839
     33 O4          1.6936    2.0276   -3.4522 O.3       1 <0>        -0.3286
     34 C23         0.8213    3.0430   -3.9521 C.3       1 <0>         0.0408
     35 C24         2.0598   -5.6083   -6.5908 C.3       1 <0>        -0.1065
     36 O5         -0.2221   -5.8396   -2.6010 O.3       1 <0>        -0.3252
     37 C25         1.0455   -6.3360   -2.1666 C.3       1 <0>         0.0247
     38 O6         -0.7396   -8.7845   -1.5575 O.3       1 <0>        -0.3459
     39 C26        -1.2804   -9.8326   -0.9081 C.2       1 <0>         0.6462
     40 O7         -2.4150   -9.7618   -0.4790 O.2       1 <0>        -0.5709
     41 N2         -0.5633  -10.9604   -0.7339 N.am      1 <0>        -0.8294
     42 C27        -0.4136   -7.1669    0.5826 C.3       1 <0>        -0.1128
     43 C28        -2.7427   -4.8821    1.7826 C.3       1 <0>        -0.1427
     44 O8         -3.0037   -2.5226    1.0007 O.3       1 <0>        -0.5650
     45 O9          0.1766   -3.0006   -0.7534 O.3       1 <0>        -0.3258
     46 C29         1.1450   -3.7526   -0.0195 C.3       1 <0>         0.0259
     47 H7         -1.3391    0.2389   -3.6939 H         1 <0>         0.0503
     48 H8         -2.6342   -0.2540   -2.5768 H         1 <0>         0.0465
     49 H9         -1.5840    1.1241   -2.1692 H         1 <0>         0.0453
     50 H10        -0.5073   -0.2012    0.1228 H         1 <0>         0.0591
     51 H11        -2.1306   -0.7159   -0.3837 H         1 <0>         0.0758
     52 H12        -2.6421   -5.3184   -1.2811 H         1 <0>         0.1040
     53 H13        -0.5092   -8.8442   -3.8535 H         1 <0>         0.1214
     54 H14         0.5585   -7.8533   -5.7899 H         1 <0>         0.1173
     55 H15        -0.8663   -5.3226   -4.7592 H         1 <0>         0.1373
     56 H16         2.5039   -0.4183   -7.2093 H         1 <0>         0.1235
     57 H17         0.7686    0.7893   -1.6785 H         1 <0>         0.0660
     58 H18         1.4426   -0.8323   -1.4273 H         1 <0>         0.0709
     59 H19        -0.1973    2.6574   -3.9964 H         1 <0>         0.0415
     60 H20         0.8538    3.9082   -3.2900 H         1 <0>         0.0869
     61 H21         1.1419    3.3378   -4.9513 H         1 <0>         0.0661
     62 H22         1.7809   -5.8303   -7.6209 H         1 <0>         0.0664
     63 H23         2.8739   -4.8835   -6.5830 H         1 <0>         0.0693
     64 H24         2.3838   -6.5242   -6.0967 H         1 <0>         0.0559
     65 H25         1.6356   -5.5164   -1.7567 H         1 <0>         0.0792
     66 H26         0.8948   -7.0947   -1.3986 H         1 <0>         0.0496
     67 H27         1.5730   -6.7757   -3.0131 H         1 <0>         0.0335
     68 H28         0.3425  -11.0170   -1.0764 H         1 <0>         0.4078
     69 H29        -0.9529  -11.7155   -0.2660 H         1 <0>         0.4238
     70 H30        -0.3680   -6.4048    1.3605 H         1 <0>         0.0629
     71 H31        -0.7881   -8.0981    1.0078 H         1 <0>         0.0556
     72 H32         0.5838   -7.3293    0.1741 H         1 <0>         0.0690
     73 H33        -3.7672   -4.8326    1.4139 H         1 <0>         0.0536
     74 H34        -2.5416   -5.8834    2.1634 H         1 <0>         0.0542
     75 H35        -2.6093   -4.1551    2.5837 H         1 <0>         0.0667
     76 H36        -3.8465   -2.9895    1.0831 H         1 <0>         0.3758
     77 H37         1.9993   -3.9690   -0.6609 H         1 <0>         0.0790
     78 H38         1.4758   -3.1748    0.8436 H         1 <0>         0.0327
     79 H39         0.6986   -4.6877    0.3188 H         1 <0>         0.0426
@<TRIPOS>BOND
     1    1    2 1
     2    1   47 1
     3    1   48 1
     4    1   49 1
     5    2    3 1
     6    2   30 1
     7    2    4 1
     8    4    5 1
     9    4   50 1
    10    4   51 1
    11    5    6 1
    12    5    7 1
    13    5   45 1
    14    7    8 1
    15    7    9 1
    16    7   44 1
    17    9   10 1
    18    9   11 1
    19    9   43 1
    20   11   12 2
    21   11   52 1
    22   12   13 1
    23   12   42 1
    24   13   14 1
    25   13   15 1
    26   13   38 1
    27   15   16 1
    28   15   17 1
    29   15   36 1
    30   17   18 2
    31   17   53 1
    32   18   19 1
    33   18   54 1
    34   19   20 2
    35   19   55 1
    36   20   21 1
    37   20   35 1
    38   21   22 2
    39   21   23 1
    40   23   24 2
    41   24   31 1
    42   24   25 1
    43   25   26 2
    44   25   56 1
    45   26   27 1
    46   26   28 1
    47   28   29 2
    48   28   33 1
    49   29   30 1
    50   29   31 1
    51   30   57 1
    52   30   58 1
    53   31   32 2
    54   33   34 1
    55   34   59 1
    56   34   60 1
    57   34   61 1
    58   35   62 1
    59   35   63 1
    60   35   64 1
    61   36   37 1
    62   37   65 1
    63   37   66 1
    64   37   67 1
    65   38   39 1
    66   39   40 2
    67   39   41 am
    68   41   68 1
    69   41   69 1
    70   42   70 1
    71   42   71 1
    72   42   72 1
    73   43   73 1
    74   43   74 1
    75   43   75 1
    76   44   76 1
    77   45   46 1
    78   46   77 1
    79   46   78 1
    80   46   79 1
@<TRIPOS>MOLECULE
ZINC06733279
   40    43     0     0     0
SMALL
USER_CHARGES
8-(6-bromobenzo[1,3]dioxol-5-yl)sulfanyl-9-pent-4-ynyl-purin-6-amine
@<TRIPOS>ATOM
      1 C1          3.5308   -6.2946    8.2869 C.1       1 <0>        -0.1976
      2 C2          3.6169   -6.4977    7.1338 C.1       1 <0>        -0.1940
      3 C3          3.7249   -6.7522    5.6880 C.3       1 <0>        -0.0058
      4 C4          2.6784   -5.9202    4.9441 C.3       1 <0>        -0.1321
      5 C5          2.7907   -6.1848    3.4413 C.3       1 <0>         0.1069
      6 N1          1.7886   -5.3881    2.7290 N.pl3     1 <0>        -0.4511
      7 C6          0.5031   -5.7757    2.4288 C.ar      1 <0>         0.3020
      8 C7         -0.0795   -4.6986    1.7407 C.ar      1 <0>        -0.0568
      9 C8         -1.4082   -4.8305    1.3055 C.ar      1 <0>         0.4477
     10 N2         -2.0502   -5.9651    1.5645 N.ar      1 <0>        -0.5731
     11 C9         -1.4605   -6.9509    2.2152 C.ar      1 <0>         0.3460
     12 N3         -0.2170   -6.8714    2.6417 N.ar      1 <0>        -0.5348
     13 N4         -2.0356   -3.8011    0.6223 N.pl3     1 <0>        -0.7431
     14 N5          0.8553   -3.7193    1.6584 N.2       1 <0>        -0.4367
     15 C10         1.9577   -4.1198    2.2429 C.2       1 <0>         0.2403
     16 S1          3.4369   -3.1717    2.3762 S.3       1 <0>         0.1436
     17 C11         2.9872   -1.7661    1.4135 C.ar      1 <0>        -0.1138
     18 C12         2.6450   -0.5752    2.0407 C.ar      1 <0>        -0.0307
     19 C13         2.2921    0.5290    1.2837 C.ar      1 <0>         0.0389
     20 C14         2.2811    0.4433   -0.1068 C.ar      1 <0>         0.0808
     21 C15         2.6230   -0.7461   -0.7294 C.ar      1 <0>        -0.0836
     22 C16         2.9752   -1.8487    0.0268 C.ar      1 <0>        -0.0155
     23 Br1         3.4417   -3.4701   -0.8273 Br        1 <0>        -0.0061
     24 O1          1.9025    1.6536   -0.6150 O.3       1 <0>        -0.2987
     25 C17         2.0783    2.5941    0.4609 C.3       1 <0>         0.2113
     26 O2          1.9206    1.7918    1.6460 O.3       1 <0>        -0.2999
     27 H1          3.4537   -6.1131    9.3182 H         1 <0>         0.2178
     28 H2          3.5542   -7.8107    5.4917 H         1 <0>         0.0923
     29 H3          4.7213   -6.4749    5.3437 H         1 <0>         0.0926
     30 H4          2.8492   -4.8617    5.1404 H         1 <0>         0.0776
     31 H5          1.6821   -6.1975    5.2884 H         1 <0>         0.0776
     32 H6          2.6199   -7.2433    3.2450 H         1 <0>         0.1071
     33 H7          3.7870   -5.9075    3.0970 H         1 <0>         0.1023
     34 H8         -2.0185   -7.8559    2.4052 H         1 <0>         0.2066
     35 H9         -2.0573   -2.9836    1.1979 H         1 <0>         0.3682
     36 H10        -2.9537   -3.9040    0.3267 H         1 <0>         0.3733
     37 H11         2.6545   -0.5104    3.1187 H         1 <0>         0.1550
     38 H12         2.6139   -0.8122   -1.8073 H         1 <0>         0.1536
     39 H13         1.3144    3.3705    0.4195 H         1 <0>         0.1396
     40 H14         3.0751    3.0339    0.4260 H         1 <0>         0.0926
@<TRIPOS>BOND
     1    1    2 3
     2    1   27 1
     3    2    3 1
     4    3    4 1
     5    3   28 1
     6    3   29 1
     7    4    5 1
     8    4   30 1
     9    4   31 1
    10    5    6 1
    11    5   32 1
    12    5   33 1
    13    6   15 1
    14    6    7 1
    15    7   12 ar
    16    7    8 ar
    17    8    9 ar
    18    8   14 1
    19    9   10 ar
    20    9   13 1
    21   10   11 ar
    22   11   12 ar
    23   11   34 1
    24   13   35 1
    25   13   36 1
    26   14   15 2
    27   15   16 1
    28   16   17 1
    29   17   22 ar
    30   17   18 ar
    31   18   19 ar
    32   18   37 1
    33   19   26 1
    34   19   20 ar
    35   20   21 ar
    36   20   24 1
    37   21   22 ar
    38   21   38 1
    39   22   23 1
    40   24   25 1
    41   25   26 1
    42   25   39 1
    43   25   40 1
@<TRIPOS>MOLECULE
ZINC04617893
   45    47     0     0     0
SMALL
USER_CHARGES

@<TRIPOS>ATOM
      1 C1         -0.0187    1.5258    0.0104 C.3       1 <0>        -0.1662
      2 C2          0.0021   -0.0041    0.0020 C.3       1 <0>         0.1146
      3 N1          0.6878   -0.4765   -1.2033 N.am      1 <0>        -0.7208
      4 C3          0.8268   -1.7986   -1.4250 C.2       1 <0>         0.5996
      5 O1          0.3832   -2.5993   -0.6247 O.2       1 <0>        -0.5147
      6 C4          1.5175   -2.2745   -2.6391 C.2       1 <0>        -0.0028
      7 C5          1.7342   -3.6305   -3.0093 C.2       1 <0>        -0.0589
      8 C6          2.4181   -3.5670   -4.2180 C.2       1 <0>         0.0579
      9 N2          2.5734   -2.2429   -4.5044 N.pl3     1 <0>        -0.3675
     10 H1          3.0178   -1.8950   -5.2932 H         1 <0>         0.4493
     11 N3          2.0429   -1.5226   -3.5841 N.2       1 <0>        -0.2479
     12 C7          2.8850   -4.7080   -5.0306 C.ar      1 <0>        -0.0568
     13 C8          4.2521   -4.9231   -5.2162 C.ar      1 <0>        -0.0605
     14 C9          4.6843   -5.9901   -5.9755 C.ar      1 <0>        -0.0744
     15 C10         3.7623   -6.8531   -6.5573 C.ar      1 <0>         0.1514
     16 C11         2.4026   -6.6463   -6.3783 C.ar      1 <0>        -0.1612
     17 C12         1.9582   -5.5818   -5.6134 C.ar      1 <0>         0.1689
     18 O2          0.6267   -5.3821   -5.4325 O.3       1 <0>        -0.4776
     19 O3          4.1950   -7.9025   -7.3042 O.3       1 <0>        -0.4840
     20 Cl1         6.3842   -6.2562   -6.2060 Cl        1 <0>        -0.0447
     21 C13         1.3218   -4.8449   -2.2688 C.ar      1 <0>        -0.0401
     22 C14         2.2865   -5.7018   -1.7385 C.ar      1 <0>        -0.0629
     23 C15         1.8988   -6.8314   -1.0492 C.ar      1 <0>        -0.1550
     24 C16         0.5502   -7.1163   -0.8825 C.ar      1 <0>         0.1314
     25 C17        -0.4126   -6.2658   -1.4089 C.ar      1 <0>        -0.2067
     26 C18        -0.0323   -5.1316   -2.0948 C.ar      1 <0>        -0.0231
     27 O4          0.1718   -8.2307   -0.2030 O.3       1 <0>        -0.3191
     28 C19        -1.2317   -8.4633   -0.0686 C.3       1 <0>         0.0272
     29 H2          1.0039    1.9031    0.0027 H         1 <0>         0.0625
     30 H3         -0.5459    1.8868   -0.8726 H         1 <0>         0.0623
     31 H4         -0.5289    1.8773    0.9072 H         1 <0>         0.0759
     32 H5          0.5293   -0.3651    0.8851 H         1 <0>         0.0700
     33 H6         -1.0205   -0.3814    0.0098 H         1 <0>         0.0698
     34 H7          1.0417    0.1622   -1.8418 H         1 <0>         0.4060
     35 H8          4.9705   -4.2542   -4.7658 H         1 <0>         0.1447
     36 H9          1.6902   -7.3189   -6.8328 H         1 <0>         0.1512
     37 H10         0.2189   -4.8180   -6.1038 H         1 <0>         0.3950
     38 H11         4.3386   -8.7134   -6.7973 H         1 <0>         0.4008
     39 H12         3.3357   -5.4810   -1.8681 H         1 <0>         0.1224
     40 H13         2.6451   -7.4955   -0.6387 H         1 <0>         0.1291
     41 H14        -1.4607   -6.4906   -1.2773 H         1 <0>         0.1265
     42 H15        -0.7819   -4.4681   -2.5001 H         1 <0>         0.1182
     43 H16        -1.6808   -8.5566   -1.0574 H         1 <0>         0.0550
     44 H17        -1.3955   -9.3830    0.4930 H         1 <0>         0.0992
     45 H18        -1.6895   -7.6278    0.4609 H         1 <0>         0.0560
@<TRIPOS>BOND
     1    1    2 1
     2    1   29 1
     3    1   30 1
     4    1   31 1
     5    2    3 1
     6    2   32 1
     7    2   33 1
     8    3    4 am
     9    3   34 1
    10    4    5 2
    11    4    6 1
    12    6   11 2
    13    6    7 1
    14    7    8 2
    15    7   21 1
    16    8    9 1
    17    8   12 1
    18    9   10 1
    19    9   11 1
    20   12   17 ar
    21   12   13 ar
    22   13   14 ar
    23   13   35 1
    24   14   15 ar
    25   14   20 1
    26   15   16 ar
    27   15   19 1
    28   16   17 ar
    29   16   36 1
    30   17   18 1
    31   18   37 1
    32   19   38 1
    33   21   26 ar
    34   21   22 ar
    35   22   23 ar
    36   22   39 1
    37   23   24 ar
    38   23   40 1
    39   24   25 ar
    40   24   27 1
    41   25   26 ar
    42   25   41 1
    43   26   42 1
    44   27   28 1
    45   28   43 1
    46   28   44 1
    47   28   45 1
@<TRIPOS>MOLECULE
ZINC04617893
   45    47     0     0     0
SMALL
USER_CHARGES

@<TRIPOS>ATOM
      1 C1         -0.6190    1.4858    0.4022 C.3       1 <0>        -0.1677
      2 C2         -0.4654   -0.0334    0.3057 C.3       1 <0>         0.1149
      3 N1          0.3644   -0.5117    1.4143 N.am      1 <0>        -0.7283
      4 C3          0.6366   -1.8263    1.5340 C.2       1 <0>         0.5809
      5 O1          0.1931   -2.6158    0.7212 O.2       1 <0>        -0.4960
      6 C4          1.4680   -2.3056    2.6448 C.2       1 <0>         0.0369
      7 C5          1.8358   -3.6238    2.8930 C.2       1 <0>        -0.0911
      8 C6          2.6336   -3.6231    4.0601 C.2       1 <0>         0.1207
      9 N2          2.7408   -2.3842    4.4892 N.2       1 <0>        -0.2205
     10 N3          2.0322   -1.5388    3.6279 N.pl3     1 <0>        -0.4551
     11 H1          1.9529   -0.5759    3.7141 H         1 <0>         0.4440
     12 C7          3.2451   -4.8161    4.6932 C.ar      1 <0>        -0.0405
     13 C8          3.9371   -5.7427    3.9153 C.ar      1 <0>        -0.0476
     14 C9          4.5052   -6.8521    4.5071 C.ar      1 <0>        -0.0721
     15 C10         4.3893   -7.0485    5.8781 C.ar      1 <0>         0.1470
     16 C11         3.7024   -6.1309    6.6583 C.ar      1 <0>        -0.1629
     17 C12         3.1342   -5.0119    6.0733 C.ar      1 <0>         0.1587
     18 O2          2.4660   -4.1089    6.8377 O.3       1 <0>        -0.4803
     19 O3          4.9505   -8.1433    6.4556 O.3       1 <0>        -0.4836
     20 Cl1         5.3663   -8.0057    3.5368 Cl        1 <0>        -0.0463
     21 C13         1.4612   -4.8070    2.0858 C.ar      1 <0>        -0.0527
     22 C14         0.6045   -5.7724    2.6159 C.ar      1 <0>        -0.0572
     23 C15         0.2579   -6.8728    1.8614 C.ar      1 <0>        -0.1507
     24 C16         0.7607   -7.0215    0.5755 C.ar      1 <0>         0.1350
     25 C17         1.6140   -6.0629    0.0449 C.ar      1 <0>        -0.2051
     26 C18         1.9596   -4.9565    0.7911 C.ar      1 <0>        -0.0404
     27 O4          0.4174   -8.1075   -0.1650 O.3       1 <0>        -0.3171
     28 C19         0.9705   -8.1976   -1.4796 C.3       1 <0>         0.0267
     29 H2          0.3637    1.9544    0.3490 H         1 <0>         0.0630
     30 H3         -1.2363    1.8417   -0.4226 H         1 <0>         0.0790
     31 H4         -1.0937    1.7436    1.3489 H         1 <0>         0.0631
     32 H5         -1.4481   -0.5020    0.3589 H         1 <0>         0.0734
     33 H6          0.0093   -0.2913   -0.6410 H         1 <0>         0.0732
     34 H7          0.7178    0.1177    2.0622 H         1 <0>         0.3959
     35 H8          4.0282   -5.5925    2.8496 H         1 <0>         0.1454
     36 H9          3.6140   -6.2869    7.7233 H         1 <0>         0.1501
     37 H10         1.5225   -4.2975    6.9348 H         1 <0>         0.3944
     38 H11         5.8616   -8.0089    6.7506 H         1 <0>         0.3983
     39 H12         0.2136   -5.6578    3.6161 H         1 <0>         0.1242
     40 H13        -0.4052   -7.6205    2.2710 H         1 <0>         0.1312
     41 H14         2.0037   -6.1821   -0.9553 H         1 <0>         0.1281
     42 H15         2.6191   -4.2088    0.3759 H         1 <0>         0.1192
     43 H16         0.6580   -7.3330   -2.0653 H         1 <0>         0.0560
     44 H17         2.0584   -8.2189   -1.4153 H         1 <0>         0.0560
     45 H18         0.6170   -9.1095   -1.9608 H         1 <0>         0.1001
@<TRIPOS>BOND
     1    1    2 1
     2    1   29 1
     3    1   30 1
     4    1   31 1
     5    2    3 1
     6    2   32 1
     7    2   33 1
     8    3    4 am
     9    3   34 1
    10    4    5 2
    11    4    6 1
    12    6   10 1
    13    6    7 2
    14    7    8 1
    15    7   21 1
    16    8    9 2
    17    8   12 1
    18    9   10 1
    19   10   11 1
    20   12   17 ar
    21   12   13 ar
    22   13   14 ar
    23   13   35 1
    24   14   15 ar
    25   14   20 1
    26   15   16 ar
    27   15   19 1
    28   16   17 ar
    29   16   36 1
    30   17   18 1
    31   18   37 1
    32   19   38 1
    33   21   26 ar
    34   21   22 ar
    35   22   23 ar
    36   22   39 1
    37   23   24 ar
    38   23   40 1
    39   24   25 ar
    40   24   27 1
    41   25   26 ar
    42   25   41 1
    43   26   42 1
    44   27   28 1
    45   28   43 1
    46   28   44 1
    47   28   45 1
@<TRIPOS>MOLECULE
ZINC04617893
   44    46     0     0     0
SMALL
USER_CHARGES

@<TRIPOS>ATOM
      1 C1          0.6229    1.5050    0.3331 C.3       1 <0>        -0.1659
      2 C2          0.5003   -0.0181    0.2542 C.3       1 <0>         0.1168
      3 N1          1.0573   -0.4876   -1.0168 N.am      1 <0>        -0.7341
      4 C3          1.0575   -1.8037   -1.3073 C.2       1 <0>         0.5874
      5 O1          0.5949   -2.6019   -0.5138 O.2       1 <0>        -0.5071
      6 C4          1.6156   -2.2743   -2.5809 C.2       1 <0>         0.0115
      7 C5          1.6844   -3.5936   -3.0160 C.2       1 <0>        -0.1053
      8 C6          2.2941   -3.5824   -4.2914 C.2       1 <0>         0.1865
      9 N2          2.5754   -2.3365   -4.6064 N.2       1 <0>        -0.2288
     10 H1          2.2471   -0.5310   -3.5464 H         1 <0>         0.4326
     11 N3          2.1609   -1.4970   -3.5663 N.pl3     1 <0>        -0.4760
     12 C7          2.5696   -4.7727   -5.1313 C.ar      1 <0>        -0.1881
     13 C8          1.5767   -5.7294   -5.3347 C.ar      1 <0>        -0.0078
     14 C9          1.8359   -6.8362   -6.1168 C.ar      1 <0>        -0.1895
     15 C10         3.0854   -7.0000   -6.7030 C.ar      1 <0>         0.1667
     16 C11         4.0780   -6.0522   -6.5050 C.ar      1 <0>        -0.2771
     17 C12         3.8245   -4.9357   -5.7263 C.ar      1 <0>         0.3088
     18 O2          4.7944   -4.0033   -5.5366 O.3       1 <0>        -0.6911
     19 O3          3.3352   -8.0923   -7.4720 O.3       1 <0>        -0.5015
     20 Cl1         0.5984   -8.0274   -6.3688 Cl        1 <0>        -0.1122
     21 C13         1.2080   -4.7869   -2.2806 C.ar      1 <0>        -0.0246
     22 C14         2.1236   -5.7233   -1.7992 C.ar      1 <0>        -0.0521
     23 C15         1.6764   -6.8333   -1.1149 C.ar      1 <0>        -0.1490
     24 C16         0.3164   -7.0204   -0.9049 C.ar      1 <0>         0.1210
     25 C17        -0.5977   -6.0907   -1.3830 C.ar      1 <0>        -0.2072
     26 C18        -0.1573   -4.9749   -2.0623 C.ar      1 <0>        -0.0465
     27 O4         -0.1208   -8.1157   -0.2305 O.3       1 <0>        -0.3208
     28 C19        -1.5323   -8.2458   -0.0500 C.3       1 <0>         0.0296
     29 H2          1.6734    1.7887    0.2699 H         1 <0>         0.0621
     30 H3          0.0741    1.9569   -0.4932 H         1 <0>         0.0616
     31 H4          0.2085    1.8543    1.2787 H         1 <0>         0.0745
     32 H5          1.0491   -0.4700    1.0804 H         1 <0>         0.0695
     33 H6         -0.5502   -0.3018    0.3174 H         1 <0>         0.0691
     34 H7          1.4260    0.1487   -1.6493 H         1 <0>         0.3954
     35 H8          0.6050   -5.6047   -4.8800 H         1 <0>         0.1098
     36 H9          5.0479   -6.1828   -6.9618 H         1 <0>         0.1128
     37 H10         3.1300   -7.9690   -8.4089 H         1 <0>         0.3785
     38 H11         3.1813   -5.5789   -1.9627 H         1 <0>         0.1276
     39 H12         2.3845   -7.5585   -0.7420 H         1 <0>         0.1269
     40 H13        -1.6547   -6.2397   -1.2184 H         1 <0>         0.1217
     41 H14        -0.8684   -4.2497   -2.4293 H         1 <0>         0.1151
     42 H15        -1.9077   -7.3886    0.5089 H         1 <0>         0.0519
     43 H16        -2.0208   -8.2870   -1.0236 H         1 <0>         0.0535
     44 H17        -1.7452   -9.1611    0.5023 H         1 <0>         0.0939
@<TRIPOS>BOND
     1    1    2 1
     2    1   29 1
     3    1   30 1
     4    1   31 1
     5    2    3 1
     6    2   32 1
     7    2   33 1
     8    3    4 am
     9    3   34 1
    10    4    5 2
    11    4    6 1
    12    6    7 2
    13    6   11 1
    14    7   21 1
    15    7    8 1
    16    8   12 1
    17    8    9 2
    18    9   11 1
    19   10   11 1
    20   12   17 ar
    21   12   13 ar
    22   13   14 ar
    23   13   35 1
    24   14   15 ar
    25   14   20 1
    26   15   16 ar
    27   15   19 1
    28   16   17 ar
    29   16   36 1
    30   17   18 1
    31   19   37 1
    32   21   26 ar
    33   21   22 ar
    34   22   23 ar
    35   22   38 1
    36   23   24 ar
    37   23   39 1
    38   24   25 ar
    39   24   27 1
    40   25   26 ar
    41   25   40 1
    42   26   41 1
    43   27   28 1
    44   28   42 1
    45   28   43 1
    46   28   44 1
@<TRIPOS>MOLECULE
ZINC01213187
   44    47     0     0     0
SMALL
USER_CHARGES

@<TRIPOS>ATOM
      1 C1         -0.0164    1.3570    0.0095 C.ar      1 <0>        -0.1191
      2 C2          1.1684    2.0900    0.0021 C.ar      1 <0>        -0.1233
      3 C3          2.3784    1.4649   -0.0133 C.ar      1 <0>        -0.0912
      4 C4          2.4363    0.0635   -0.0213 C.ar      1 <0>        -0.0281
      5 C5          1.2327   -0.6833   -0.0134 C.ar      1 <0>        -0.0583
      6 C6          0.0021   -0.0041    0.0020 C.ar      1 <0>        -0.1104
      7 C7          1.2868   -2.0881   -0.0205 C.ar      1 <0>        -0.1048
      8 C8          2.4891   -2.7259   -0.0345 C.ar      1 <0>        -0.1311
      9 C9          3.6854   -2.0079   -0.0421 C.ar      1 <0>         0.1169
     10 C10         3.6754   -0.6190   -0.0368 C.ar      1 <0>        -0.0267
     11 C11         4.9470    0.1387   -0.0459 C.ar      1 <0>        -0.0305
     12 C12         5.5631    0.4861    1.1556 C.ar      1 <0>        -0.1404
     13 C13         6.7538    1.1951    1.1402 C.ar      1 <0>         0.2805
     14 C14         7.3325    1.5595   -0.0698 C.ar      1 <0>        -0.2462
     15 C15         6.7251    1.2176   -1.2630 C.ar      1 <0>        -0.0825
     16 C16         5.5383    0.5038   -1.2602 C.ar      1 <0>         0.0005
     17 O1          4.9458    0.1633   -2.4355 O.3       1 <0>        -0.4967
     18 N1          7.3741    1.5450    2.3449 N.2       1 <0>        -1.0743
     19 S1          8.7969    2.3922    2.3280 S.o2      1 <0>         2.5974
     20 O2          9.7740    1.5336    1.7559 O.2       1 <0>        -1.0245
     21 O3          8.5002    3.6736    1.7902 O.2       1 <0>        -1.0096
     22 C17         9.2711    2.6476    4.0056 C.ar      1 <0>        -0.6033
     23 C18        10.4278    2.0684    4.4927 C.ar      1 <0>        -0.0104
     24 C19        10.8001    2.2689    5.8098 C.ar      1 <0>        -0.0587
     25 C20        10.0145    3.0492    6.6397 C.ar      1 <0>        -0.0621
     26 C21         8.8582    3.6282    6.1528 C.ar      1 <0>        -0.1263
     27 C22         8.4888    3.4323    4.8337 C.ar      1 <0>         0.0617
     28 Cl1         7.0399    4.1656    4.2200 Cl        1 <0>        -0.0215
     29 Cl2        12.2525    1.5410    6.4217 Cl        1 <0>        -0.0652
     30 O4          4.8699   -2.6728   -0.0556 O.3       1 <0>        -0.4882
     31 H1         -0.9632    1.8762    0.0259 H         1 <0>         0.1185
     32 H2          1.1268    3.1692    0.0083 H         1 <0>         0.1208
     33 H3          3.2891    2.0456   -0.0196 H         1 <0>         0.1317
     34 H4         -0.9242   -0.5594    0.0082 H         1 <0>         0.1229
     35 H5          0.3723   -2.6626   -0.0145 H         1 <0>         0.1264
     36 H6          2.5176   -3.8055   -0.0395 H         1 <0>         0.1268
     37 H7          5.1133    0.2038    2.0960 H         1 <0>         0.1171
     38 H8          8.2603    2.1122   -0.0775 H         1 <0>         0.1013
     39 H9          7.1792    1.5041   -2.2001 H         1 <0>         0.1109
     40 H10         4.3222    0.8236   -2.7674 H         1 <0>         0.3625
     41 H11        11.0407    1.4591    3.8451 H         1 <0>         0.1568
     42 H12        10.3050    3.2054    7.6682 H         1 <0>         0.1448
     43 H13         8.2449    4.2369    6.8007 H         1 <0>         0.1472
     44 H14         5.2050   -2.8615   -0.9429 H         1 <0>         0.3889
@<TRIPOS>BOND
     1    1    6 ar
     2    1    2 ar
     3    1   31 1
     4    2    3 ar
     5    2   32 1
     6    3    4 ar
     7    3   33 1
     8    4   10 ar
     9    4    5 ar
    10    5    6 ar
    11    5    7 ar
    12    6   34 1
    13    7    8 ar
    14    7   35 1
    15    8    9 ar
    16    8   36 1
    17    9   10 ar
    18    9   30 1
    19   10   11 1
    20   11   16 ar
    21   11   12 ar
    22   12   13 ar
    23   12   37 1
    24   13   14 ar
    25   13   18 1
    26   14   15 ar
    27   14   38 1
    28   15   16 ar
    29   15   39 1
    30   16   17 1
    31   17   40 1
    32   18   19 1
    33   19   20 2
    34   19   21 2
    35   19   22 1
    36   22   27 ar
    37   22   23 ar
    38   23   24 ar
    39   23   41 1
    40   24   25 ar
    41   24   29 1
    42   25   26 ar
    43   25   42 1
    44   26   27 ar
    45   26   43 1
    46   27   28 1
    47   30   44 1
@<TRIPOS>MOLECULE
ZINC01213187
   45    48     0     0     0
SMALL
USER_CHARGES

@<TRIPOS>ATOM
      1 C1          0.2695    1.8192   -0.8110 C.ar      1 <0>        -0.1191
      2 C2          1.4913    2.4795   -0.6989 C.ar      1 <0>        -0.1061
      3 C3          2.6575    1.7826   -0.6024 C.ar      1 <0>        -0.1125
      4 C4          2.6319    0.3803   -0.6153 C.ar      1 <0>        -0.0217
      5 C5          1.3906   -0.2926   -0.7287 C.ar      1 <0>        -0.0610
      6 C6          0.2071    0.4595   -0.8267 C.ar      1 <0>        -0.0988
      7 C7          1.3610   -1.6981   -0.7410 C.ar      1 <0>        -0.0826
      8 C8          2.5187   -2.4072   -0.6440 C.ar      1 <0>        -0.1394
      9 C9          3.7510   -1.7627   -0.5311 C.ar      1 <0>         0.1359
     10 C10         3.8236   -0.3757   -0.5166 C.ar      1 <0>        -0.0661
     11 C11         5.1333    0.3039   -0.3976 C.ar      1 <0>        -0.0438
     12 C12         5.6502    0.6117    0.8601 C.ar      1 <0>        -0.0883
     13 C13         6.8771    1.2476    0.9646 C.ar      1 <0>         0.1332
     14 C14         7.5907    1.5783   -0.1814 C.ar      1 <0>        -0.1297
     15 C15         7.0819    1.2756   -1.4300 C.ar      1 <0>        -0.1191
     16 C16         5.8597    0.6347   -1.5466 C.ar      1 <0>         0.1145
     17 O1          5.3640    0.3324   -2.7760 O.3       1 <0>        -0.4914
     18 N1          7.3982    1.5575    2.2259 N.pl3     1 <0>        -1.0500
     19 S1          8.9816    1.2196    2.5735 S.o2      1 <0>         2.6901
     20 O2          9.7587    1.8051    1.5378 O.2       1 <0>        -0.9393
     21 O3          9.1739    1.5404    3.9444 O.2       1 <0>        -0.9287
     22 C17         9.1854   -0.5248    2.4312 C.ar      1 <0>        -0.6629
     23 C18        10.0220   -1.0461    1.4623 C.ar      1 <0>         0.0027
     24 C19        10.1819   -2.4156    1.3505 C.ar      1 <0>        -0.0524
     25 C20         9.5044   -3.2636    2.2088 C.ar      1 <0>        -0.0386
     26 C21         8.6680   -2.7425    3.1774 C.ar      1 <0>        -0.1117
     27 C22         8.5125   -1.3723    3.2928 C.ar      1 <0>         0.0587
     28 Cl1         7.4673   -0.7173    4.5144 Cl        1 <0>        -0.0311
     29 Cl2        11.2322   -3.0704    0.1332 Cl        1 <0>        -0.0433
     30 O4          4.8893   -2.4978   -0.4356 O.3       1 <0>        -0.4927
     31 H1         -0.6417    2.3946   -0.8819 H         1 <0>         0.1251
     32 H2          1.5139    3.5592   -0.6887 H         1 <0>         0.1248
     33 H3          3.5976    2.3073   -0.5168 H         1 <0>         0.1250
     34 H4         -0.7470   -0.0389   -0.9138 H         1 <0>         0.1294
     35 H5          0.4174   -2.2164   -0.8273 H         1 <0>         0.1334
     36 H6          2.4828   -3.4866   -0.6542 H         1 <0>         0.1327
     37 H7          5.0957    0.3554    1.7507 H         1 <0>         0.1341
     38 H8          8.5463    2.0742   -0.0957 H         1 <0>         0.1610
     39 H9          7.6406    1.5358   -2.3169 H         1 <0>         0.1411
     40 H10         4.8161    1.0297   -3.1615 H         1 <0>         0.3915
     41 H11        10.5505   -0.3843    0.7922 H         1 <0>         0.1637
     42 H12         9.6289   -4.3329    2.1213 H         1 <0>         0.1544
     43 H13         8.1389   -3.4044    3.8470 H         1 <0>         0.1555
     44 H14         5.2965   -2.7049   -1.2879 H         1 <0>         0.3930
     45 H15         6.8319    1.9704    2.8965 H         1 <0>         0.4304
@<TRIPOS>BOND
     1    1    6 ar
     2    1    2 ar
     3    1   31 1
     4    2    3 ar
     5    2   32 1
     6    3    4 ar
     7    3   33 1
     8    4   10 ar
     9    4    5 ar
    10    5    6 ar
    11    5    7 ar
    12    6   34 1
    13    7    8 ar
    14    7   35 1
    15    8    9 ar
    16    8   36 1
    17    9   10 ar
    18    9   30 1
    19   10   11 1
    20   11   16 ar
    21   11   12 ar
    22   12   13 ar
    23   12   37 1
    24   13   14 ar
    25   13   18 1
    26   14   15 ar
    27   14   38 1
    28   15   16 ar
    29   15   39 1
    30   16   17 1
    31   17   40 1
    32   18   19 1
    33   18   45 1
    34   19   20 2
    35   19   21 2
    36   19   22 1
    37   22   27 ar
    38   22   23 ar
    39   23   24 ar
    40   23   41 1
    41   24   25 ar
    42   24   29 1
    43   25   26 ar
    44   25   42 1
    45   26   27 ar
    46   26   43 1
    47   27   28 1
    48   30   44 1
@<TRIPOS>MOLECULE
ZINC34717850
   93    94     0     0     0
SMALL
USER_CHARGES

@<TRIPOS>ATOM
      1 C1         -0.1042    1.6868    0.2662 C.3       1 <0>        -0.1385
      2 C2         -0.0480    0.1555    0.2967 C.3       1 <0>        -0.0803
      3 H1         -1.0593   -0.2472    0.2572 H         1 <0>         0.0951
      4 C3          0.7550   -0.3466   -0.9030 C.3       1 <0>        -0.1308
      5 C4         -0.1684   -0.6336   -2.0893 C.3       1 <0>         0.1033
      6 H2          0.4464   -0.8163   -2.9759 H         1 <0>         0.0622
      7 C5         -1.0324   -1.8635   -1.8270 C.3       1 <0>         0.1154
      8 H3         -1.5729   -1.7503   -0.8870 H         1 <0>         0.0746
      9 C6         -2.0569   -2.0383   -2.9579 C.3       1 <0>        -0.0875
     10 H4         -2.0289   -1.1714   -3.6050 H         1 <0>         0.0905
     11 C7         -3.4165   -2.2502   -2.3555 C.2       1 <0>        -0.1174
     12 C8         -4.4932   -1.6226   -2.7384 C.2       1 <0>        -0.1311
     13 C9         -5.7960   -1.9375   -2.0365 C.3       1 <0>         0.1175
     14 H5         -6.0487   -2.9838   -2.2191 H         1 <0>         0.1014
     15 C10        -5.6240   -1.7113   -0.5367 C.3       1 <0>         0.1200
     16 H6         -5.4162   -2.6698   -0.0548 H         1 <0>         0.1262
     17 C11        -6.8651   -1.1098    0.0658 C.2       1 <0>        -0.1420
     18 C12        -6.8419   -0.6907    1.3414 C.2       1 <0>        -0.1248
     19 C13        -5.6367   -0.8612    2.1288 C.2       1 <0>        -0.0098
     20 C14        -5.2427   -0.0148    3.1110 C.2       1 <0>        -0.1767
     21 C15        -3.9983   -0.3232    3.7934 C.2       1 <0>         0.5177
     22 O1         -3.6357   -1.4931    3.6989 O.2       1 <0>        -0.4775
     23 N1         -3.2438    0.4951    4.5069 N.2       1 <0>        -0.4794
     24 C16        -1.9950    0.7406    4.2652 C.2       1 <0>         0.2095
     25 C17        -1.2284    1.6484    5.1860 C.3       1 <0>        -0.1241
     26 C18         0.1371    2.0001    4.6650 C.2       1 <0>         0.4137
     27 O2          0.7796    2.8549    5.2190 O.2       1 <0>        -0.4358
     28 C19         0.7109    1.3218    3.4874 C.2       1 <0>         0.1525
     29 C20         0.0109    0.4201    2.7671 C.2       1 <0>        -0.2068
     30 C21         0.6256   -0.3033    1.5947 C.3       1 <0>        -0.0552
     31 C22        -1.3379    0.1147    3.0999 C.2       1 <0>         0.3680
     32 O3         -1.9359   -0.6687    2.3886 O.2       1 <0>        -0.3768
     33 N2          2.0032    1.6407    3.1387 N.pl3     1 <0>        -0.7112
     34 C23         2.7541    2.6207    3.9273 C.3       1 <0>         0.0998
     35 C24         4.1529    2.7908    3.3314 C.3       1 <0>        -0.0309
     36 N3          4.9059    3.7735    4.1222 N.4       1 <0>        -0.3811
     37 C25         6.2858    3.8489    3.6242 C.3       1 <0>        -0.0469
     38 C26         4.2687    5.0915    4.0006 C.3       1 <0>        -0.0560
     39 C27        -6.0588    1.1944    3.4766 C.3       1 <0>        -0.1071
     40 O4         -4.5157   -0.8320   -0.3215 O.3       1 <0>        -0.3471
     41 C28        -4.7380    0.5050   -0.7745 C.3       1 <0>         0.0246
     42 O5         -6.8259   -1.0954   -2.5506 O.3       1 <0>        -0.3510
     43 C29        -7.5203   -1.5552   -3.6085 C.2       1 <0>         0.6474
     44 O6         -7.2572   -2.6431   -4.0815 O.2       1 <0>        -0.5655
     45 N4         -8.5071   -0.8088   -4.1429 N.am      1 <0>        -0.8261
     46 C30        -4.4872   -0.6005   -3.8420 C.3       1 <0>        -0.1117
     47 C31        -1.6772   -3.2826   -3.7737 C.3       1 <0>        -0.1397
     48 O7         -0.2138   -3.0322   -1.7626 O.3       1 <0>        -0.5641
     49 O8         -1.0048    0.4990   -2.3364 O.3       1 <0>        -0.3667
     50 C32        -0.4479    1.4440   -3.2523 C.3       1 <0>         0.0304
     51 H7          0.9083    2.0884    0.3059 H         1 <0>         0.0385
     52 H8         -0.5893    2.0143   -0.6533 H         1 <0>         0.0677
     53 H9         -0.6717    2.0467    1.1244 H         1 <0>         0.0435
     54 H10         1.4886    0.4088   -1.1932 H         1 <0>         0.0581
     55 H11         1.2908   -1.2646   -0.6238 H         1 <0>         0.0802
     56 H12        -3.5097   -2.9736   -1.5410 H         1 <0>         0.1025
     57 H13        -7.7761   -1.0139   -0.5029 H         1 <0>         0.1327
     58 H14        -7.7229   -0.2410    1.7692 H         1 <0>         0.1290
     59 H15        -5.0081   -1.7348    1.9427 H         1 <0>         0.1350
     60 H16        -1.7925    2.5637    5.3357 H         1 <0>         0.1482
     61 H17        -1.1171    1.1425    6.1472 H         1 <0>         0.1513
     62 H18         0.4815   -1.3796    1.7159 H         1 <0>         0.0848
     63 H19         1.6989   -0.0993    1.5355 H         1 <0>         0.0594
     64 H20         2.4170    1.2166    2.3706 H         1 <0>         0.4136
     65 H21         2.2327    3.5777    3.9094 H         1 <0>         0.0986
     66 H22         2.8375    2.2716    4.9565 H         1 <0>         0.0927
     67 H23         4.6743    1.8338    3.3493 H         1 <0>         0.1370
     68 H24         4.0694    3.1399    2.3022 H         1 <0>         0.1360
     69 H25         6.2783    4.1536    2.5777 H         1 <0>         0.1232
     70 H26         6.8445    4.5780    4.2110 H         1 <0>         0.1283
     71 H27         6.7586    2.8709    3.7145 H         1 <0>         0.1248
     72 H28         4.2612    5.3963    2.9541 H         1 <0>         0.1238
     73 H29         3.2448    5.0356    4.3701 H         1 <0>         0.1279
     74 H30         4.8274    5.8207    4.5874 H         1 <0>         0.1285
     75 H31        -6.7747    0.9281    4.2542 H         1 <0>         0.0731
     76 H32        -5.3991    1.9805    3.8439 H         1 <0>         0.0652
     77 H33        -6.5941    1.5511    2.5966 H         1 <0>         0.0685
     78 H34        -3.8117    1.0741   -0.6954 H         1 <0>         0.0791
     79 H35        -5.0656    0.4867   -1.8139 H         1 <0>         0.0589
     80 H36        -5.5061    0.9739   -0.1596 H         1 <0>         0.0359
     81 H37        -8.7170    0.0597   -3.7653 H         1 <0>         0.4083
     82 H38        -9.0073   -1.1401   -4.9051 H         1 <0>         0.4277
     83 H39        -3.4631   -0.4309   -4.1745 H         1 <0>         0.0681
     84 H40        -5.0849   -0.9645   -4.6776 H         1 <0>         0.0585
     85 H41        -4.9091    0.3345   -3.4735 H         1 <0>         0.0674
     86 H42        -1.6865   -4.1588   -3.1254 H         1 <0>         0.0552
     87 H43        -2.3957   -3.4207   -4.5815 H         1 <0>         0.0546
     88 H44        -0.6797   -3.1516   -4.1931 H         1 <0>         0.0610
     89 H45        -0.7056   -3.8483   -1.5978 H         1 <0>         0.3854
     90 H46         0.4954    1.8209   -2.8568 H         1 <0>         0.0384
     91 H47        -0.2714    0.9589   -4.2123 H         1 <0>         0.0420
     92 H48        -1.1428    2.2730   -3.3864 H         1 <0>         0.0865
     93 H49         4.9128    3.4914    5.0909 H         1 <0>         0.4304
@<TRIPOS>BOND
     1    1    2 1
     2    1   51 1
     3    1   52 1
     4    1   53 1
     5    2    3 1
     6    2   30 1
     7    2    4 1
     8    4    5 1
     9    4   54 1
    10    4   55 1
    11    5    6 1
    12    5    7 1
    13    5   49 1
    14    7    8 1
    15    7    9 1
    16    7   48 1
    17    9   10 1
    18    9   11 1
    19    9   47 1
    20   11   12 2
    21   11   56 1
    22   12   13 1
    23   12   46 1
    24   13   14 1
    25   13   15 1
    26   13   42 1
    27   15   16 1
    28   15   17 1
    29   15   40 1
    30   17   18 2
    31   17   57 1
    32   18   19 1
    33   18   58 1
    34   19   20 2
    35   19   59 1
    36   20   21 1
    37   20   39 1
    38   21   22 2
    39   21   23 1
    40   23   24 2
    41   24   31 1
    42   24   25 1
    43   25   26 1
    44   25   60 1
    45   25   61 1
    46   26   27 2
    47   26   28 1
    48   28   29 2
    49   28   33 1
    50   29   30 1
    51   29   31 1
    52   30   62 1
    53   30   63 1
    54   31   32 2
    55   33   34 1
    56   33   64 1
    57   34   35 1
    58   34   65 1
    59   34   66 1
    60   35   36 1
    61   35   67 1
    62   35   68 1
    63   36   37 1
    64   36   38 1
    65   36   93 1
    66   37   69 1
    67   37   70 1
    68   37   71 1
    69   38   72 1
    70   38   73 1
    71   38   74 1
    72   39   75 1
    73   39   76 1
    74   39   77 1
    75   40   41 1
    76   41   78 1
    77   41   79 1
    78   41   80 1
    79   42   43 1
    80   43   44 2
    81   43   45 am
    82   45   81 1
    83   45   82 1
    84   46   83 1
    85   46   84 1
    86   46   85 1
    87   47   86 1
    88   47   87 1
    89   47   88 1
    90   48   89 1
    91   49   50 1
    92   50   90 1
    93   50   91 1
    94   50   92 1
@<TRIPOS>MOLECULE
ZINC34717850
   92    93     0     0     0
SMALL
USER_CHARGES

@<TRIPOS>ATOM
      1 C1         -0.0187    1.5266    0.0104 C.3       1 <0>        -0.1368
      2 C2          0.0021   -0.0041    0.0020 C.3       1 <0>        -0.0796
      3 H1         -1.0185   -0.3804    0.0097 H         1 <0>         0.0943
      4 C3          0.7240   -0.4969   -1.2509 C.3       1 <0>        -0.1343
      5 C4         -0.2843   -0.9523   -2.3042 C.3       1 <0>         0.1029
      6 H2          0.2253   -1.0504   -3.2677 H         1 <0>         0.0598
      7 C5         -0.8822   -2.3056   -1.9193 C.3       1 <0>         0.1144
      8 H3         -1.4193   -2.2192   -0.9773 H         1 <0>         0.0744
      9 C6         -1.8534   -2.7617   -3.0178 C.3       1 <0>        -0.0899
     10 H4         -1.9714   -1.9528   -3.7330 H         1 <0>         0.0894
     11 C7         -3.1676   -3.1357   -2.3924 C.2       1 <0>        -0.1183
     12 C8         -4.3184   -2.9853   -2.9930 C.2       1 <0>        -0.1504
     13 C9         -5.5785   -3.4112   -2.2750 C.3       1 <0>         0.1580
     14 H5         -5.3220   -4.1437   -1.5094 H         1 <0>         0.1009
     15 C10        -6.2428   -2.2011   -1.6180 C.3       1 <0>         0.1183
     16 H6         -5.4757   -1.5275   -1.2461 H         1 <0>         0.0957
     17 C11        -7.1382   -2.6589   -0.4983 C.2       1 <0>        -0.1378
     18 C12        -6.8702   -2.3762    0.7788 C.2       1 <0>        -0.1287
     19 C13        -5.6921   -1.6039    1.1361 C.2       1 <0>        -0.0413
     20 C14        -5.3024   -1.3883    2.4171 C.2       1 <0>        -0.1685
     21 C15        -4.1046   -0.5863    2.6091 C.2       1 <0>         0.5531
     22 O1         -3.6070   -0.0982    1.6052 O.2       1 <0>        -0.4924
     23 N1         -3.5308   -0.3092    3.7909 N.am      1 <0>        -0.6602
     24 C16        -2.1862    0.0334    3.7490 C.2       1 <0>         0.1672
     25 C17        -1.6516    0.8547    4.6809 C.2       1 <0>        -0.2474
     26 C18        -0.2543    1.2726    4.5451 C.2       1 <0>         0.4238
     27 O2          0.2543    1.9892    5.3851 O.2       1 <0>        -0.4219
     28 C19         0.5442    0.8192    3.3684 C.2       1 <0>         0.1914
     29 C20        -0.0056   -0.0307    2.4749 C.2       1 <0>        -0.2762
     30 C21         0.7393   -0.5052    1.2511 C.3       1 <0>        -0.0407
     31 C22        -1.3303   -0.5067    2.6650 C.2       1 <0>         0.4314
     32 O3         -1.7334   -1.3995    1.9422 O.2       1 <0>        -0.4225
     33 N2          1.8365    1.2652    3.2222 N.pl3     1 <0>        -0.6933
     34 C23         2.4142    2.1747    4.2149 C.3       1 <0>         0.1191
     35 C24         3.8525    2.5146    3.8191 C.3       1 <0>         0.0389
     36 N3          4.4318    3.4265    4.8145 N.3       1 <0>        -0.5413
     37 C25         5.8763    3.5886    4.6023 C.3       1 <0>         0.0241
     38 C26         3.7482    4.7267    4.7981 C.3       1 <0>         0.0170
     39 C27        -6.0647   -1.9520    3.5806 C.3       1 <0>        -0.1211
     40 O4         -7.0339   -1.5122   -2.5923 O.3       1 <0>        -0.3575
     41 C28        -7.1428   -0.1058   -2.3636 C.3       1 <0>         0.0244
     42 O5         -6.4798   -4.0004   -3.2136 O.3       1 <0>        -0.3340
     43 C29        -6.3812   -5.3295   -3.4042 C.2       1 <0>         0.6452
     44 O6         -5.5522   -5.9715   -2.7900 O.2       1 <0>        -0.5715
     45 N4         -7.2019   -5.9480   -4.2761 N.am      1 <0>        -0.8264
     46 C30        -4.4228   -2.4038   -4.3783 C.3       1 <0>        -0.1049
     47 C31        -1.2572   -3.9845   -3.7240 C.3       1 <0>        -0.1347
     48 O7          0.1619   -3.2725   -1.7893 O.3       1 <0>        -0.5598
     49 O8         -1.3288    0.0137   -2.4296 O.3       1 <0>        -0.3673
     50 C32        -1.0698    1.0268   -3.4036 C.3       1 <0>         0.0320
     51 H7          1.0039    1.9039    0.0027 H         1 <0>         0.0406
     52 H8         -0.5459    1.8877   -0.8726 H         1 <0>         0.0548
     53 H9         -0.5289    1.8781    0.9072 H         1 <0>         0.0485
     54 H10         1.3296    0.3170   -1.6577 H         1 <0>         0.0575
     55 H11         1.3822   -1.3253   -0.9874 H         1 <0>         0.0824
     56 H12        -3.1642   -3.5545   -1.3867 H         1 <0>         0.1055
     57 H13        -8.0276   -3.2353   -0.7299 H         1 <0>         0.1287
     58 H14        -7.5533   -2.7300    1.5403 H         1 <0>         0.1303
     59 H15        -5.0744   -1.1655    0.3556 H         1 <0>         0.1365
     60 H16        -4.0236   -0.3407    4.6345 H         1 <0>         0.4239
     61 H17         0.7564   -1.5981    1.2409 H         1 <0>         0.0755
     62 H18         1.7581   -0.1305    1.2429 H         1 <0>         0.0578
     63 H19         2.3657    0.9778    2.4618 H         1 <0>         0.4080
     64 H20         1.8231    3.0895    4.2571 H         1 <0>         0.0762
     65 H21         2.4105    1.6943    5.1933 H         1 <0>         0.0877
     66 H22         4.4436    1.5998    3.7769 H         1 <0>         0.0815
     67 H23         3.8562    2.9950    2.8407 H         1 <0>         0.0408
     68 H24         6.0538    3.9982    3.6079 H         1 <0>         0.0272
     69 H25         6.2797    4.2684    5.3527 H         1 <0>         0.0729
     70 H26         6.3672    2.6192    4.6889 H         1 <0>         0.0703
     71 H27         2.6920    4.5848    5.0271 H         1 <0>         0.0738
     72 H28         4.1967    5.3824    5.5444 H         1 <0>         0.0722
     73 H29         3.8486    5.1776    3.8109 H         1 <0>         0.0273
     74 H30        -6.9198   -2.5198    3.2139 H         1 <0>         0.0768
     75 H31        -5.4134   -2.6082    4.1580 H         1 <0>         0.0737
     76 H32        -6.4144   -1.1374    4.2149 H         1 <0>         0.0715
     77 H33        -6.1496    0.3429   -2.3802 H         1 <0>         0.0451
     78 H34        -7.7572    0.3427   -3.1443 H         1 <0>         0.0893
     79 H35        -7.6046    0.0696   -1.3920 H         1 <0>         0.0416
     80 H36        -7.8636   -5.4356   -4.7664 H         1 <0>         0.4091
     81 H37        -7.1308   -6.9057   -4.4134 H         1 <0>         0.4253
     82 H38        -3.4265   -2.1559   -4.7443 H         1 <0>         0.0616
     83 H39        -4.8838   -3.1329   -5.0446 H         1 <0>         0.0616
     84 H40        -5.0338   -1.5016   -4.3485 H         1 <0>         0.0701
     85 H41        -1.1128   -4.7872   -3.0008 H         1 <0>         0.0562
     86 H42        -1.9373   -4.3192   -4.5072 H         1 <0>         0.0531
     87 H43        -0.2975   -3.7168   -4.1660 H         1 <0>         0.0635
     88 H44        -0.1479   -4.1556   -1.5460 H         1 <0>         0.3826
     89 H45        -1.9095    1.7208   -3.4381 H         1 <0>         0.0853
     90 H46        -0.1626    1.5672   -3.1332 H         1 <0>         0.0409
     91 H47        -0.9395    0.5650   -4.3823 H         1 <0>         0.0392
     92 H48        -2.2590    1.2126    5.4983 H         1 <0>         0.1566
@<TRIPOS>BOND
     1    1    2 1
     2    1   51 1
     3    1   52 1
     4    1   53 1
     5    2    3 1
     6    2   30 1
     7    2    4 1
     8    4    5 1
     9    4   54 1
    10    4   55 1
    11    5    6 1
    12    5    7 1
    13    5   49 1
    14    7    8 1
    15    7    9 1
    16    7   48 1
    17    9   10 1
    18    9   11 1
    19    9   47 1
    20   11   12 2
    21   11   56 1
    22   12   13 1
    23   12   46 1
    24   13   14 1
    25   13   15 1
    26   13   42 1
    27   15   16 1
    28   15   17 1
    29   15   40 1
    30   17   18 2
    31   17   57 1
    32   18   19 1
    33   18   58 1
    34   19   20 2
    35   19   59 1
    36   20   21 1
    37   20   39 1
    38   21   22 2
    39   21   23 am
    40   23   24 1
    41   23   60 1
    42   24   31 1
    43   24   25 2
    44   25   92 1
    45   25   26 1
    46   26   27 2
    47   26   28 1
    48   28   33 1
    49   28   29 2
    50   29   31 1
    51   29   30 1
    52   30   61 1
    53   30   62 1
    54   31   32 2
    55   33   63 1
    56   33   34 1
    57   34   35 1
    58   34   64 1
    59   34   65 1
    60   35   36 1
    61   35   66 1
    62   35   67 1
    63   36   37 1
    64   36   38 1
    65   37   68 1
    66   37   69 1
    67   37   70 1
    68   38   71 1
    69   38   72 1
    70   38   73 1
    71   39   74 1
    72   39   75 1
    73   39   76 1
    74   40   41 1
    75   41   77 1
    76   41   78 1
    77   41   79 1
    78   42   43 1
    79   43   44 2
    80   43   45 am
    81   45   80 1
    82   45   81 1
    83   46   82 1
    84   46   83 1
    85   46   84 1
    86   47   85 1
    87   47   86 1
    88   47   87 1
    89   48   88 1
    90   49   50 1
    91   50   89 1
    92   50   90 1
    93   50   91 1
@<TRIPOS>MOLECULE
ZINC14974449
   47    50     0     0     0
SMALL
USER_CHARGES
4-chloro-6-[5-(2-morpholinoethylamino)-1,2-benzoxazol-3-yl]benzene-1,3-diol
@<TRIPOS>ATOM
      1 C1          3.2076   -1.8374    0.3075 C.ar      1 <0>        -0.1336
      2 C2          1.8444   -1.7023    0.1629 C.ar      1 <0>        -0.0750
      3 C3          1.2767   -0.4373    0.0698 C.ar      1 <0>         0.0296
      4 C4          2.0993    0.6979    0.1239 C.ar      1 <0>        -0.1337
      5 C5          3.4785    0.5536    0.2699 C.ar      1 <0>        -0.1303
      6 C6          4.0279   -0.7127    0.3616 C.ar      1 <0>         0.2008
      7 N1          5.4111   -0.8642    0.5087 N.pl3     1 <0>        -0.7575
      8 C7          5.9950   -2.2043    0.6055 C.3       1 <0>         0.1304
      9 C8          7.5129   -2.0894    0.7593 C.3       1 <0>         0.0449
     10 N2          8.0984   -3.4332    0.8564 N.3       1 <0>        -0.5332
     11 C9          7.6777   -4.1029    2.0957 C.3       1 <0>         0.0111
     12 C10         8.2604   -5.5183    2.1277 C.3       1 <0>         0.0607
     13 O1          9.6837   -5.4452    2.0080 O.3       1 <0>        -0.3844
     14 C11        10.1285   -4.7994    0.8120 C.3       1 <0>         0.0609
     15 C12         9.5647   -3.3768    0.7667 C.3       1 <0>         0.0175
     16 C13         1.2082    1.8640    0.0005 C.2       1 <0>         0.1790
     17 N3         -0.0113    1.4076   -0.1129 N.2       1 <0>        -0.2628
     18 O2          0.0057   -0.0050   -0.0729 O.3       1 <0>        -0.0909
     19 C14         1.6173    3.2869    0.0033 C.ar      1 <0>        -0.1162
     20 C15         2.6920    3.7075   -0.7805 C.ar      1 <0>         0.0038
     21 C16         3.0703    5.0333   -0.7762 C.ar      1 <0>        -0.1233
     22 C17         2.3833    5.9538    0.0080 C.ar      1 <0>         0.2306
     23 C18         1.3141    5.5437    0.7898 C.ar      1 <0>        -0.3067
     24 C19         0.9235    4.2153    0.7879 C.ar      1 <0>         0.2416
     25 O3         -0.1271    3.8133    1.5489 O.3       1 <0>        -0.4870
     26 O4          2.7612    7.2586    0.0083 O.3       1 <0>        -0.4889
     27 Cl1         4.4075    5.5552   -1.7526 Cl        1 <0>        -0.0498
     28 H1          3.6439   -2.8227    0.3790 H         1 <0>         0.1373
     29 H2          1.2165   -2.5800    0.1215 H         1 <0>         0.1396
     30 H3          4.1142    1.4256    0.3119 H         1 <0>         0.1302
     31 H4          6.0601    0.0229    0.5517 H         1 <0>         0.4203
     32 H5          5.5762   -2.7244    1.4796 H         1 <0>         0.0585
     33 H6          5.7609   -2.7730   -0.3065 H         1 <0>         0.0694
     34 H7          7.9317   -1.5693   -0.1148 H         1 <0>         0.0846
     35 H8          7.7471   -1.5207    1.6713 H         1 <0>         0.0430
     36 H9          8.0443   -3.5337    2.9627 H         1 <0>         0.0455
     37 H10         6.5795   -4.1556    2.1294 H         1 <0>         0.0903
     38 H11         7.9949   -6.0027    3.0789 H         1 <0>         0.1010
     39 H12         7.8497   -6.1029    1.2913 H         1 <0>         0.0622
     40 H13        11.2278   -4.7607    0.8033 H         1 <0>         0.1014
     41 H14         9.7746   -5.3642   -0.0631 H         1 <0>         0.0622
     42 H15         9.8560   -2.8948   -0.1782 H         1 <0>         0.0894
     43 H16         9.9617   -2.7959    1.6122 H         1 <0>         0.0453
     44 H17         3.2276    2.9948   -1.3902 H         1 <0>         0.1505
     45 H18         0.7831    6.2615    1.3974 H         1 <0>         0.1471
     46 H19        -0.6714    4.5441    2.1650 H         1 <0>         0.4417
     47 H20         2.2190    7.9881    0.6279 H         1 <0>         0.4429
@<TRIPOS>BOND
     1    1    6 ar
     2    1    2 ar
     3    1   28 1
     4    2    3 ar
     5    2   29 1
     6    3   18 1
     7    3    4 ar
     8    4    5 ar
     9    4   16 1
    10    5    6 ar
    11    5   30 1
    12    6    7 1
    13    7    8 1
    14    7   31 1
    15    8    9 1
    16    8   32 1
    17    8   33 1
    18    9   10 1
    19    9   34 1
    20    9   35 1
    21   10   15 1
    22   10   11 1
    23   11   12 1
    24   11   36 1
    25   11   37 1
    26   12   13 1
    27   12   38 1
    28   12   39 1
    29   13   14 1
    30   14   15 1
    31   14   40 1
    32   14   41 1
    33   15   42 1
    34   15   43 1
    35   16   17 2
    36   16   19 1
    37   17   18 1
    38   19   24 ar
    39   19   20 ar
    40   20   21 ar
    41   20   44 1
    42   21   22 ar
    43   21   27 1
    44   22   23 ar
    45   22   26 1
    46   23   24 ar
    47   23   45 1
    48   24   25 1
    49   25   46 1
    50   26   47 1
@<TRIPOS>MOLECULE
ZINC00781555
   45    48     0     0     0
SMALL
USER_CHARGES

@<TRIPOS>ATOM
      1 C1          7.0160   -5.2237   -0.1758 C.ar      1 <0>        -0.0584
      2 C2          5.6448   -5.2740   -0.3436 C.ar      1 <0>        -0.1377
      3 C3          4.8999   -4.1104   -0.2987 C.ar      1 <0>        -0.0178
      4 C4          5.5261   -2.8966   -0.0857 C.ar      1 <0>        -0.6753
      5 C5          6.8972   -2.8464    0.0830 C.ar      1 <0>        -0.0187
      6 C6          7.6423   -4.0098    0.0368 C.ar      1 <0>        -0.1390
      7 S1          4.5767   -1.4133   -0.0297 S.o2      1 <0>         2.6873
      8 O1          5.4293   -0.3682   -0.4771 O.2       1 <0>        -0.9508
      9 O2          3.3338   -1.7028   -0.6548 O.2       1 <0>        -0.9462
     10 N1          4.2448   -1.1042    1.5630 N.pl3     1 <0>        -1.0615
     11 C7          3.4370   -1.9835    2.2928 C.ar      1 <0>         0.1153
     12 C8          2.0624   -1.9957    2.0873 C.ar      1 <0>        -0.0827
     13 C9          1.2587   -2.8614    2.8045 C.ar      1 <0>        -0.1344
     14 C10         1.8190   -3.7230    3.7328 C.ar      1 <0>         0.1291
     15 C11         3.2019   -3.7165    3.9446 C.ar      1 <0>        -0.0558
     16 C12         4.0094   -2.8448    3.2153 C.ar      1 <0>        -0.0732
     17 C13         3.8061   -4.6353    4.9356 C.ar      1 <0>        -0.0662
     18 C14         4.2403   -5.9241    4.5446 C.ar      1 <0>        -0.0214
     19 C15         4.1122   -6.3629    3.2186 C.ar      1 <0>        -0.1103
     20 C16         4.5410   -7.6096    2.8762 C.ar      1 <0>        -0.1060
     21 C17         5.1066   -8.4582    3.8254 C.ar      1 <0>        -0.1194
     22 C18         5.2460   -8.0654    5.1213 C.ar      1 <0>        -0.0986
     23 C19         4.8151   -6.7854    5.5107 C.ar      1 <0>        -0.0608
     24 C20         4.9461   -6.3483    6.8409 C.ar      1 <0>        -0.0831
     25 C21         4.5223   -5.1052    7.1967 C.ar      1 <0>        -0.1391
     26 C22         3.9581   -4.2401    6.2581 C.ar      1 <0>         0.1359
     27 O3          3.5501   -3.0027    6.6424 O.3       1 <0>        -0.4928
     28 O4          1.0262   -4.5735    4.4376 O.3       1 <0>        -0.4917
     29 H1          7.5975   -6.1333   -0.2063 H         1 <0>         0.1314
     30 H2          5.1556   -6.2223   -0.5100 H         1 <0>         0.1327
     31 H3          3.8286   -4.1496   -0.4305 H         1 <0>         0.1399
     32 H4          7.3864   -1.8980    0.2491 H         1 <0>         0.1386
     33 H5          8.7135   -3.9705    0.1682 H         1 <0>         0.1336
     34 H6          4.6103   -0.3136    1.9900 H         1 <0>         0.4276
     35 H7          1.6206   -1.3257    1.3645 H         1 <0>         0.1422
     36 H8          0.1912   -2.8658    2.6410 H         1 <0>         0.1406
     37 H9          5.0779   -2.8380    3.3718 H         1 <0>         0.1327
     38 H10         3.6753   -5.7155    2.4727 H         1 <0>         0.1233
     39 H11         4.4408   -7.9451    1.8545 H         1 <0>         0.1233
     40 H12         5.4388   -9.4421    3.5288 H         1 <0>         0.1245
     41 H13         5.6860   -8.7339    5.8465 H         1 <0>         0.1291
     42 H14         5.3837   -7.0009    7.5818 H         1 <0>         0.1335
     43 H15         4.6281   -4.7812    8.2215 H         1 <0>         0.1332
     44 H16         2.6314   -2.9670    6.9421 H         1 <0>         0.3939
     45 H17         0.8957   -5.4324    4.0130 H         1 <0>         0.3933
@<TRIPOS>BOND
     1    1    6 ar
     2    1    2 ar
     3    1   29 1
     4    2    3 ar
     5    2   30 1
     6    3    4 ar
     7    3   31 1
     8    4    5 ar
     9    4    7 1
    10    5    6 ar
    11    5   32 1
    12    6   33 1
    13    7    8 2
    14    7    9 2
    15    7   10 1
    16   10   11 1
    17   10   34 1
    18   11   16 ar
    19   11   12 ar
    20   12   13 ar
    21   12   35 1
    22   13   14 ar
    23   13   36 1
    24   14   15 ar
    25   14   28 1
    26   15   16 ar
    27   15   17 1
    28   16   37 1
    29   17   26 ar
    30   17   18 ar
    31   18   23 ar
    32   18   19 ar
    33   19   20 ar
    34   19   38 1
    35   20   21 ar
    36   20   39 1
    37   21   22 ar
    38   21   40 1
    39   22   23 ar
    40   22   41 1
    41   23   24 ar
    42   24   25 ar
    43   24   42 1
    44   25   26 ar
    45   25   43 1
    46   26   27 1
    47   27   44 1
    48   28   45 1
@<TRIPOS>MOLECULE
ZINC13515668
   42    44     0     0     0
SMALL
USER_CHARGES
chloro-dihydroxy-methyl-BLAHdione
@<TRIPOS>ATOM
      1 C1         -1.3916    1.2428    4.1873 C.3       1 <0>        -0.1768
      2 C2         -0.3366    0.2031    3.8030 C.3       1 <0>         0.1063
      3 H1         -0.8017   -0.7738    3.6047 H         1 <0>         0.1162
      4 C3          0.7005    0.0808    4.9249 C.3       1 <0>        -0.1899
      5 C4          0.9246   -1.3926    5.2565 C.3       1 <0>        -0.0015
      6 H2          0.7945   -1.7033    4.2093 H         1 <0>         0.1562
      7 C5          1.8742   -1.7631    6.3906 C.3       1 <0>         0.0163
      8 H3          2.7381   -2.4364    6.4921 H         1 <0>         0.1664
      9 O1          0.4550   -1.8843    6.5142 O.3       1 <0>        -0.3117
     10 C6          2.5430   -0.6874    7.2013 C.2       1 <0>        -0.1413
     11 C7          3.3594    0.2015    6.6484 C.2       1 <0>        -0.1363
     12 C8          3.6645    0.1861    5.2238 C.2       1 <0>        -0.0284
     13 C9          3.8462    1.3720    4.5837 C.2       1 <0>        -0.2268
     14 C10         4.0794    1.3957    3.1983 C.2       1 <0>         0.3939
     15 O2          4.3970    0.3852    2.6072 O.2       1 <0>        -0.4563
     16 C11         3.8980    2.6919    2.4427 C.3       1 <0>        -0.1499
     17 C12         3.1538    2.4012    1.1652 C.ar      1 <0>         0.0845
     18 C13         1.8744    1.8349    1.2021 C.ar      1 <0>        -0.2050
     19 C14         1.2213    1.5318   -0.0014 C.ar      1 <0>         0.2658
     20 C15         1.8308    1.8249   -1.2090 C.ar      1 <0>        -0.2704
     21 C16         3.0918    2.3991   -1.2310 C.ar      1 <0>         0.2534
     22 C17         3.7525    2.6836   -0.0395 C.ar      1 <0>        -0.1825
     23 Cl1         5.3347    3.3980   -0.0790 Cl        1 <0>        -0.0470
     24 O3          3.6848    2.6856   -2.4177 O.3       1 <0>        -0.4904
     25 O4         -0.0110    0.9628    0.0073 O.3       1 <0>        -0.4757
     26 C18         1.2111    1.5345    2.4826 C.2       1 <0>         0.5285
     27 O5          1.4831    2.2084    3.4592 O.2       1 <0>        -0.5074
     28 O6          0.2919    0.5683    2.5572 O.3       1 <0>        -0.3394
     29 H4         -1.8628    0.9529    5.1380 H         1 <0>         0.0767
     30 H5         -2.1576    1.2963    3.3997 H         1 <0>         0.0682
     31 H6         -0.9127    2.2266    4.3004 H         1 <0>         0.0713
     32 H7          1.6496    0.5303    4.5975 H         1 <0>         0.1208
     33 H8          0.3358    0.6057    5.8202 H         1 <0>         0.0848
     34 H9          2.3394   -0.6499    8.2816 H         1 <0>         0.1317
     35 H10         3.8277    0.9792    7.2696 H         1 <0>         0.1330
     36 H11         3.7488   -0.7584    4.6663 H         1 <0>         0.1359
     37 H12         3.8107    2.3140    5.1505 H         1 <0>         0.1400
     38 H13         3.3231    3.3984    3.0594 H         1 <0>         0.1306
     39 H14         4.8834    3.1234    2.2130 H         1 <0>         0.1180
     40 H15         1.3224    1.6044   -2.1361 H         1 <0>         0.1523
     41 H16         4.6857    3.1414   -2.4365 H         1 <0>         0.4408
     42 H17        -0.5154    0.7287   -0.9418 H         1 <0>         0.4449
@<TRIPOS>BOND
     1    1    2 1
     2    1   29 1
     3    1   30 1
     4    1   31 1
     5    2    3 1
     6    2   28 1
     7    2    4 1
     8    4    5 1
     9    4   32 1
    10    4   33 1
    11    5    6 1
    12    5    9 1
    13    5    7 1
    14    7    8 1
    15    7    9 1
    16    7   10 1
    17   10   11 2
    18   10   34 1
    19   11   12 1
    20   11   35 1
    21   12   13 2
    22   12   36 1
    23   13   14 1
    24   13   37 1
    25   14   15 2
    26   14   16 1
    27   16   17 1
    28   16   38 1
    29   16   39 1
    30   17   22 ar
    31   17   18 ar
    32   18   19 ar
    33   18   26 1
    34   19   20 ar
    35   19   25 1
    36   20   21 ar
    37   20   40 1
    38   21   22 ar
    39   21   24 1
    40   22   23 1
    41   24   41 1
    42   25   42 1
    43   26   27 2
    44   26   28 1
@<TRIPOS>MOLECULE
ZINC13515668
   41    43     0     0     0
SMALL
USER_CHARGES
chloro-dihydroxy-methyl-BLAHdione
@<TRIPOS>ATOM
      1 C1         -1.3916    1.2428    4.1873 C.3       1 <0>        -0.1730
      2 C2         -0.3366    0.2031    3.8030 C.3       1 <0>         0.1038
      3 H1         -0.8017   -0.7738    3.6047 H         1 <0>         0.1053
      4 C3          0.7005    0.0808    4.9249 C.3       1 <0>        -0.1871
      5 C4          0.9246   -1.3926    5.2565 C.3       1 <0>        -0.0013
      6 H2          0.7945   -1.7033    4.2093 H         1 <0>         0.1589
      7 C5          1.8742   -1.7631    6.3906 C.3       1 <0>         0.0154
      8 H3          2.7381   -2.4364    6.4921 H         1 <0>         0.1629
      9 O1          0.4550   -1.8843    6.5142 O.3       1 <0>        -0.3191
     10 C6          2.5430   -0.6874    7.2013 C.2       1 <0>        -0.1563
     11 C7          3.3594    0.2015    6.6484 C.2       1 <0>        -0.1216
     12 C8          3.6645    0.1861    5.2238 C.2       1 <0>        -0.0565
     13 C9          3.8462    1.3720    4.5837 C.2       1 <0>        -0.2003
     14 C10         4.0794    1.3957    3.1983 C.2       1 <0>         0.3909
     15 O2          4.3970    0.3852    2.6072 O.2       1 <0>        -0.4541
     16 C11         3.8980    2.6919    2.4427 C.3       1 <0>        -0.1383
     17 C12         3.1538    2.4012    1.1652 C.ar      1 <0>         0.0680
     18 C13         1.8744    1.8349    1.2021 C.ar      1 <0>        -0.2919
     19 C14         1.2213    1.5318   -0.0014 C.ar      1 <0>         0.2513
     20 C15         1.8308    1.8249   -1.2090 C.ar      1 <0>        -0.3684
     21 C16         3.0918    2.3991   -1.2310 C.ar      1 <0>         0.3296
     22 C17         3.7525    2.6836   -0.0395 C.ar      1 <0>        -0.1818
     23 Cl1         5.3347    3.3980   -0.0790 Cl        1 <0>        -0.0950
     24 O3          3.6848    2.6856   -2.4177 O.3       1 <0>        -0.6768
     25 O4         -0.0110    0.9628    0.0073 O.3       1 <0>        -0.4995
     26 C18         1.2111    1.5345    2.4826 C.2       1 <0>         0.5363
     27 O5          1.4831    2.2084    3.4592 O.2       1 <0>        -0.5412
     28 O6          0.2919    0.5683    2.5572 O.3       1 <0>        -0.3443
     29 H4         -1.8628    0.9529    5.1380 H         1 <0>         0.0676
     30 H5         -2.1576    1.2963    3.3997 H         1 <0>         0.0645
     31 H6         -0.9127    2.2266    4.3004 H         1 <0>         0.0707
     32 H7          1.6496    0.5303    4.5975 H         1 <0>         0.1263
     33 H8          0.3358    0.6057    5.8202 H         1 <0>         0.0771
     34 H9          2.3394   -0.6499    8.2816 H         1 <0>         0.1256
     35 H10         3.8277    0.9792    7.2696 H         1 <0>         0.1278
     36 H11         3.7488   -0.7584    4.6663 H         1 <0>         0.1341
     37 H12         3.8107    2.3140    5.1505 H         1 <0>         0.1350
     38 H13         3.3231    3.3984    3.0594 H         1 <0>         0.1132
     39 H14         4.8834    3.1234    2.2130 H         1 <0>         0.1076
     40 H15         1.3224    1.6044   -2.1361 H         1 <0>         0.1145
     41 H16        -0.5154    0.7287   -0.9418 H         1 <0>         0.4203
@<TRIPOS>BOND
     1    1    2 1
     2    1   29 1
     3    1   30 1
     4    1   31 1
     5    2    3 1
     6    2   28 1
     7    2    4 1
     8    4    5 1
     9    4   32 1
    10    4   33 1
    11    5    6 1
    12    5    9 1
    13    5    7 1
    14    7    8 1
    15    7    9 1
    16    7   10 1
    17   10   11 2
    18   10   34 1
    19   11   12 1
    20   11   35 1
    21   12   13 2
    22   12   36 1
    23   13   14 1
    24   13   37 1
    25   14   15 2
    26   14   16 1
    27   16   17 1
    28   16   38 1
    29   16   39 1
    30   17   22 ar
    31   17   18 ar
    32   18   19 ar
    33   18   26 1
    34   19   20 ar
    35   19   25 1
    36   20   21 ar
    37   20   40 1
    38   21   22 ar
    39   21   24 1
    40   22   23 1
    41   25   41 1
    42   26   27 2
    43   26   28 1
@<TRIPOS>MOLECULE
ZINC13515668
   41    43     0     0     0
SMALL
USER_CHARGES
chloro-dihydroxy-methyl-BLAHdione
@<TRIPOS>ATOM
      1 C1         -1.3916    1.2428    4.1873 C.3       1 <0>        -0.1714
      2 C2         -0.3366    0.2031    3.8030 C.3       1 <0>         0.0991
      3 H1         -0.8017   -0.7738    3.6047 H         1 <0>         0.1045
      4 C3          0.7005    0.0808    4.9249 C.3       1 <0>        -0.1851
      5 C4          0.9246   -1.3926    5.2565 C.3       1 <0>        -0.0012
      6 H2          0.7945   -1.7033    4.2093 H         1 <0>         0.1611
      7 C5          1.8742   -1.7631    6.3906 C.3       1 <0>         0.0133
      8 H3          2.7381   -2.4364    6.4921 H         1 <0>         0.1616
      9 O1          0.4550   -1.8843    6.5142 O.3       1 <0>        -0.3191
     10 C6          2.5430   -0.6874    7.2013 C.2       1 <0>        -0.1532
     11 C7          3.3594    0.2015    6.6484 C.2       1 <0>        -0.1240
     12 C8          3.6645    0.1861    5.2238 C.2       1 <0>        -0.0526
     13 C9          3.8462    1.3720    4.5837 C.2       1 <0>        -0.2030
     14 C10         4.0794    1.3957    3.1983 C.2       1 <0>         0.3929
     15 O2          4.3970    0.3852    2.6072 O.2       1 <0>        -0.4560
     16 C11         3.8980    2.6919    2.4427 C.3       1 <0>        -0.1395
     17 C12         3.1538    2.4012    1.1652 C.ar      1 <0>         0.0851
     18 C13         1.8744    1.8349    1.2021 C.ar      1 <0>        -0.3040
     19 C14         1.2213    1.5318   -0.0014 C.ar      1 <0>         0.3383
     20 C15         1.8308    1.8249   -1.2090 C.ar      1 <0>        -0.2936
     21 C16         3.0918    2.3991   -1.2310 C.ar      1 <0>         0.2267
     22 C17         3.7525    2.6836   -0.0395 C.ar      1 <0>        -0.2425
     23 Cl1         5.3347    3.3980   -0.0790 Cl        1 <0>        -0.1021
     24 O3          3.6848    2.6856   -2.4177 O.3       1 <0>        -0.5085
     25 O4         -0.0110    0.9628    0.0073 O.3       1 <0>        -0.6665
     26 C18         1.2111    1.5345    2.4826 C.2       1 <0>         0.5440
     27 O5          1.4831    2.2084    3.4592 O.2       1 <0>        -0.5538
     28 O6          0.2919    0.5683    2.5572 O.3       1 <0>        -0.3226
     29 H4         -1.8628    0.9529    5.1380 H         1 <0>         0.0650
     30 H5         -2.1576    1.2963    3.3997 H         1 <0>         0.0664
     31 H6         -0.9127    2.2266    4.3004 H         1 <0>         0.0690
     32 H7          1.6496    0.5303    4.5975 H         1 <0>         0.1249
     33 H8          0.3358    0.6057    5.8202 H         1 <0>         0.0757
     34 H9          2.3394   -0.6499    8.2816 H         1 <0>         0.1252
     35 H10         3.8277    0.9792    7.2696 H         1 <0>         0.1274
     36 H11         3.7488   -0.7584    4.6663 H         1 <0>         0.1341
     37 H12         3.8107    2.3140    5.1505 H         1 <0>         0.1345
     38 H13         3.3231    3.3984    3.0594 H         1 <0>         0.1149
     39 H14         4.8834    3.1234    2.2130 H         1 <0>         0.1035
     40 H15         1.3224    1.6044   -2.1361 H         1 <0>         0.1180
     41 H16         4.6857    3.1414   -2.4365 H         1 <0>         0.4136
@<TRIPOS>BOND
     1    1    2 1
     2    1   29 1
     3    1   30 1
     4    1   31 1
     5    2    3 1
     6    2   28 1
     7    2    4 1
     8    4    5 1
     9    4   32 1
    10    4   33 1
    11    5    6 1
    12    5    9 1
    13    5    7 1
    14    7    8 1
    15    7    9 1
    16    7   10 1
    17   10   11 2
    18   10   34 1
    19   11   12 1
    20   11   35 1
    21   12   13 2
    22   12   36 1
    23   13   14 1
    24   13   37 1
    25   14   15 2
    26   14   16 1
    27   16   17 1
    28   16   38 1
    29   16   39 1
    30   17   22 ar
    31   17   18 ar
    32   18   19 ar
    33   18   26 1
    34   19   20 ar
    35   19   25 1
    36   20   21 ar
    37   20   40 1
    38   21   22 ar
    39   21   24 1
    40   22   23 1
    41   24   41 1
    42   26   27 2
    43   26   28 1
@<TRIPOS>MOLECULE
ZINC17747527
   32    34     0     0     0
SMALL
USER_CHARGES

@<TRIPOS>ATOM
      1 C1          0.4185    0.4037   -2.8019 C.3       1 <0>        -0.0677
      2 C2          0.2173   -0.5875   -1.6847 C.2       1 <0>         0.0619
      3 N1         -0.8003   -1.3840   -1.4818 N.2       1 <0>        -0.5011
      4 C3         -0.8343   -2.2085   -0.4451 C.2       1 <0>         0.1114
      5 C4          0.2461   -2.1798    0.3942 C.2       1 <0>        -0.2135
      6 S1          1.2513   -0.9391   -0.4047 S.3       1 <0>         0.1448
      7 C5         -1.9849   -3.1156   -0.2063 C.2       1 <0>        -0.0858
      8 C6         -3.3603   -2.7158    0.1160 C.2       1 <0>         0.1767
      9 N2         -4.0585   -3.8182    0.2472 N.2       1 <0>        -0.2534
     10 O1         -3.1999   -4.9194    0.0249 O.3       1 <0>        -0.0457
     11 C7         -1.9665   -4.4710   -0.2502 C.2       1 <0>        -0.0158
     12 C8         -0.7638   -5.3273   -0.5526 C.3       1 <0>         0.5559
     13 F1         -0.1291   -5.6789    0.6436 F         1 <0>        -0.1552
     14 F2         -1.1726   -6.4859   -1.2216 F         1 <0>        -0.1548
     15 F3          0.1268   -4.6120   -1.3603 F         1 <0>        -0.1496
     16 C9         -3.8637   -1.3304    0.2647 C.ar      1 <0>        -0.0851
     17 C10        -2.9755   -0.2561    0.2306 C.ar      1 <0>        -0.0388
     18 C11        -3.4465    1.0317    0.3692 C.ar      1 <0>        -0.1580
     19 C12        -4.8055    1.2638    0.5435 C.ar      1 <0>         0.1556
     20 C13        -5.6959    0.2012    0.5787 C.ar      1 <0>        -0.1793
     21 C14        -5.2327   -1.0956    0.4340 C.ar      1 <0>         0.1704
     22 O2         -6.1038   -2.1371    0.4625 O.3       1 <0>        -0.4813
     23 O3         -5.2631    2.5354    0.6805 O.3       1 <0>        -0.4943
     24 H1          1.3794    0.9027   -2.6763 H         1 <0>         0.0886
     25 H2          0.4027   -0.1188   -3.7584 H         1 <0>         0.0949
     26 H3         -0.3811    1.1441   -2.7791 H         1 <0>         0.0944
     27 H4          0.4390   -2.7518    1.2898 H         1 <0>         0.2014
     28 H5         -1.9187   -0.4332    0.0959 H         1 <0>         0.1368
     29 H6         -2.7574    1.8628    0.3426 H         1 <0>         0.1404
     30 H7         -6.7514    0.3855    0.7147 H         1 <0>         0.1464
     31 H8         -6.2577   -2.4970    1.3467 H         1 <0>         0.3998
     32 H9         -5.4982    2.9610   -0.1555 H         1 <0>         0.4002
@<TRIPOS>BOND
     1    1    2 1
     2    1   24 1
     3    1   25 1
     4    1   26 1
     5    2    6 1
     6    2    3 2
     7    3    4 1
     8    4    5 2
     9    4    7 1
    10    5    6 1
    11    5   27 1
    12    7   11 2
    13    7    8 1
    14    8    9 2
    15    8   16 1
    16    9   10 1
    17   10   11 1
    18   11   12 1
    19   12   13 1
    20   12   14 1
    21   12   15 1
    22   16   21 ar
    23   16   17 ar
    24   17   18 ar
    25   17   28 1
    26   18   19 ar
    27   18   29 1
    28   19   20 ar
    29   19   23 1
    30   20   21 ar
    31   20   30 1
    32   21   22 1
    33   22   31 1
    34   23   32 1
@<TRIPOS>MOLECULE
ZINC14974583
   37    39     0     0     0
SMALL
USER_CHARGES
6-chloro-9-[(4-methoxy-3,5-dimethyl-2-pyridyl)methyl]purin-2-amine
@<TRIPOS>ATOM
      1 C1          0.0523   -0.8290    2.9079 C.3       1 <0>        -0.1091
      2 C2          0.0501   -1.3331    1.4877 C.ar      1 <0>        -0.1401
      3 C3          0.0293   -2.6879    1.2264 C.ar      1 <0>         0.1075
      4 N1          0.0268   -3.1372   -0.0142 N.ar      1 <0>        -0.4482
      5 C4          0.0439   -2.3207   -1.0509 C.ar      1 <0>         0.0978
      6 C5          0.0598   -0.9528   -0.8732 C.ar      1 <0>        -0.1301
      7 C6          0.0685   -0.4382    0.4211 C.ar      1 <0>         0.1331
      8 O1          0.0888    0.9018    0.6371 O.3       1 <0>        -0.3276
      9 C7          1.3716    1.5221    0.7455 C.3       1 <0>         0.0349
     10 C8          0.0727   -0.0281   -2.0630 C.3       1 <0>        -0.1199
     11 C9          0.0395   -2.8898   -2.4464 C.3       1 <0>         0.1664
     12 N2          1.4180   -3.0194   -2.9252 N.pl3     1 <0>        -0.4729
     13 C10         2.0662   -2.1582   -3.7610 C.2       1 <0>         0.2615
     14 N3          3.2781   -2.5768   -3.9803 N.2       1 <0>        -0.4470
     15 C11         3.4870   -3.7322   -3.3008 C.ar      1 <0>        -0.0973
     16 C12         2.2953   -4.0263   -2.6102 C.ar      1 <0>         0.3479
     17 N4          2.2384   -5.1163   -1.8561 N.ar      1 <0>        -0.5529
     18 C13         3.2886   -5.9147   -1.7519 C.ar      1 <0>         0.6041
     19 N5          4.4291   -5.6691   -2.3846 N.ar      1 <0>        -0.5590
     20 C14         4.5670   -4.6083   -3.1631 C.ar      1 <0>         0.3314
     21 Cl1         6.0665   -4.3004   -3.9819 Cl        1 <0>         0.0089
     22 N6          3.1943   -7.0448   -0.9561 N.pl3     1 <0>        -0.8109
     23 H1         -0.9747   -0.6913    3.2461 H         1 <0>         0.0803
     24 H2          0.5522   -1.5542    3.5500 H         1 <0>         0.0731
     25 H3          0.5811    0.1230    2.9547 H         1 <0>         0.0700
     26 H4          0.0145   -3.3892    2.0476 H         1 <0>         0.1627
     27 H5          1.9183    1.0826    1.5798 H         1 <0>         0.0495
     28 H6          1.9299    1.3658   -0.1775 H         1 <0>         0.0499
     29 H7          1.2449    2.5910    0.9169 H         1 <0>         0.1022
     30 H8          1.0974    0.1010   -2.4117 H         1 <0>         0.0759
     31 H9         -0.5319   -0.4562   -2.8625 H         1 <0>         0.0764
     32 H10        -0.3378    0.9398   -1.7754 H         1 <0>         0.0821
     33 H11        -0.4358   -3.8707   -2.4373 H         1 <0>         0.1146
     34 H12        -0.5140   -2.2240   -3.1085 H         1 <0>         0.1205
     35 H13         1.6360   -1.2604   -4.1797 H         1 <0>         0.2256
     36 H14         2.3682   -7.2399   -0.4866 H         1 <0>         0.4193
     37 H15         3.9544   -7.6410   -0.8683 H         1 <0>         0.4192
@<TRIPOS>BOND
     1    1    2 1
     2    1   23 1
     3    1   24 1
     4    1   25 1
     5    2    7 ar
     6    2    3 ar
     7    3    4 ar
     8    3   26 1
     9    4    5 ar
    10    5    6 ar
    11    5   11 1
    12    6    7 ar
    13    6   10 1
    14    7    8 1
    15    8    9 1
    16    9   27 1
    17    9   28 1
    18    9   29 1
    19   10   30 1
    20   10   31 1
    21   10   32 1
    22   11   12 1
    23   11   33 1
    24   11   34 1
    25   12   16 1
    26   12   13 1
    27   13   14 2
    28   13   35 1
    29   14   15 1
    30   15   20 ar
    31   15   16 ar
    32   16   17 ar
    33   17   18 ar
    34   18   19 ar
    35   18   22 1
    36   19   20 ar
    37   20   21 1
    38   22   36 1
    39   22   37 1
@<TRIPOS>MOLECULE
ZINC14974583
   38    40     0     0     0
SMALL
USER_CHARGES
6-chloro-9-[(4-methoxy-3,5-dimethyl-2-pyridyl)methyl]purin-2-amine
@<TRIPOS>ATOM
      1 C1          0.0523   -0.8290    2.9079 C.3       1 <0>        -0.1211
      2 C2          0.0501   -1.3331    1.4877 C.ar      1 <0>        -0.1037
      3 C3          0.0293   -2.6879    1.2264 C.ar      1 <0>         0.1524
      4 C4          0.0439   -2.3207   -1.0509 C.ar      1 <0>         0.1325
      5 C5          0.0598   -0.9528   -0.8732 C.ar      1 <0>        -0.0859
      6 C6          0.0685   -0.4382    0.4211 C.ar      1 <0>         0.2354
      7 O1          0.0888    0.9018    0.6371 O.3       1 <0>        -0.3172
      8 C7          1.3716    1.5221    0.7455 C.3       1 <0>         0.0309
      9 C8          0.0727   -0.0281   -2.0630 C.3       1 <0>        -0.1336
     10 C9          0.0395   -2.8898   -2.4464 C.3       1 <0>         0.1352
     11 N1          1.4180   -3.0194   -2.9252 N.pl3     1 <0>        -0.4871
     12 C10         2.0662   -2.1582   -3.7610 C.2       1 <0>         0.2607
     13 N2          3.2781   -2.5768   -3.9803 N.2       1 <0>        -0.4251
     14 C11         3.4870   -3.7322   -3.3008 C.ar      1 <0>        -0.0925
     15 C12         2.2953   -4.0263   -2.6102 C.ar      1 <0>         0.3328
     16 N3          2.2384   -5.1163   -1.8561 N.ar      1 <0>        -0.5937
     17 C13         3.2886   -5.9147   -1.7519 C.ar      1 <0>         0.6192
     18 N4          4.4291   -5.6691   -2.3846 N.ar      1 <0>        -0.5507
     19 C14         4.5670   -4.6083   -3.1631 C.ar      1 <0>         0.3431
     20 Cl1         6.0665   -4.3004   -3.9819 Cl        1 <0>         0.0328
     21 N5          3.1943   -7.0448   -0.9561 N.pl3     1 <0>        -0.8037
     22 H1         -0.9747   -0.6913    3.2461 H         1 <0>         0.1052
     23 H2          0.5522   -1.5542    3.5500 H         1 <0>         0.0935
     24 H3          0.5811    0.1230    2.9547 H         1 <0>         0.0936
     25 H4          0.0145   -3.3892    2.0476 H         1 <0>         0.2055
     26 H5          1.9183    1.0826    1.5798 H         1 <0>         0.0647
     27 H6          1.9299    1.3658   -0.1775 H         1 <0>         0.0653
     28 H7          1.2449    2.5910    0.9169 H         1 <0>         0.1248
     29 H8          1.0974    0.1010   -2.4117 H         1 <0>         0.1010
     30 H9         -0.5319   -0.4562   -2.8625 H         1 <0>         0.0967
     31 H10        -0.3378    0.9398   -1.7754 H         1 <0>         0.1072
     32 H11        -0.4358   -3.8707   -2.4373 H         1 <0>         0.1289
     33 H12        -0.5140   -2.2240   -3.1085 H         1 <0>         0.1549
     34 H13         1.6360   -1.2604   -4.1797 H         1 <0>         0.2340
     35 H14         2.3682   -7.2399   -0.4866 H         1 <0>         0.4188
     36 H15         3.9544   -7.6410   -0.8683 H         1 <0>         0.4271
     37 N6          0.0256   -3.2167   -0.0270 N.ar      1 <0>        -0.4616
     38 H16         0.0099   -4.2302   -0.1905 H         1 <0>         0.4799
@<TRIPOS>BOND
     1    1    2 1
     2    1   22 1
     3    1   23 1
     4    1   24 1
     5    2    6 ar
     6    2    3 ar
     7    3   25 1
     8    3   37 ar
     9    4    5 ar
    10    4   10 1
    11    4   37 ar
    12    5    6 ar
    13    5    9 1
    14    6    7 1
    15    7    8 1
    16    8   26 1
    17    8   27 1
    18    8   28 1
    19    9   29 1
    20    9   30 1
    21    9   31 1
    22   10   11 1
    23   10   32 1
    24   10   33 1
    25   11   15 1
    26   11   12 1
    27   12   13 2
    28   12   34 1
    29   13   14 1
    30   14   19 ar
    31   14   15 ar
    32   15   16 ar
    33   16   17 ar
    34   17   18 ar
    35   17   21 1
    36   18   19 ar
    37   19   20 1
    38   21   35 1
    39   21   36 1
    40   37   38 1
@<TRIPOS>MOLECULE
ZINC03957079
   47    48     0     0     0
SMALL
USER_CHARGES

@<TRIPOS>ATOM
      1 C1         -0.0186    1.5217    0.0104 C.3       1 <0>        -0.1818
      2 C2          0.0021   -0.0041    0.0020 C.3       1 <0>         0.1030
      3 H1         -1.0464   -0.3538    0.0101 H         1 <0>         0.1111
      4 C3          0.6685   -0.5640   -1.2459 C.3       1 <0>        -0.1423
      5 C4          1.4671    0.4890   -2.0076 C.3       1 <0>        -0.0964
      6 C5          2.3017   -0.2057   -3.0935 C.3       1 <0>        -0.1719
      7 C6          3.7291    0.2672   -3.0154 C.2       1 <0>         0.3652
      8 O1          4.0796    1.2393   -3.6419 O.2       1 <0>        -0.4646
      9 C7          4.7268   -0.4740   -2.1622 C.3       1 <0>        -0.1651
     10 C8          5.4995    0.5285   -1.3028 C.3       1 <0>        -0.1016
     11 C9          6.0990   -0.1890   -0.0927 C.3       1 <0>        -0.1160
     12 C10         5.3765    0.2573    1.1804 C.3       1 <0>        -0.1018
     13 C11         4.7552   -0.9613    1.8653 C.3       1 <0>        -0.0857
     14 C12         3.8415   -0.5095    2.9741 C.ar      1 <0>         0.0172
     15 C13         4.3501   -0.3886    4.2481 C.ar      1 <0>        -0.1704
     16 C14         3.5341    0.0190    5.2971 C.ar      1 <0>         0.1659
     17 C15         2.1974    0.3088    5.0635 C.ar      1 <0>        -0.1959
     18 C16         1.6746    0.1940    3.7869 C.ar      1 <0>         0.1853
     19 C17         2.4965   -0.2222    2.7264 C.ar      1 <0>        -0.1715
     20 C18         1.9429   -0.3419    1.3668 C.2       1 <0>         0.5178
     21 O2          2.6909   -0.3380    0.4101 O.2       1 <0>        -0.4791
     22 O3          0.6219   -0.4988    1.1840 O.3       1 <0>        -0.3420
     23 O4          0.3672    0.4877    3.5716 O.3       1 <0>        -0.4766
     24 O5          4.0443    0.1314    6.5493 O.3       1 <0>        -0.4936
     25 H2          1.0040    1.8990    0.0027 H         1 <0>         0.0619
     26 H3         -0.5458    1.8828   -0.8727 H         1 <0>         0.0791
     27 H4         -0.5288    1.8733    0.9072 H         1 <0>         0.0666
     28 H5          1.3314   -1.3901   -0.9716 H         1 <0>         0.0854
     29 H6         -0.1057   -0.9690   -1.9119 H         1 <0>         0.0695
     30 H7          0.7882    1.1882   -2.4998 H         1 <0>         0.0656
     31 H8          2.1425    1.0244   -1.3452 H         1 <0>         0.0766
     32 H9          2.2650   -1.2836   -2.9394 H         1 <0>         0.0884
     33 H10         1.8889    0.0356   -4.0716 H         1 <0>         0.0843
     34 H11         4.2104   -1.1871   -1.5233 H         1 <0>         0.0959
     35 H12         5.4293   -1.0035   -2.8083 H         1 <0>         0.0905
     36 H13         6.3044    0.9642   -1.8968 H         1 <0>         0.0615
     37 H14         4.8319    1.3206   -0.9707 H         1 <0>         0.0653
     38 H15         5.9835   -1.2662   -0.2158 H         1 <0>         0.0678
     39 H16         7.1582    0.0551   -0.0130 H         1 <0>         0.0618
     40 H17         6.0912    0.7262    1.8581 H         1 <0>         0.0564
     41 H18         4.5939    0.9714    0.9289 H         1 <0>         0.0717
     42 H19         4.1997   -1.5549    1.1444 H         1 <0>         0.0926
     43 H20         5.5493   -1.5791    2.2921 H         1 <0>         0.0709
     44 H21         5.3906   -0.6119    4.4294 H         1 <0>         0.1405
     45 H22         1.5643    0.6182    5.8817 H         1 <0>         0.1437
     46 H23         0.2042    1.4136    3.3452 H         1 <0>         0.3944
     47 H24         4.4046    1.0061    6.7502 H         1 <0>         0.4001
@<TRIPOS>BOND
     1    1    2 1
     2    1   25 1
     3    1   26 1
     4    1   27 1
     5    2    3 1
     6    2   22 1
     7    2    4 1
     8    4    5 1
     9    4   28 1
    10    4   29 1
    11    5    6 1
    12    5   30 1
    13    5   31 1
    14    6    7 1
    15    6   32 1
    16    6   33 1
    17    7    8 2
    18    7    9 1
    19    9   10 1
    20    9   34 1
    21    9   35 1
    22   10   11 1
    23   10   36 1
    24   10   37 1
    25   11   12 1
    26   11   38 1
    27   11   39 1
    28   12   13 1
    29   12   40 1
    30   12   41 1
    31   13   14 1
    32   13   42 1
    33   13   43 1
    34   14   19 ar
    35   14   15 ar
    36   15   16 ar
    37   15   44 1
    38   16   17 ar
    39   16   24 1
    40   17   18 ar
    41   17   45 1
    42   18   19 ar
    43   18   23 1
    44   19   20 1
    45   20   21 2
    46   20   22 1
    47   23   46 1
    48   24   47 1
@<TRIPOS>MOLECULE
ZINC12959493
   34    36     0     0     0
SMALL
USER_CHARGES

@<TRIPOS>ATOM
      1 C1         -0.0133    1.3764    0.2064 C.ar      1 <0>        -0.0919
      2 C2          1.1716    2.0914    0.1980 C.ar      1 <0>        -0.1241
      3 C3          2.3803    1.4290    0.1497 C.ar      1 <0>        -0.0585
      4 C4          2.4066    0.0323    0.1092 C.ar      1 <0>         0.0483
      5 C5          1.2059   -0.6829    0.1179 C.ar      1 <0>        -0.0995
      6 C6          0.0049   -0.0068    0.1664 C.ar      1 <0>        -0.1245
      7 N1          3.6008   -0.6310    0.0607 N.2       1 <0>        -0.2257
      8 N2          3.6215   -1.9203    0.0234 N.2       1 <0>        -0.1879
      9 C7          4.8116   -2.5813   -0.0249 C.ar      1 <0>        -0.1019
     10 C8          6.0253   -1.8808   -0.0290 C.ar      1 <0>         0.2273
     11 N3          7.1569   -2.5588   -0.0761 N.ar      1 <0>        -0.5665
     12 C9          7.1616   -3.8852   -0.1193 C.ar      1 <0>         0.5878
     13 N4          6.0429   -4.5934   -0.1180 N.ar      1 <0>        -0.5442
     14 C10         4.8575   -3.9931   -0.0664 C.ar      1 <0>         0.3192
     15 C11         3.6095   -4.7885   -0.0582 C.ar      1 <0>        -0.0407
     16 C12         2.6086   -4.5119    0.8741 C.ar      1 <0>        -0.0425
     17 C13         1.4476   -5.2559    0.8768 C.ar      1 <0>        -0.1113
     18 C14         1.2729   -6.2766   -0.0433 C.ar      1 <0>        -0.0065
     19 C15         2.2614   -6.5565   -0.9709 C.ar      1 <0>        -0.1097
     20 C16         3.4263   -5.8149   -0.9870 C.ar      1 <0>         0.0138
     21 Cl1         4.6628   -6.1622   -2.1550 Cl        1 <0>        -0.0367
     22 Cl2        -0.1915   -7.2088   -0.0327 Cl        1 <0>        -0.0494
     23 N5          8.3725   -4.5483   -0.1677 N.pl3     1 <0>        -0.8038
     24 H1         -0.9567    1.9003    0.2489 H         1 <0>         0.1285
     25 H2          1.1497    3.1707    0.2290 H         1 <0>         0.1333
     26 H3          3.3041    1.9883    0.1428 H         1 <0>         0.1357
     27 H4          1.2186   -1.7624    0.0864 H         1 <0>         0.1356
     28 H5         -0.9237   -0.5582    0.1736 H         1 <0>         0.1282
     29 H6          6.0347   -0.8014    0.0055 H         1 <0>         0.1856
     30 H7          2.7433   -3.7168    1.5924 H         1 <0>         0.1448
     31 H8          0.6728   -5.0425    1.5983 H         1 <0>         0.1473
     32 H9          2.1199   -7.3536   -1.6857 H         1 <0>         0.1503
     33 H10         9.2015   -4.0446   -0.1697 H         1 <0>         0.4201
     34 H11         8.3938   -5.5175   -0.1997 H         1 <0>         0.4196
@<TRIPOS>BOND
     1    1    6 ar
     2    1    2 ar
     3    1   24 1
     4    2    3 ar
     5    2   25 1
     6    3    4 ar
     7    3   26 1
     8    4    5 ar
     9    4    7 1
    10    5    6 ar
    11    5   27 1
    12    6   28 1
    13    7    8 2
    14    8    9 1
    15    9   14 ar
    16    9   10 ar
    17   10   11 ar
    18   10   29 1
    19   11   12 ar
    20   12   13 ar
    21   12   23 1
    22   13   14 ar
    23   14   15 1
    24   15   20 ar
    25   15   16 ar
    26   16   17 ar
    27   16   30 1
    28   17   18 ar
    29   17   31 1
    30   18   19 ar
    31   18   22 1
    32   19   20 ar
    33   19   32 1
    34   20   21 1
    35   23   33 1
    36   23   34 1
@<TRIPOS>MOLECULE
ZINC12959493
   34    36     0     0     0
SMALL
USER_CHARGES

@<TRIPOS>ATOM
      1 C1          0.7862    0.7250    3.0002 C.ar      1 <0>        -0.0889
      2 C2          0.9727   -0.6385    2.8547 C.ar      1 <0>        -0.1068
      3 C3          1.9263   -1.1182    1.9817 C.ar      1 <0>        -0.1340
      4 C4          2.7054   -0.2236    1.2429 C.ar      1 <0>        -0.0169
      5 C5          2.5114    1.1520    1.3951 C.ar      1 <0>        -0.0570
      6 C6          1.5539    1.6170    2.2720 C.ar      1 <0>        -0.1159
      7 N1          3.6529   -0.6918    0.3759 N.2       1 <0>        -0.1447
      8 N2          3.6274   -1.9245   -0.0033 N.2       1 <0>        -0.1213
      9 C7          2.4593   -2.6243    0.0333 C.ar      1 <0>        -0.1690
     10 C8          1.2288   -1.9834   -0.1639 C.ar      1 <0>         0.2284
     11 N3          0.1196   -2.6977   -0.1212 N.ar      1 <0>        -0.5535
     12 C9          0.1528   -4.0051    0.1044 C.ar      1 <0>         0.5837
     13 N4          1.2887   -4.6574    0.2973 N.ar      1 <0>        -0.5414
     14 C10         2.4543   -4.0183    0.2654 C.ar      1 <0>         0.3035
     15 C11         3.7223   -4.7523    0.4746 C.ar      1 <0>        -0.0511
     16 C12         4.7935   -4.5635   -0.3996 C.ar      1 <0>        -0.0393
     17 C13         5.9728   -5.2495   -0.1996 C.ar      1 <0>        -0.1089
     18 C14         6.0963   -6.1252    0.8667 C.ar      1 <0>        -0.0052
     19 C15         5.0379   -6.3174    1.7378 C.ar      1 <0>        -0.1119
     20 C16         3.8536   -5.6320    1.5509 C.ar      1 <0>         0.0126
     21 Cl1         2.5290   -5.8686    2.6478 Cl        1 <0>        -0.0397
     22 Cl2         7.5842   -6.9855    1.1110 Cl        1 <0>        -0.0486
     23 N5         -1.0360   -4.7078    0.1395 N.pl3     1 <0>        -0.8041
     24 H1          0.0347    1.0949    3.6821 H         1 <0>         0.1319
     25 H2          0.3701   -1.3286    3.4266 H         1 <0>         0.1263
     26 H3          2.0710   -2.1826    1.8694 H         1 <0>         0.1272
     27 H4          3.1100    1.8492    0.8277 H         1 <0>         0.1421
     28 H5          1.4026    2.6797    2.3905 H         1 <0>         0.1370
     29 H6          1.1886   -0.9200   -0.3480 H         1 <0>         0.1715
     30 H7          4.6989   -3.8814   -1.2316 H         1 <0>         0.1546
     31 H8          6.8021   -5.1041   -0.8761 H         1 <0>         0.1498
     32 H9          5.1397   -7.0017    2.5672 H         1 <0>         0.1499
     33 H10        -1.8772   -4.2452    0.0005 H         1 <0>         0.4198
     34 H11        -1.0296   -5.6639    0.3032 H         1 <0>         0.4202
@<TRIPOS>BOND
     1    1    6 ar
     2    1    2 ar
     3    1   24 1
     4    2    3 ar
     5    2   25 1
     6    3    4 ar
     7    3   26 1
     8    4    5 ar
     9    4    7 1
    10    5    6 ar
    11    5   27 1
    12    6   28 1
    13    7    8 2
    14    8    9 1
    15    9   14 ar
    16    9   10 ar
    17   10   11 ar
    18   10   29 1
    19   11   12 ar
    20   12   13 ar
    21   12   23 1
    22   13   14 ar
    23   14   15 1
    24   15   20 ar
    25   15   16 ar
    26   16   17 ar
    27   16   30 1
    28   17   18 ar
    29   17   31 1
    30   18   19 ar
    31   18   22 1
    32   19   20 ar
    33   19   32 1
    34   20   21 1
    35   23   33 1
    36   23   34 1
@<TRIPOS>MOLECULE
ZINC19940178
   40    42     0     0     0
SMALL
USER_CHARGES
3,6-diamino-5-cyano-4-(4-ethoxyphenyl)thieno[4,5-e]pyridine-2-carboxamide
@<TRIPOS>ATOM
      1 C1          7.9249   -1.7261   -0.9447 C.3       1 <0>        -0.1560
      2 C2          6.5241   -1.1706   -0.6799 C.3       1 <0>         0.0489
      3 O1          6.2926   -0.0406   -1.5235 O.3       1 <0>        -0.3082
      4 C3          5.0870    0.5746   -1.4128 C.ar      1 <0>         0.1541
      5 C4          4.7976    1.6793   -2.2041 C.ar      1 <0>        -0.1499
      6 C5          3.5757    2.3062   -2.0948 C.ar      1 <0>        -0.0576
      7 C6          2.6273    1.8299   -1.1869 C.ar      1 <0>        -0.1355
      8 C7          2.9240    0.7224   -0.3894 C.ar      1 <0>        -0.0448
      9 C8          4.1464    0.0980   -0.5081 C.ar      1 <0>        -0.2047
     10 C9          1.3153    2.4998   -1.0661 C.ar      1 <0>         0.1622
     11 C10         0.1495    1.8763   -1.5323 C.ar      1 <0>        -0.1591
     12 C11        -1.0905    2.5342   -1.4136 C.ar      1 <0>         0.5047
     13 N1         -1.1574    3.7309   -0.8532 N.ar      1 <0>        -0.5202
     14 C12        -0.0850    4.3513   -0.4033 C.ar      1 <0>         0.2116
     15 C13         1.2118    3.7931   -0.4733 C.ar      1 <0>        -0.2436
     16 C14         2.2721    4.6220    0.0727 C.2       1 <0>         0.3379
     17 C15         1.9365    5.8515    0.6001 C.2       1 <0>        -0.3867
     18 S1          0.1706    5.9280    0.3746 S.3       1 <0>         0.1200
     19 C16         2.7895    6.8193    1.1811 C.2       1 <0>         0.6298
     20 O2          3.9865    6.6076    1.2594 O.2       1 <0>        -0.5745
     21 N2          2.2777    7.9754    1.6479 N.am      1 <0>        -0.8764
     22 N3          3.5901    4.1875    0.0644 N.pl3     1 <0>        -0.8481
     23 N4         -2.2415    1.9248   -1.8774 N.pl3     1 <0>        -0.8443
     24 C17         0.2197    0.5780   -2.1324 C.1       1 <0>         0.2587
     25 N5          0.2753   -0.4520   -2.6084 N.1       1 <0>        -0.4066
     26 H1          8.1032   -2.5959   -0.2954 H         1 <0>         0.0824
     27 H2          8.6738   -0.9493   -0.7309 H         1 <0>         0.0693
     28 H3          8.0047   -2.0324   -1.9982 H         1 <0>         0.0687
     29 H4          5.7752   -1.9474   -0.8937 H         1 <0>         0.0664
     30 H5          6.4442   -0.8643    0.3736 H         1 <0>         0.0673
     31 H6          5.5314    2.0468   -2.9062 H         1 <0>         0.1446
     32 H7          3.3516    3.1651   -2.7101 H         1 <0>         0.1418
     33 H8          2.1947    0.3536    0.3167 H         1 <0>         0.1333
     34 H9          4.3753   -0.7605    0.1058 H         1 <0>         0.1389
     35 H10         2.9409    8.7278    2.0996 H         1 <0>         0.4252
     36 H11         1.1968    8.1666    1.5772 H         1 <0>         0.4160
     37 H12         4.3825    4.8264    0.4815 H         1 <0>         0.4427
     38 H13         3.8424    3.2042   -0.3593 H         1 <0>         0.4128
     39 H14        -3.2105    2.4372   -1.7854 H         1 <0>         0.4415
     40 H15        -2.1883    0.9275   -2.3384 H         1 <0>         0.4373
@<TRIPOS>BOND
     1    1    2 1
     2    1   26 1
     3    1   27 1
     4    1   28 1
     5    2    3 1
     6    2   29 1
     7    2   30 1
     8    3    4 1
     9    4    9 ar
    10    4    5 ar
    11    5    6 ar
    12    5   31 1
    13    6    7 ar
    14    6   32 1
    15    7    8 ar
    16    7   10 1
    17    8    9 ar
    18    8   33 1
    19    9   34 1
    20   10   15 ar
    21   10   11 ar
    22   11   12 ar
    23   11   24 1
    24   12   13 ar
    25   12   23 1
    26   13   14 ar
    27   14   18 1
    28   14   15 ar
    29   15   16 1
    30   16   17 2
    31   16   22 1
    32   17   18 1
    33   17   19 1
    34   19   20 2
    35   19   21 am
    36   21   35 1
    37   21   36 1
    38   22   37 1
    39   22   38 1
    40   23   39 1
    41   23   40 1
    42   24   25 3
@<TRIPOS>MOLECULE
ZINC36741071
   60    63     0     0     0
SMALL
USER_CHARGES

@<TRIPOS>ATOM
      1 C1         -2.7509    3.7614    2.7069 C.3       1 <0>        -0.1559
      2 C2         -2.0934    3.5268    1.3454 C.3       1 <0>        -0.0524
      3 C3         -2.8120    2.3793    0.6290 C.3       1 <0>        -0.0581
      4 C4         -2.5480    1.0924    1.3648 C.2       1 <0>         0.1614
      5 C5         -1.4762    0.9207    2.2370 C.2       1 <0>        -0.2861
      6 C6         -1.5420   -0.3852    2.7399 C.2       1 <0>         0.0462
      7 N1         -2.5856   -0.9653    2.2032 N.2       1 <0>        -0.2321
      8 N2         -3.2235   -0.0590    1.3428 N.pl3     1 <0>        -0.2849
      9 C7         -4.3732   -0.3176    0.5901 C.ar      1 <0>         0.2058
     10 C8         -4.4569    0.1330   -0.7252 C.ar      1 <0>        -0.1923
     11 C9         -5.5742   -0.1132   -1.4704 C.ar      1 <0>        -0.0103
     12 C10        -6.6451   -0.8214   -0.9165 C.ar      1 <0>        -0.2285
     13 C11        -6.5662   -1.2788    0.4094 C.ar      1 <0>         0.2999
     14 C12        -5.4230   -1.0266    1.1544 C.ar      1 <0>        -0.1893
     15 N3         -7.6242   -1.9829    0.9698 N.pl3     1 <0>        -0.7040
     16 C13        -7.5965   -2.3386    2.3907 C.3       1 <0>         0.1357
     17 C14        -6.8216   -3.6449    2.5745 C.3       1 <0>        -0.1354
     18 C15        -7.5072   -4.7603    1.7829 C.3       1 <0>        -0.1104
     19 C16        -8.9389   -4.9407    2.2914 C.3       1 <0>         0.1047
     20 C17        -9.7139   -3.6344    2.1077 C.3       1 <0>        -0.1563
     21 C18        -9.0282   -2.5190    2.8993 C.3       1 <0>        -0.1222
     22 O1         -9.5793   -5.9825    1.5521 O.3       1 <0>        -0.5669
     23 C19        -7.8508   -1.0864   -1.7196 C.2       1 <0>         0.5777
     24 O2         -8.8225   -1.6059   -1.2046 O.2       1 <0>        -0.5502
     25 N4         -7.8775   -0.7532   -3.0253 N.am      1 <0>        -0.8471
     26 C20        -0.5841   -1.0096    3.7215 C.3       1 <0>         0.5555
     27 F1         -1.0368   -0.7801    5.0252 F         1 <0>        -0.1625
     28 F2         -0.5103   -2.3872    3.4893 F         1 <0>        -0.1655
     29 F3          0.6842   -0.4411    3.5614 F         1 <0>        -0.1482
     30 C21        -0.5130    2.0032    2.4937 C.2       1 <0>         0.4284
     31 O3          0.3012    1.9504    3.3914 O.2       1 <0>        -0.4353
     32 C22        -0.6125    3.1930    1.5508 C.3       1 <0>        -0.1519
     33 C23        -2.2114    4.7985    0.5029 C.3       1 <0>        -0.1422
     34 H1         -2.2558    4.5913    3.2112 H         1 <0>         0.0679
     35 H2         -3.8051    3.9993    2.5651 H         1 <0>         0.0645
     36 H3         -2.6601    2.8609    3.3142 H         1 <0>         0.0566
     37 H4         -3.8841    2.5754    0.6118 H         1 <0>         0.1018
     38 H5         -2.4397    2.2978   -0.3922 H         1 <0>         0.1074
     39 H6         -3.6330    0.6809   -1.1582 H         1 <0>         0.1361
     40 H7         -5.6311    0.2401   -2.4894 H         1 <0>         0.1389
     41 H8         -5.3525   -1.3782    2.1732 H         1 <0>         0.1440
     42 H9         -8.3814   -2.2392    0.4204 H         1 <0>         0.4240
     43 H10        -7.1080   -1.5439    2.9547 H         1 <0>         0.0839
     44 H11        -5.8016   -3.5164    2.2122 H         1 <0>         0.0758
     45 H12        -6.8010   -3.9095    3.6317 H         1 <0>         0.0778
     46 H13        -7.5278   -4.4957    0.7257 H         1 <0>         0.0706
     47 H14        -6.9552   -5.6910    1.9138 H         1 <0>         0.0713
     48 H15        -8.9183   -5.2053    3.3486 H         1 <0>         0.0560
     49 H16        -9.7344   -3.3698    1.0505 H         1 <0>         0.0753
     50 H17       -10.7338   -3.7629    2.4700 H         1 <0>         0.0702
     51 H18        -9.0076   -2.7836    3.9565 H         1 <0>         0.0822
     52 H19        -9.5803   -1.5883    2.7684 H         1 <0>         0.0752
     53 H20       -10.4924   -6.1520    1.8216 H         1 <0>         0.3784
     54 H21        -7.1025   -0.3389   -3.4360 H         1 <0>         0.4023
     55 H22        -8.6716   -0.9277   -3.5542 H         1 <0>         0.4079
     56 H23        -0.1576    2.9406    0.5930 H         1 <0>         0.1059
     57 H24        -0.1010    4.0506    1.9880 H         1 <0>         0.1035
     58 H25        -1.7103    5.6206    1.0138 H         1 <0>         0.0674
     59 H26        -1.7441    4.6355   -0.4683 H         1 <0>         0.0634
     60 H27        -3.2638    5.0452    0.3628 H         1 <0>         0.0645
@<TRIPOS>BOND
     1    1    2 1
     2    1   34 1
     3    1   35 1
     4    1   36 1
     5    2   32 1
     6    2    3 1
     7    2   33 1
     8    3    4 1
     9    3   37 1
    10    3   38 1
    11    4    8 1
    12    4    5 2
    13    5    6 1
    14    5   30 1
    15    6    7 2
    16    6   26 1
    17    7    8 1
    18    8    9 1
    19    9   14 ar
    20    9   10 ar
    21   10   11 ar
    22   10   39 1
    23   11   12 ar
    24   11   40 1
    25   12   13 ar
    26   12   23 1
    27   13   14 ar
    28   13   15 1
    29   14   41 1
    30   15   16 1
    31   15   42 1
    32   16   21 1
    33   16   17 1
    34   16   43 1
    35   17   18 1
    36   17   44 1
    37   17   45 1
    38   18   19 1
    39   18   46 1
    40   18   47 1
    41   19   20 1
    42   19   22 1
    43   19   48 1
    44   20   21 1
    45   20   49 1
    46   20   50 1
    47   21   51 1
    48   21   52 1
    49   22   53 1
    50   23   24 2
    51   23   25 am
    52   25   54 1
    53   25   55 1
    54   26   27 1
    55   26   28 1
    56   26   29 1
    57   30   31 2
    58   30   32 1
    59   32   56 1
    60   32   57 1
    61   33   58 1
    62   33   59 1
    63   33   60 1
@<TRIPOS>MOLECULE
ZINC36966109
   55    58     0     0     0
SMALL
USER_CHARGES

@<TRIPOS>ATOM
      1 C1         -0.2050   -5.0997  -12.9267 C.3       1 <0>        -0.1713
      2 C2         -0.1762   -5.9826  -11.6775 C.3       1 <0>         0.1157
      3 N1          0.5461   -5.2907  -10.6071 N.am      1 <0>        -0.7194
      4 C3          0.6982   -5.8817   -9.4054 C.2       1 <0>         0.6109
      5 O1          0.2356   -6.9900   -9.2095 O.2       1 <0>        -0.5351
      6 C4          1.4218   -5.1886   -8.3331 C.2       1 <0>        -0.2230
      7 C5          1.6806   -5.6197   -7.0677 C.2       1 <0>        -0.0245
      8 C6          2.3947   -4.8012   -6.1841 C.ar      1 <0>        -0.2592
      9 C7          2.7730   -5.0495   -4.8289 C.ar      1 <0>         0.3269
     10 N2          3.4542   -4.1272   -4.1685 N.ar      1 <0>        -0.5431
     11 C8          3.8011   -2.9725   -4.7226 C.ar      1 <0>         0.6111
     12 N3          3.4786   -2.6847   -5.9771 N.ar      1 <0>        -0.5324
     13 C9          2.8017   -3.5459   -6.7051 C.ar      1 <0>         0.1885
     14 S1          2.1862   -3.5761   -8.3690 S.3       1 <0>         0.1548
     15 N4          4.5129   -2.0502   -3.9773 N.pl3     1 <0>        -0.7960
     16 C10         2.4067   -6.3236   -4.1711 C.ar      1 <0>        -0.0042
     17 C11         2.6601   -7.5385   -4.8085 C.ar      1 <0>        -0.1533
     18 C12         2.3152   -8.7262   -4.1883 C.ar      1 <0>         0.1335
     19 C13         1.7178   -8.7082   -2.9335 C.ar      1 <0>        -0.0340
     20 C14         1.4653   -7.5049   -2.2999 C.ar      1 <0>        -0.0637
     21 C15         1.8115   -6.3140   -2.9081 C.ar      1 <0>        -0.0114
     22 Cl1         1.4998   -4.8062   -2.1062 Cl        1 <0>        -0.0181
     23 Cl2         1.2868  -10.2009   -2.1591 Cl        1 <0>        -0.0285
     24 O2          2.5604   -9.9117   -4.8070 O.3       1 <0>        -0.3106
     25 C16         3.1763   -9.8560   -6.0953 C.3       1 <0>         0.0196
     26 C17         3.3713  -11.2766   -6.6291 C.3       1 <0>         0.0055
     27 N5          2.0601  -11.9003   -6.8519 N.4       1 <0>        -0.3972
     28 C18         1.3636  -11.2380   -7.9843 C.3       1 <0>        -0.0114
     29 C19         0.3390  -12.3056   -8.4436 C.3       1 <0>        -0.1431
     30 C20         1.1192  -13.6293   -8.2732 C.3       1 <0>        -0.1448
     31 C21         2.2292  -13.3136   -7.2536 C.3       1 <0>        -0.0084
     32 H1         -0.7085   -4.1608  -12.6966 H         1 <0>         0.0662
     33 H2          0.8155   -4.8949  -13.2505 H         1 <0>         0.0650
     34 H3         -0.7424   -5.6145  -13.7231 H         1 <0>         0.0806
     35 H4         -1.1966   -6.1874  -11.3537 H         1 <0>         0.0740
     36 H5          0.3274   -6.9215  -11.9077 H         1 <0>         0.0716
     37 H6          0.9149   -4.4072  -10.7632 H         1 <0>         0.4040
     38 H7          1.3353   -6.5912   -6.7460 H         1 <0>         0.1434
     39 H8          4.7535   -2.2505   -3.0592 H         1 <0>         0.4242
     40 H9          4.7715   -1.2031   -4.3727 H         1 <0>         0.4246
     41 H10         3.1240   -7.5518   -5.7837 H         1 <0>         0.1517
     42 H11         1.0002   -7.4966   -1.3252 H         1 <0>         0.1649
     43 H12         2.5387   -9.2953   -6.7788 H         1 <0>         0.0928
     44 H13         4.1446   -9.3623   -6.0140 H         1 <0>         0.1128
     45 H14         3.9202  -11.2389   -7.5701 H         1 <0>         0.1513
     46 H15         3.9342  -11.8634   -5.9033 H         1 <0>         0.1435
     47 H16         0.8538  -10.3354   -7.6475 H         1 <0>         0.1368
     48 H17         2.0653  -11.0082   -8.7861 H         1 <0>         0.1352
     49 H18        -0.5438  -12.2932   -7.8043 H         1 <0>         0.0985
     50 H19         0.0632  -12.1520   -9.4868 H         1 <0>         0.1177
     51 H20         0.4621  -14.4089   -7.8878 H         1 <0>         0.1054
     52 H21         1.5550  -13.9366   -9.2239 H         1 <0>         0.1041
     53 H22         3.2072  -13.4543   -7.7139 H         1 <0>         0.1314
     54 H23         2.1289  -13.9617   -6.3829 H         1 <0>         0.1329
     55 H24         1.4995  -11.8412   -6.0150 H         1 <0>         0.4335
@<TRIPOS>BOND
     1    1    2 1
     2    1   32 1
     3    1   33 1
     4    1   34 1
     5    2    3 1
     6    2   35 1
     7    2   36 1
     8    3    4 am
     9    3   37 1
    10    4    5 2
    11    4    6 1
    12    6   14 1
    13    6    7 2
    14    7    8 1
    15    7   38 1
    16    8   13 ar
    17    8    9 ar
    18    9   10 ar
    19    9   16 1
    20   10   11 ar
    21   11   12 ar
    22   11   15 1
    23   12   13 ar
    24   13   14 1
    25   15   39 1
    26   15   40 1
    27   16   21 ar
    28   16   17 ar
    29   17   18 ar
    30   17   41 1
    31   18   19 ar
    32   18   24 1
    33   19   20 ar
    34   19   23 1
    35   20   21 ar
    36   20   42 1
    37   21   22 1
    38   24   25 1
    39   25   26 1
    40   25   43 1
    41   25   44 1
    42   26   27 1
    43   26   45 1
    44   26   46 1
    45   27   31 1
    46   27   28 1
    47   27   55 1
    48   28   29 1
    49   28   47 1
    50   28   48 1
    51   29   30 1
    52   29   49 1
    53   29   50 1
    54   30   31 1
    55   30   51 1
    56   30   52 1
    57   31   53 1
    58   31   54 1
