@<TRIPOS>MOLECULE
ZINC03817750
   47    49     0     0     0
SMALL
USER_CHARGES
3-cyclopentyl-2-(4-methylsulfonylphenyl)-N-thiazol-2-yl-propanamide
@<TRIPOS>ATOM
      1 C1         -2.2917    2.4404   -1.4355 C.3       1 <0>        -0.6505
      2 S1         -1.0124    1.6880   -0.3926 S.o2      1 <0>         2.4994
      3 O1         -1.0523    0.2727   -0.5134 O.2       1 <0>        -0.9377
      4 O2          0.2130    2.3930   -0.5358 O.2       1 <0>        -0.9372
      5 C2         -1.5273    2.0128    1.2609 C.ar      1 <0>        -0.6556
      6 C3         -1.1112    3.1654    1.9006 C.ar      1 <0>        -0.0229
      7 C4         -1.5187    3.4223    3.1963 C.ar      1 <0>        -0.1028
      8 C5         -2.3345    2.5220    3.8557 C.ar      1 <0>        -0.0160
      9 C6         -2.7467    1.3670    3.2176 C.ar      1 <0>        -0.1286
     10 C7         -2.3427    1.1122    1.9204 C.ar      1 <0>        -0.0245
     11 C8         -2.7749    2.7998    5.2698 C.3       1 <0>        -0.0687
     12 H1         -3.4084    1.9847    5.6199 H         1 <0>         0.1170
     13 C9         -1.5457    2.9147    6.1736 C.3       1 <0>        -0.1046
     14 C10        -0.8392    1.5596    6.2482 C.3       1 <0>        -0.0926
     15 C11        -1.7233    0.5434    7.0002 C.3       1 <0>        -0.1231
     16 C12        -0.7157   -0.3035    7.8181 C.3       1 <0>        -0.1261
     17 C13         0.3294    0.7475    8.2678 C.3       1 <0>        -0.1256
     18 C14         0.4656    1.6892    7.0535 C.3       1 <0>        -0.1216
     19 C15        -3.5504    4.0914    5.3099 C.2       1 <0>         0.5141
     20 O3         -3.6331    4.7801    4.3151 O.2       1 <0>        -0.4547
     21 N1         -4.1519    4.4811    6.4513 N.am      1 <0>        -0.6202
     22 C16        -4.9545    5.6159    6.4615 C.2       1 <0>         0.3030
     23 N2         -5.2416    6.4367    5.4700 N.2       1 <0>        -0.5140
     24 C17        -6.0330    7.4758    5.6506 C.2       1 <0>         0.0566
     25 C18        -6.5409    7.6936    6.8883 C.2       1 <0>        -0.2271
     26 S2         -5.8304    6.3209    7.7849 S.3       1 <0>         0.0539
     27 H2         -3.2558    1.9816   -1.2159 H         1 <0>         0.1315
     28 H3         -2.3436    3.5100   -1.2321 H         1 <0>         0.1322
     29 H4         -2.0445    2.2817   -2.4852 H         1 <0>         0.1334
     30 H5         -0.4705    3.8668    1.3869 H         1 <0>         0.1429
     31 H6         -1.1969    4.3248    3.6947 H         1 <0>         0.1307
     32 H7         -3.3841    0.6636    3.7328 H         1 <0>         0.1329
     33 H8         -2.6645    0.2097    1.4221 H         1 <0>         0.1435
     34 H9         -0.8623    3.6587    5.7645 H         1 <0>         0.0780
     35 H10        -1.8568    3.2178    7.1733 H         1 <0>         0.0760
     36 H11        -0.6234    1.1955    5.2438 H         1 <0>         0.0792
     37 H12        -2.4161    1.0591    7.6651 H         1 <0>         0.0668
     38 H13        -2.2667   -0.0851    6.2945 H         1 <0>         0.0663
     39 H14        -0.2526   -1.0646    7.1902 H         1 <0>         0.0672
     40 H15        -1.2009   -0.7595    8.6810 H         1 <0>         0.0665
     41 H16         1.2831    0.2675    8.4871 H         1 <0>         0.0650
     42 H17        -0.0315    1.2964    9.1376 H         1 <0>         0.0649
     43 H18         1.3145    1.3871    6.4401 H         1 <0>         0.0657
     44 H19         0.5959    2.7176    7.3904 H         1 <0>         0.0654
     45 H20        -4.0247    3.9697    7.2657 H         1 <0>         0.4269
     46 H21        -6.2672    8.1407    4.8324 H         1 <0>         0.1742
     47 H22        -7.1943    8.4799    7.2365 H         1 <0>         0.2012
@<TRIPOS>BOND
     1    1    2 1
     2    1   27 1
     3    1   28 1
     4    1   29 1
     5    2    3 2
     6    2    4 2
     7    2    5 1
     8    5   10 ar
     9    5    6 ar
    10    6    7 ar
    11    6   30 1
    12    7    8 ar
    13    7   31 1
    14    8    9 ar
    15    8   11 1
    16    9   10 ar
    17    9   32 1
    18   10   33 1
    19   11   12 1
    20   11   13 1
    21   11   19 1
    22   13   14 1
    23   13   34 1
    24   13   35 1
    25   14   18 1
    26   14   15 1
    27   14   36 1
    28   15   16 1
    29   15   37 1
    30   15   38 1
    31   16   17 1
    32   16   39 1
    33   16   40 1
    34   17   18 1
    35   17   41 1
    36   17   42 1
    37   18   43 1
    38   18   44 1
    39   19   20 2
    40   19   21 am
    41   21   22 1
    42   21   45 1
    43   22   26 1
    44   22   23 2
    45   23   24 1
    46   24   25 2
    47   24   46 1
    48   25   26 1
    49   25   47 1
@<TRIPOS>MOLECULE
ZINC30691803
   48    50     0     0     0
SMALL
USER_CHARGES
(2R)-2-(3-chloro-4-methylsulfonyl-phenyl)-3-[(1R)-3-oxocyclopentyl]-N-pyrazin-2-yl-propanamide
@<TRIPOS>ATOM
      1 C1         -0.6648   -4.3416    3.8786 C.3       1 <0>        -0.6550
      2 S1         -1.0220   -4.0638    2.1219 S.o2      1 <0>         2.4910
      3 O1         -2.1954   -3.2751    1.9798 O.2       1 <0>        -0.9174
      4 O2         -0.8706   -5.2749    1.3942 O.2       1 <0>        -0.9325
      5 C2          0.2862   -3.0303    1.5518 C.ar      1 <0>        -0.6517
      6 C3          1.1786   -3.5022    0.6074 C.ar      1 <0>        -0.0048
      7 C4          2.2012   -2.6894    0.1555 C.ar      1 <0>        -0.1240
      8 C5          2.3323   -1.4041    0.6477 C.ar      1 <0>        -0.0217
      9 C6          1.4410   -0.9313    1.5922 C.ar      1 <0>        -0.1134
     10 C7          0.4171   -1.7445    2.0449 C.ar      1 <0>         0.0491
     11 Cl1        -0.7035   -1.1510    3.2305 Cl        1 <0>        -0.0352
     12 C8          3.4475   -0.5185    0.1545 C.3       1 <0>        -0.0660
     13 H1          4.0517   -1.0752   -0.5769 H         1 <0>         0.1158
     14 C9          2.8552    0.7354   -0.4917 C.3       1 <0>        -0.1018
     15 C10         2.0617    0.3403   -1.7387 C.3       1 <0>        -0.0985
     16 H2          1.3725   -0.4474   -1.4001 H         1 <0>         0.0900
     17 C11         1.3531    1.5733   -2.3548 C.3       1 <0>        -0.1144
     18 C12         1.1702    1.1882   -3.8375 C.3       1 <0>        -0.1839
     19 C13         2.2132    0.1354   -4.1496 C.2       1 <0>         0.3735
     20 O3          2.3790   -0.4150   -5.2116 O.2       1 <0>        -0.4430
     21 C14         3.0119   -0.1048   -2.8781 C.3       1 <0>        -0.1818
     22 C15         4.3229   -0.1201    1.3147 C.2       1 <0>         0.5320
     23 O4          4.0403    0.8526    1.9816 O.2       1 <0>        -0.5020
     24 N1          5.4200   -0.8447    1.6110 N.am      1 <0>        -0.6579
     25 C16         6.2770   -0.4276    2.6284 C.ar      1 <0>         0.3018
     26 C17         5.8386    0.4928    3.5766 C.ar      1 <0>         0.0334
     27 N2          6.6528    0.8851    4.5380 N.ar      1 <0>        -0.4175
     28 C18         7.8834    0.4051    4.6014 C.ar      1 <0>         0.0201
     29 C19         8.3218   -0.5087    3.6617 C.ar      1 <0>         0.0804
     30 N3          7.5099   -0.9106    2.6987 N.ar      1 <0>        -0.4708
     31 H3          0.2447   -4.9526    3.9756 H         1 <0>         0.1363
     32 H4         -1.5108   -4.8665    4.3462 H         1 <0>         0.1413
     33 H5         -0.5117   -3.3741    4.3791 H         1 <0>         0.1328
     34 H6          1.0765   -4.5060    0.2223 H         1 <0>         0.1601
     35 H7          2.8980   -3.0584   -0.5826 H         1 <0>         0.1455
     36 H8          1.5437    0.0726    1.9769 H         1 <0>         0.1524
     37 H9          2.1872    1.2363    0.2245 H         1 <0>         0.0907
     38 H10         3.6678    1.4202   -0.7759 H         1 <0>         0.0818
     39 H11         0.3920    1.7365   -1.8452 H         1 <0>         0.0801
     40 H12         1.9894    2.4619   -2.2307 H         1 <0>         0.0794
     41 H13         0.1563    0.7901   -3.9905 H         1 <0>         0.1022
     42 H14         1.3136    2.0782   -4.4679 H         1 <0>         0.1018
     43 H15         3.9296    0.5009   -2.8478 H         1 <0>         0.1089
     44 H16         3.2688   -1.1664   -2.7477 H         1 <0>         0.0924
     45 H17         5.6392   -1.7652    1.0501 H         1 <0>         0.4461
     46 H18         4.8338    0.8853    3.5251 H         1 <0>         0.2059
     47 H19         8.5477    0.7283    5.3892 H         1 <0>         0.1725
     48 H20         9.3276   -0.8982    3.7165 H         1 <0>         0.1757
@<TRIPOS>BOND
     1    1    2 1
     2    1   31 1
     3    1   32 1
     4    1   33 1
     5    2    3 2
     6    2    4 2
     7    2    5 1
     8    5   10 ar
     9    5    6 ar
    10    6    7 ar
    11    6   34 1
    12    7    8 ar
    13    7   35 1
    14    8    9 ar
    15    8   12 1
    16    9   10 ar
    17    9   36 1
    18   10   11 1
    19   12   13 1
    20   12   14 1
    21   12   22 1
    22   14   15 1
    23   14   37 1
    24   14   38 1
    25   15   16 1
    26   15   21 1
    27   15   17 1
    28   17   18 1
    29   17   39 1
    30   17   40 1
    31   18   19 1
    32   18   41 1
    33   18   42 1
    34   19   20 2
    35   19   21 1
    36   21   43 1
    37   21   44 1
    38   22   23 2
    39   22   24 am
    40   24   25 1
    41   24   45 1
    42   25   30 ar
    43   25   26 ar
    44   26   27 ar
    45   26   46 1
    46   27   28 ar
    47   28   29 ar
    48   28   47 1
    49   29   30 ar
    50   29   48 1
@<TRIPOS>MOLECULE
ZINC40556749
   61    63     0     0     0
SMALL
USER_CHARGES

@<TRIPOS>ATOM
      1 C1          1.7382   -2.4467    0.8145 C.3       1 <0>        -0.1806
      2 C2          1.4582   -0.9752    1.1262 C.3       1 <0>         0.0828
      3 H1          1.9187   -0.7115    2.0783 H         1 <0>         0.0820
      4 C3          2.0428   -0.0987    0.0167 C.3       1 <0>        -0.0746
      5 C4          1.8758    1.3535    0.3832 C.ar      1 <0>        -0.0863
      6 C5          0.7325    2.0339    0.0079 C.ar      1 <0>        -0.1021
      7 C6          0.5792    3.3659    0.3441 C.ar      1 <0>        -0.1223
      8 C7          1.5690    4.0175    1.0559 C.ar      1 <0>        -0.1226
      9 C8          2.7119    3.3368    1.4319 C.ar      1 <0>        -0.1191
     10 C9          2.8633    2.0036    1.0995 C.ar      1 <0>        -0.1162
     11 O1          0.0469   -0.7652    1.2053 O.3       1 <0>        -0.3012
     12 C10        -0.5555   -1.0601    2.3873 C.ar      1 <0>         0.1716
     13 C11         0.2078   -1.4616    3.4714 C.ar      1 <0>        -0.1893
     14 C12        -0.4116   -1.7635    4.6845 C.ar      1 <0>        -0.0466
     15 C13        -1.7984   -1.6595    4.8002 C.ar      1 <0>        -0.1608
     16 C14        -2.5538   -1.2574    3.7114 C.ar      1 <0>         0.1663
     17 C15        -1.9332   -0.9530    2.5083 C.ar      1 <0>        -0.2273
     18 O2         -3.9045   -1.1558    3.8229 O.3       1 <0>        -0.2934
     19 C16        -4.6293   -0.8146    2.6396 C.3       1 <0>         0.0823
     20 H2         -4.0534   -0.0973    2.0549 H         1 <0>         0.0892
     21 C17        -4.8693   -2.0756    1.8071 C.3       1 <0>        -0.1760
     22 C18        -5.9739   -0.1950    3.0259 C.3       1 <0>         0.0658
     23 O3         -6.7754   -1.1731    3.6914 O.3       1 <0>        -0.3791
     24 C19        -8.0593   -0.6943    4.0968 C.3       1 <0>         0.0301
     25 C20         0.3988   -2.1929    5.8438 C.2       1 <0>         0.5462
     26 O4          1.6065   -2.2832    5.7411 O.2       1 <0>        -0.4604
     27 N1         -0.2015   -2.4841    7.0148 N.am      1 <0>        -0.6520
     28 C21         0.5652   -2.7844    8.1318 C.ar      1 <0>         0.3362
     29 C22        -0.0632   -3.1964    9.3053 C.ar      1 <0>        -0.2165
     30 C23         0.6955   -3.4924   10.4054 C.ar      1 <0>        -0.0206
     31 C24         2.0913   -3.3687   10.3092 C.ar      1 <0>        -0.2056
     32 C25         2.6527   -2.9500    9.1000 C.ar      1 <0>         0.1545
     33 N2          1.8853   -2.6805    8.0652 N.ar      1 <0>        -0.4868
     34 C26         2.9500   -3.6752   11.4652 C.2       1 <0>         0.5269
     35 O5          2.4488   -4.0407   12.5197 O.co2     1 <0>        -0.6874
     36 O6          4.1647   -3.5644   11.3713 O.co2     1 <0>        -0.6841
     37 H3          1.2777   -2.7105   -0.1376 H         1 <0>         0.0677
     38 H4          2.8147   -2.6069    0.7542 H         1 <0>         0.0760
     39 H5          1.3217   -3.0712    1.6049 H         1 <0>         0.0672
     40 H6          3.1026   -0.3235   -0.1034 H         1 <0>         0.0950
     41 H7          1.5204   -0.2999   -0.9185 H         1 <0>         0.0845
     42 H8         -0.0409    1.5248   -0.5482 H         1 <0>         0.1214
     43 H9         -0.3137    3.8977    0.0503 H         1 <0>         0.1193
     44 H10         1.4496    5.0584    1.3179 H         1 <0>         0.1194
     45 H11         3.4854    3.8459    1.9877 H         1 <0>         0.1217
     46 H12         3.7545    1.4708    1.3965 H         1 <0>         0.1221
     47 H13         1.2808   -1.5411    3.3774 H         1 <0>         0.1462
     48 H14        -2.2820   -1.8927    5.7373 H         1 <0>         0.1358
     49 H15        -2.5249   -0.6357    1.6623 H         1 <0>         0.1401
     50 H16        -5.4222   -1.8154    0.9045 H         1 <0>         0.0701
     51 H17        -3.9114   -2.5170    1.5318 H         1 <0>         0.0638
     52 H18        -5.4452   -2.7929    2.3918 H         1 <0>         0.0783
     53 H19        -5.8059    0.6513    3.6920 H         1 <0>         0.0608
     54 H20        -6.4883    0.1461    2.1276 H         1 <0>         0.0701
     55 H21        -8.6057   -1.4959    4.5939 H         1 <0>         0.0878
     56 H22        -7.9347    0.1417    4.7851 H         1 <0>         0.0426
     57 H23        -8.6170   -0.3636    3.2206 H         1 <0>         0.0402
     58 H24        -1.1695   -2.4838    7.0769 H         1 <0>         0.4135
     59 H25        -1.1390   -3.2810    9.3466 H         1 <0>         0.1275
     60 H26         0.2315   -3.8134   11.3263 H         1 <0>         0.1406
     61 H27         3.7245   -2.8504    9.0128 H         1 <0>         0.1655
@<TRIPOS>BOND
     1    1    2 1
     2    1   37 1
     3    1   38 1
     4    1   39 1
     5    2    3 1
     6    2    4 1
     7    2   11 1
     8    4    5 1
     9    4   40 1
    10    4   41 1
    11    5   10 ar
    12    5    6 ar
    13    6    7 ar
    14    6   42 1
    15    7    8 ar
    16    7   43 1
    17    8    9 ar
    18    8   44 1
    19    9   10 ar
    20    9   45 1
    21   10   46 1
    22   11   12 1
    23   12   17 ar
    24   12   13 ar
    25   13   14 ar
    26   13   47 1
    27   14   15 ar
    28   14   25 1
    29   15   16 ar
    30   15   48 1
    31   16   17 ar
    32   16   18 1
    33   17   49 1
    34   18   19 1
    35   19   20 1
    36   19   21 1
    37   19   22 1
    38   21   50 1
    39   21   51 1
    40   21   52 1
    41   22   23 1
    42   22   53 1
    43   22   54 1
    44   23   24 1
    45   24   55 1
    46   24   56 1
    47   24   57 1
    48   25   26 2
    49   25   27 am
    50   27   28 1
    51   27   58 1
    52   28   33 ar
    53   28   29 ar
    54   29   30 ar
    55   29   59 1
    56   30   31 ar
    57   30   60 1
    58   31   32 ar
    59   31   34 1
    60   32   33 ar
    61   32   61 1
    62   34   35 2
    63   34   36 1
@<TRIPOS>MOLECULE
ZINC00477397
   25    26     0     0     0
SMALL
USER_CHARGES
3-chloro-N-(4-methylthiazol-2-yl)-benzamide
@<TRIPOS>ATOM
      1 C1         -0.0127    1.0858    0.0080 C.3       1 <0>        -0.0816
      2 C2         -0.7181    1.5718    1.2479 C.2       1 <0>         0.0800
      3 C3         -2.0560    1.7898    1.2441 C.2       1 <0>        -0.2633
      4 S1         -2.3086    2.3324    2.9278 S.3       1 <0>         0.1598
      5 C4         -0.6558    2.2260    3.4499 C.2       1 <0>         0.2796
      6 N1         -0.0472    1.8001    2.3599 N.2       1 <0>        -0.5428
      7 N2         -0.1138    2.5152    4.6956 N.am      1 <0>        -0.6066
      8 C5         -0.9109    2.9437    5.6943 C.2       1 <0>         0.5657
      9 O1         -2.1043    3.0770    5.5049 O.2       1 <0>        -0.4891
     10 C6         -0.3342    3.2514    7.0199 C.ar      1 <0>        -0.1235
     11 C7         -1.1572    3.6955    8.0566 C.ar      1 <0>        -0.0464
     12 C8         -0.6132    3.9811    9.2915 C.ar      1 <0>        -0.1100
     13 C9          0.7453    3.8282    9.5049 C.ar      1 <0>        -0.0751
     14 C10         1.5677    3.3883    8.4817 C.ar      1 <0>        -0.0424
     15 C11         1.0346    3.0939    7.2422 C.ar      1 <0>        -0.0759
     16 Cl1         3.2709    3.1997    8.7593 Cl        1 <0>        -0.0534
     17 H1          0.0021   -0.0041    0.0020 H         1 <0>         0.0751
     18 H2          1.0099    1.4631    0.0003 H         1 <0>         0.0738
     19 H3         -0.5399    1.4469   -0.8751 H         1 <0>         0.0762
     20 H4         -2.7718    1.6677    0.4447 H         1 <0>         0.1972
     21 H5          0.8384    2.4088    4.8467 H         1 <0>         0.4249
     22 H6         -2.2179    3.8147    7.8920 H         1 <0>         0.1487
     23 H7         -1.2492    4.3247   10.0939 H         1 <0>         0.1468
     24 H8          1.1659    4.0526   10.4740 H         1 <0>         0.1440
     25 H9          1.6760    2.7465    6.4457 H         1 <0>         0.1384
@<TRIPOS>BOND
     1    1    2 1
     2    1   17 1
     3    1   18 1
     4    1   19 1
     5    2    6 1
     6    2    3 2
     7    3    4 1
     8    3   20 1
     9    4    5 1
    10    5    6 2
    11    5    7 1
    12    7    8 am
    13    7   21 1
    14    8    9 2
    15    8   10 1
    16   10   15 ar
    17   10   11 ar
    18   11   12 ar
    19   11   22 1
    20   12   13 ar
    21   12   23 1
    22   13   14 ar
    23   13   24 1
    24   14   15 ar
    25   14   16 1
    26   15   25 1
@<TRIPOS>MOLECULE
ZINC20155240
   24    25     0     0     0
SMALL
USER_CHARGES
2-amino-5-chloro-N-thiazol-2-yl-benzamide
@<TRIPOS>ATOM
      1 C1          1.2234   -2.0651   -0.1247 C.ar      1 <0>        -0.0219
      2 C2          1.2086   -0.6854   -0.0979 C.ar      1 <0>        -0.2041
      3 C3          0.0040   -0.0043    0.0221 C.ar      1 <0>         0.3041
      4 C4         -1.1958   -0.7264    0.1212 C.ar      1 <0>        -0.2348
      5 C5         -1.1654   -2.1229    0.0873 C.ar      1 <0>        -0.0192
      6 C6          0.0400   -2.7817   -0.0319 C.ar      1 <0>        -0.1137
      7 Cl1         0.0762   -4.5170   -0.0666 Cl        1 <0>        -0.0711
      8 C7         -2.4800   -0.0157    0.2551 C.2       1 <0>         0.5826
      9 O1         -2.5149    1.1973    0.1756 O.2       1 <0>        -0.4868
     10 N1         -3.6158   -0.7102    0.4656 N.am      1 <0>        -0.6287
     11 C8         -4.8260   -0.0404    0.5918 C.2       1 <0>         0.3096
     12 N2         -5.0650    1.2558    0.5416 N.2       1 <0>        -0.5176
     13 C9         -6.2877    1.7307    0.6780 C.2       1 <0>         0.0572
     14 C10        -7.3017    0.8551    0.8836 C.2       1 <0>        -0.2303
     15 S1         -6.4116   -0.6942    0.8638 S.3       1 <0>         0.0525
     16 N3         -0.0128    1.3847    0.0497 N.pl3     1 <0>        -0.8689
     17 H1          2.1627   -2.5899   -0.2182 H         1 <0>         0.1380
     18 H2          2.1348   -0.1345   -0.1700 H         1 <0>         0.1383
     19 H3         -2.0844   -2.6857    0.1593 H         1 <0>         0.1308
     20 H4         -3.5843   -1.8074    0.5374 H         1 <0>         0.4540
     21 H5         -6.4760    2.7931    0.6313 H         1 <0>         0.1735
     22 H6         -8.3564    1.0422    1.0214 H         1 <0>         0.2003
     23 H7         -0.9683    1.9214    0.1448 H         1 <0>         0.4410
     24 H8          0.9294    1.9477   -0.0236 H         1 <0>         0.4151
@<TRIPOS>BOND
     1    1    6 ar
     2    1    2 ar
     3    1   17 1
     4    2    3 ar
     5    2   18 1
     6    3    4 ar
     7    3   16 1
     8    4    5 ar
     9    4    8 1
    10    5    6 ar
    11    5   19 1
    12    6    7 1
    13    8    9 2
    14    8   10 am
    15   10   11 1
    16   10   20 1
    17   11   15 1
    18   11   12 2
    19   12   13 1
    20   13   14 2
    21   13   21 1
    22   14   15 1
    23   14   22 1
    24   16   23 1
    25   16   24 1
@<TRIPOS>MOLECULE
ZINC02630267
   36    38     0     0     0
SMALL
USER_CHARGES
N-(4-methylthiazol-2-yl)-3-phenoxy-benzamide
@<TRIPOS>ATOM
      1 C1          5.1415   10.9698    0.1725 C.3       1 <0>        -0.0812
      2 C2          4.0064    9.9794    0.2152 C.2       1 <0>         0.0798
      3 C3          2.7266   10.3979    0.3710 C.2       1 <0>        -0.2646
      4 S1          1.8610    8.8349    0.3470 S.3       1 <0>         0.1596
      5 C4          3.2483    7.8115    0.1381 C.2       1 <0>         0.2807
      6 N1          4.2358    8.6854    0.1072 N.2       1 <0>        -0.5439
      7 N2          3.3043    6.4275    0.0359 N.am      1 <0>        -0.6054
      8 C5          2.1708    5.7009    0.0969 C.2       1 <0>         0.5653
      9 O1          1.0995    6.2568    0.2414 O.2       1 <0>        -0.4888
     10 C6          2.2304    4.2280   -0.0118 C.ar      1 <0>        -0.0986
     11 C7          3.4597    3.5868   -0.1774 C.ar      1 <0>        -0.1144
     12 C8          3.5117    2.2118   -0.2781 C.ar      1 <0>        -0.0836
     13 C9          2.3501    1.4647   -0.2100 C.ar      1 <0>        -0.1607
     14 C10         1.1225    2.0936   -0.0512 C.ar      1 <0>         0.1187
     15 C11         1.0587    3.4734    0.0510 C.ar      1 <0>        -0.0775
     16 O2         -0.0164    1.3546    0.0095 O.3       1 <0>        -0.2516
     17 C12         0.1018    0.0011    0.0327 C.ar      1 <0>         0.0801
     18 C13        -0.3461   -0.7541   -1.0417 C.ar      1 <0>        -0.1195
     19 C14        -0.2204   -2.1295   -1.0177 C.ar      1 <0>        -0.1022
     20 C15         0.3416   -2.7545    0.0802 C.ar      1 <0>        -0.1180
     21 C16         0.7840   -2.0047    1.1544 C.ar      1 <0>        -0.1030
     22 C17         0.6654   -0.6286    1.1332 C.ar      1 <0>        -0.1397
     23 H1          5.5160   11.1369    1.1824 H         1 <0>         0.0747
     24 H2          5.9437   10.5764   -0.4519 H         1 <0>         0.0735
     25 H3          4.7860   11.9123   -0.2438 H         1 <0>         0.0760
     26 H4          2.3375   11.3995    0.4797 H         1 <0>         0.1968
     27 H5          4.1591    5.9839   -0.0794 H         1 <0>         0.4254
     28 H6          4.3693    4.1669   -0.2269 H         1 <0>         0.1321
     29 H7          4.4632    1.7171   -0.4061 H         1 <0>         0.1393
     30 H8          2.3975    0.3883   -0.2846 H         1 <0>         0.1383
     31 H9          0.1049    3.9637    0.1786 H         1 <0>         0.1514
     32 H10        -0.7891   -0.2667   -1.8976 H         1 <0>         0.1343
     33 H11        -0.5651   -2.7176   -1.8554 H         1 <0>         0.1337
     34 H12         0.4349   -3.8303    0.0989 H         1 <0>         0.1302
     35 H13         1.2222   -2.4953    2.0109 H         1 <0>         0.1318
     36 H14         1.0108   -0.0433    1.9726 H         1 <0>         0.1310
@<TRIPOS>BOND
     1    1    2 1
     2    1   23 1
     3    1   24 1
     4    1   25 1
     5    2    6 1
     6    2    3 2
     7    3    4 1
     8    3   26 1
     9    4    5 1
    10    5    6 2
    11    5    7 1
    12    7    8 am
    13    7   27 1
    14    8    9 2
    15    8   10 1
    16   10   15 ar
    17   10   11 ar
    18   11   12 ar
    19   11   28 1
    20   12   13 ar
    21   12   29 1
    22   13   14 ar
    23   13   30 1
    24   14   15 ar
    25   14   16 1
    26   15   31 1
    27   16   17 1
    28   17   22 ar
    29   17   18 ar
    30   18   19 ar
    31   18   32 1
    32   19   20 ar
    33   19   33 1
    34   20   21 ar
    35   20   34 1
    36   21   22 ar
    37   21   35 1
    38   22   36 1
@<TRIPOS>MOLECULE
ZINC19390700
   27    28     0     0     0
SMALL
USER_CHARGES
2-amino-5-chloro-N-(4-methylthiazol-2-yl)benzamide
@<TRIPOS>ATOM
      1 C1         -0.5589   -0.8917    0.9142 C.3       1 <0>        -0.0825
      2 C2         -1.1441    0.0279    1.9549 C.2       1 <0>         0.0820
      3 C3         -2.4119    0.4923    1.8356 C.2       1 <0>        -0.2666
      4 S1         -2.5391    1.4926    3.3108 S.3       1 <0>         0.1476
      5 C4         -0.9364    1.2081    3.9156 C.2       1 <0>         0.2903
      6 N1         -0.4327    0.4037    2.9997 N.2       1 <0>        -0.5468
      7 N2         -0.3385    1.7007    5.0685 N.am      1 <0>        -0.6185
      8 C5         -1.0270    2.5205    5.8872 C.2       1 <0>         0.5878
      9 O1         -2.1718    2.8289    5.6166 O.2       1 <0>        -0.5180
     10 C6         -0.3926    3.0432    7.1106 C.ar      1 <0>        -0.2352
     11 C7          0.9595    2.7945    7.3627 C.ar      1 <0>        -0.0167
     12 C8          1.5468    3.2866    8.5085 C.ar      1 <0>        -0.1129
     13 C9          0.8026    4.0284    9.4140 C.ar      1 <0>        -0.0192
     14 C10        -0.5330    4.2816    9.1788 C.ar      1 <0>        -0.2037
     15 C11        -1.1409    3.7986    8.0266 C.ar      1 <0>         0.3069
     16 N3         -2.4844    4.0575    7.7851 N.pl3     1 <0>        -0.8682
     17 Cl1         3.2265    2.9771    8.8195 Cl        1 <0>        -0.0688
     18 H1         -1.3074   -1.0826    0.1311 H         1 <0>         0.0759
     19 H2         -0.2707   -1.8428    1.3857 H         1 <0>         0.0745
     20 H3          0.3286   -0.4208    0.4662 H         1 <0>         0.0745
     21 H4         -3.1436    0.3079    1.0629 H         1 <0>         0.1956
     22 H5          0.6970    1.4217    5.3133 H         1 <0>         0.4530
     23 H6          1.5433    2.2178    6.6606 H         1 <0>         0.1331
     24 H7          1.2716    4.4098   10.3090 H         1 <0>         0.1391
     25 H8         -1.1056    4.8597    9.8890 H         1 <0>         0.1395
     26 H9         -3.0684    4.6499    8.5048 H         1 <0>         0.4166
     27 H10        -2.9641    3.6701    6.8742 H         1 <0>         0.4406
@<TRIPOS>BOND
     1    1    2 1
     2    1   18 1
     3    1   19 1
     4    1   20 1
     5    2    6 1
     6    2    3 2
     7    3    4 1
     8    3   21 1
     9    4    5 1
    10    5    6 2
    11    5    7 1
    12    7    8 am
    13    7   22 1
    14    8    9 2
    15    8   10 1
    16   10   15 ar
    17   10   11 ar
    18   11   12 ar
    19   11   23 1
    20   12   13 ar
    21   12   17 1
    22   13   14 ar
    23   13   24 1
    24   14   15 ar
    25   14   25 1
    26   15   16 1
    27   16   26 1
    28   16   27 1
@<TRIPOS>MOLECULE
ZINC03987101
   50    52     0     0     0
SMALL
USER_CHARGES
3-(2-hydroxy-1-methyl-ethoxy)-5-(4-methylsulfonylphenoxy)-N-thiazol-2-yl-benzamide
@<TRIPOS>ATOM
      1 C1          2.5120   -0.8773    1.5101 C.3       1 <0>        -0.1789
      2 C2          2.3992   -0.3127    0.0926 C.3       1 <0>         0.0791
      3 H1          1.4397   -0.5998   -0.3376 H         1 <0>         0.0873
      4 C3          3.5326   -0.8709   -0.7704 C.3       1 <0>         0.0810
      5 O1          4.7876   -0.5947   -0.1452 O.3       1 <0>        -0.5622
      6 O2          2.4931    1.1125    0.1386 O.3       1 <0>        -0.2877
      7 C4          1.3547    1.7969    0.4264 C.ar      1 <0>         0.1513
      8 C5          1.3715    3.1815    0.4658 C.ar      1 <0>        -0.0816
      9 C6          0.2023    3.8833    0.7613 C.ar      1 <0>        -0.0760
     10 C7         -0.9796    3.1863    1.0159 C.ar      1 <0>        -0.1413
     11 C8         -0.9885    1.8020    0.9696 C.ar      1 <0>         0.1178
     12 C9          0.1780    1.1080    0.6805 C.ar      1 <0>        -0.1887
     13 O3         -2.1399    1.1224    1.2127 O.3       1 <0>        -0.2473
     14 C10        -3.0734    1.0754    0.2264 C.ar      1 <0>         0.1736
     15 C11        -2.7933    1.6130   -1.0218 C.ar      1 <0>        -0.2163
     16 C12        -3.7421    1.5593   -2.0243 C.ar      1 <0>         0.0169
     17 C13        -4.9741    0.9803   -1.7816 C.ar      1 <0>        -0.6921
     18 C14        -5.2578    0.4490   -0.5369 C.ar      1 <0>         0.0150
     19 C15        -4.3105    0.4950    0.4673 C.ar      1 <0>        -0.1616
     20 S1         -6.1843    0.9189   -3.0607 S.o2      1 <0>         2.5029
     21 O4         -5.4367    0.9447   -4.2688 O.2       1 <0>        -0.9372
     22 O5         -6.9984   -0.1997   -2.7363 O.2       1 <0>        -0.9365
     23 C16        -7.1323    2.4549   -2.8797 C.3       1 <0>        -0.6509
     24 C17         0.2154    5.3608    0.8041 C.2       1 <0>         0.5591
     25 O6          1.2458    5.9662    0.5816 O.2       1 <0>        -0.4512
     26 N1         -0.9151    6.0367    1.0897 N.am      1 <0>        -0.6161
     27 C18        -0.9028    7.4250    1.1298 C.2       1 <0>         0.3017
     28 N2          0.1049    8.2511    0.9255 N.2       1 <0>        -0.5115
     29 C19        -0.0573    9.5577    0.9980 C.2       1 <0>         0.0573
     30 C20        -1.2874   10.0401    1.3009 C.2       1 <0>        -0.2253
     31 S2         -2.2086    8.5183    1.4694 S.3       1 <0>         0.0575
     32 H2          2.4403   -1.9643    1.4750 H         1 <0>         0.0748
     33 H3          3.4714   -0.5901    1.9403 H         1 <0>         0.0816
     34 H4          1.7045   -0.4796    2.1249 H         1 <0>         0.0618
     35 H5          3.4099   -1.9485   -0.8786 H         1 <0>         0.0706
     36 H6          3.5055   -0.4015   -1.7538 H         1 <0>         0.0588
     37 H7          5.5528   -0.9209   -0.6383 H         1 <0>         0.3842
     38 H8          2.2883    3.7171    0.2685 H         1 <0>         0.1570
     39 H9         -1.8867    3.7256    1.2453 H         1 <0>         0.1371
     40 H10         0.1685    0.0285    0.6489 H         1 <0>         0.1491
     41 H11        -1.8326    2.0689   -1.2107 H         1 <0>         0.1392
     42 H12        -3.5228    1.9732   -2.9974 H         1 <0>         0.1476
     43 H13        -6.2209   -0.0026   -0.3499 H         1 <0>         0.1530
     44 H14        -4.5324    0.0793    1.4391 H         1 <0>         0.1460
     45 H15        -6.4655    3.3093   -2.9961 H         1 <0>         0.1312
     46 H16        -7.9097    2.4941   -3.6426 H         1 <0>         0.1339
     47 H17        -7.5912    2.4843   -1.8914 H         1 <0>         0.1321
     48 H18        -1.7373    5.5537    1.2672 H         1 <0>         0.4259
     49 H19         0.7717   10.2279    0.8251 H         1 <0>         0.1759
     50 H20        -1.6190   11.0621    1.4105 H         1 <0>         0.2021
@<TRIPOS>BOND
     1    1    2 1
     2    1   32 1
     3    1   33 1
     4    1   34 1
     5    2    3 1
     6    2    4 1
     7    2    6 1
     8    4    5 1
     9    4   35 1
    10    4   36 1
    11    5   37 1
    12    6    7 1
    13    7   12 ar
    14    7    8 ar
    15    8    9 ar
    16    8   38 1
    17    9   10 ar
    18    9   24 1
    19   10   11 ar
    20   10   39 1
    21   11   12 ar
    22   11   13 1
    23   12   40 1
    24   13   14 1
    25   14   19 ar
    26   14   15 ar
    27   15   16 ar
    28   15   41 1
    29   16   17 ar
    30   16   42 1
    31   17   18 ar
    32   17   20 1
    33   18   19 ar
    34   18   43 1
    35   19   44 1
    36   20   21 2
    37   20   22 2
    38   20   23 1
    39   23   45 1
    40   23   46 1
    41   23   47 1
    42   24   25 2
    43   24   26 am
    44   26   27 1
    45   26   48 1
    46   27   31 1
    47   27   28 2
    48   28   29 1
    49   29   30 2
    50   29   49 1
    51   30   31 1
    52   30   50 1
@<TRIPOS>MOLECULE
ZINC13977788
   50    52     0     0     0
SMALL
USER_CHARGES
3-[(1S)-2-hydroxy-1-methyl-ethoxy]-5-(4-methylsulfonylphenoxy)-N-thiazol-2-yl-benzamide
@<TRIPOS>ATOM
      1 C1          0.4619    5.1010    1.4230 C.3       1 <0>        -0.1764
      2 C2          0.7802    4.8609   -0.0541 C.3       1 <0>         0.0780
      3 H1         -0.0769    4.3938   -0.5392 H         1 <0>         0.0907
      4 C3          1.0852    6.1973   -0.7338 C.3       1 <0>         0.0814
      5 O1          2.1328    6.8635   -0.0262 O.3       1 <0>        -0.5625
      6 O2          1.9162    4.0009   -0.1629 O.3       1 <0>        -0.2913
      7 C4          1.6906    2.6647   -0.0599 C.ar      1 <0>         0.1728
      8 C5          0.3953    2.1895    0.0643 C.ar      1 <0>        -0.1775
      9 C6          0.1647    0.8175    0.1695 C.ar      1 <0>        -0.0544
     10 C7          1.2410   -0.0705    0.1492 C.ar      1 <0>        -0.1503
     11 C8          2.5329    0.4131    0.0247 C.ar      1 <0>         0.1592
     12 C9          2.7576    1.7786   -0.0801 C.ar      1 <0>        -0.2041
     13 O3          3.5818   -0.4506    0.0048 O.3       1 <0>        -0.2521
     14 C10         4.8232    0.0582   -0.2109 C.ar      1 <0>         0.1351
     15 C11         5.4287   -0.0884   -1.4508 C.ar      1 <0>        -0.1385
     16 C12         6.6886    0.4344   -1.6689 C.ar      1 <0>        -0.0072
     17 C13         7.3508    1.0936   -0.6498 C.ar      1 <0>        -0.6606
     18 C14         6.7521    1.2361    0.5884 C.ar      1 <0>        -0.0072
     19 C15         5.4900    0.7202    0.8101 C.ar      1 <0>        -0.1519
     20 S1          8.9603    1.7539   -0.9296 S.o2      1 <0>         2.5002
     21 O4          9.0140    1.9978   -2.3285 O.2       1 <0>        -0.9336
     22 O5          9.0793    2.8243   -0.0026 O.2       1 <0>        -0.9328
     23 C16        10.0981    0.4129   -0.4850 C.3       1 <0>        -0.6494
     24 C17        -1.2158    0.3059    0.3017 C.2       1 <0>         0.5600
     25 O6         -2.1522    1.0810    0.3188 O.2       1 <0>        -0.4565
     26 N1         -1.4364   -1.0198    0.4032 N.am      1 <0>        -0.6151
     27 C18        -2.7336   -1.5005    0.5274 C.2       1 <0>         0.3022
     28 N2         -3.8665   -0.8264    0.5710 N.2       1 <0>        -0.5132
     29 C19        -5.0253   -1.4448    0.6883 C.2       1 <0>         0.0568
     30 C20        -5.0297   -2.7975    0.7761 C.2       1 <0>        -0.2268
     31 S2         -3.2795   -3.1425    0.6727 S.3       1 <0>         0.0596
     32 H2         -0.4047    5.7570    1.5060 H         1 <0>         0.0747
     33 H3          0.2446    4.1490    1.9073 H         1 <0>         0.0617
     34 H4          1.3190    5.5681    1.9082 H         1 <0>         0.0794
     35 H5          1.3982    6.0186   -1.7625 H         1 <0>         0.0576
     36 H6          0.1906    6.8199   -0.7291 H         1 <0>         0.0708
     37 H7          2.3790    7.7196   -0.4023 H         1 <0>         0.3833
     38 H8         -0.4352    2.8798    0.0752 H         1 <0>         0.1511
     39 H9          1.0669   -1.1333    0.2307 H         1 <0>         0.1398
     40 H10         3.7662    2.1524   -0.1774 H         1 <0>         0.1458
     41 H11         4.9135   -0.6068   -2.2459 H         1 <0>         0.1456
     42 H12         7.1583    0.3248   -2.6353 H         1 <0>         0.1533
     43 H13         7.2715    1.7514    1.3828 H         1 <0>         0.1524
     44 H14         5.0225    0.8323    1.7772 H         1 <0>         0.1442
     45 H15         9.9025   -0.4539   -1.1163 H         1 <0>         0.1327
     46 H16        11.1259    0.7447   -0.6318 H         1 <0>         0.1354
     47 H17         9.9496    0.1419    0.5603 H         1 <0>         0.1327
     48 H18        -0.6893   -1.6382    0.3896 H         1 <0>         0.4278
     49 H19        -5.9491   -0.8862    0.7185 H         1 <0>         0.1752
     50 H20        -5.8613   -3.4786    0.8801 H         1 <0>         0.2017
@<TRIPOS>BOND
     1    1    2 1
     2    1   32 1
     3    1   33 1
     4    1   34 1
     5    2    3 1
     6    2    4 1
     7    2    6 1
     8    4    5 1
     9    4   35 1
    10    4   36 1
    11    5   37 1
    12    6    7 1
    13    7   12 ar
    14    7    8 ar
    15    8    9 ar
    16    8   38 1
    17    9   10 ar
    18    9   24 1
    19   10   11 ar
    20   10   39 1
    21   11   12 ar
    22   11   13 1
    23   12   40 1
    24   13   14 1
    25   14   19 ar
    26   14   15 ar
    27   15   16 ar
    28   15   41 1
    29   16   17 ar
    30   16   42 1
    31   17   18 ar
    32   17   20 1
    33   18   19 ar
    34   18   43 1
    35   19   44 1
    36   20   21 2
    37   20   22 2
    38   20   23 1
    39   23   45 1
    40   23   46 1
    41   23   47 1
    42   24   25 2
    43   24   26 am
    44   26   27 1
    45   26   48 1
    46   27   31 1
    47   27   28 2
    48   28   29 1
    49   29   30 2
    50   29   49 1
    51   30   31 1
    52   30   50 1
@<TRIPOS>MOLECULE
ZINC05893340
   35    37     0     0     0
SMALL
USER_CHARGES
2-amino-4-fluoro-5-(1-methylimidazol-2-yl)sulfanyl-N-thiazol-2-yl-benzamide
@<TRIPOS>ATOM
      1 C1          4.0418    3.2372   -1.7911 C.3       1 <0>         0.0698
      2 N1          3.0960    4.1686   -2.4108 N.pl3     1 <0>        -0.4489
      3 C2          3.0344    4.5072   -3.7435 C.2       1 <0>        -0.0444
      4 C3          2.0302    5.3905   -3.8776 C.2       1 <0>        -0.0191
      5 N2          1.4774    5.5889   -2.6696 N.2       1 <0>        -0.4775
      6 C4          2.1108    4.8630   -1.7779 C.2       1 <0>         0.1665
      7 S1          1.7481    4.7988   -0.0548 S.3       1 <0>         0.1036
      8 C5          0.4977    6.0366    0.0409 C.ar      1 <0>        -0.2275
      9 C6         -0.8291    5.6681    0.1658 C.ar      1 <0>         0.0524
     10 C7         -1.8206    6.6511    0.2417 C.ar      1 <0>        -0.2382
     11 C8         -1.4607    8.0072    0.1904 C.ar      1 <0>         0.3365
     12 C9         -0.1248    8.3626    0.0648 C.ar      1 <0>        -0.2443
     13 C10         0.8494    7.3852   -0.0038 C.ar      1 <0>         0.2415
     14 F1          2.1485    7.7377   -0.1200 F         1 <0>        -0.1146
     15 N3         -2.4404    8.9921    0.2647 N.pl3     1 <0>        -0.8433
     16 C11        -3.2358    6.2657    0.3744 C.2       1 <0>         0.5745
     17 O1         -4.1043    7.1160    0.3298 O.2       1 <0>        -0.4764
     18 N4         -3.5684    4.9709    0.5451 N.am      1 <0>        -0.6169
     19 C12        -4.9032    4.6074    0.6702 C.2       1 <0>         0.3051
     20 N5         -5.9760    5.3745    0.6539 N.2       1 <0>        -0.5129
     21 C13        -7.1843    4.8621    0.7825 C.2       1 <0>         0.0569
     22 C14        -7.3035    3.5217    0.9453 C.2       1 <0>        -0.2285
     23 S2         -5.5871    3.0273    0.8959 S.3       1 <0>         0.0561
     24 H1          4.9302    3.7812   -1.4702 H         1 <0>         0.0821
     25 H2          3.5736    2.7647   -0.9276 H         1 <0>         0.0880
     26 H3          4.3255    2.4725   -2.5143 H         1 <0>         0.0913
     27 H4          3.6743    4.1371   -4.5309 H         1 <0>         0.1789
     28 H5          1.7191    5.8587   -4.7998 H         1 <0>         0.1726
     29 H6         -1.0991    4.6231    0.2043 H         1 <0>         0.1417
     30 H7          0.1541    9.4052    0.0252 H         1 <0>         0.1499
     31 H8         -3.2881    8.8013    0.6959 H         1 <0>         0.4195
     32 H9         -2.2758    9.8695   -0.1146 H         1 <0>         0.4042
     33 H10        -2.8757    4.2928    0.5807 H         1 <0>         0.4260
     34 H11        -8.0582    5.4962    0.7637 H         1 <0>         0.1744
     35 H12        -8.1909    2.9191    1.0706 H         1 <0>         0.2009
@<TRIPOS>BOND
     1    1    2 1
     2    1   24 1
     3    1   25 1
     4    1   26 1
     5    2    6 1
     6    2    3 1
     7    3    4 2
     8    3   27 1
     9    4    5 1
    10    4   28 1
    11    5    6 2
    12    6    7 1
    13    7    8 1
    14    8   13 ar
    15    8    9 ar
    16    9   10 ar
    17    9   29 1
    18   10   11 ar
    19   10   16 1
    20   11   12 ar
    21   11   15 1
    22   12   13 ar
    23   12   30 1
    24   13   14 1
    25   15   31 1
    26   15   32 1
    27   16   17 2
    28   16   18 am
    29   18   19 1
    30   18   33 1
    31   19   23 1
    32   19   20 2
    33   20   21 1
    34   21   22 2
    35   21   34 1
    36   22   23 1
    37   22   35 1
@<TRIPOS>MOLECULE
ZINC05893340
   36    38     0     0     0
SMALL
USER_CHARGES
2-amino-4-fluoro-5-(1-methylimidazol-2-yl)sulfanyl-N-thiazol-2-yl-benzamide
@<TRIPOS>ATOM
      1 C1          4.0418    3.2372   -1.7911 C.3       1 <0>         0.0552
      2 N1          3.0960    4.1686   -2.4108 N.pl3     1 <0>        -0.4005
      3 C2          3.0344    4.5072   -3.7435 C.2       1 <0>         0.0315
      4 C3          2.0302    5.3905   -3.8776 C.2       1 <0>         0.0121
      5 C4          2.1108    4.8630   -1.7779 C.cat     1 <0>         0.2397
      6 S1          1.7481    4.7988   -0.0548 S.3       1 <0>         0.2250
      7 C5          0.4977    6.0366    0.0409 C.ar      1 <0>        -0.3252
      8 C6         -0.8291    5.6681    0.1658 C.ar      1 <0>         0.0627
      9 C7         -1.8206    6.6511    0.2417 C.ar      1 <0>        -0.2286
     10 C8         -1.4607    8.0072    0.1904 C.ar      1 <0>         0.3541
     11 C9         -0.1248    8.3626    0.0648 C.ar      1 <0>        -0.2343
     12 C10         0.8494    7.3852   -0.0038 C.ar      1 <0>         0.2226
     13 F1          2.1485    7.7377   -0.1200 F         1 <0>        -0.1091
     14 N2         -2.4404    8.9921    0.2647 N.pl3     1 <0>        -0.8202
     15 C11        -3.2358    6.2657    0.3744 C.2       1 <0>         0.5673
     16 O1         -4.1043    7.1160    0.3298 O.2       1 <0>        -0.4662
     17 N3         -3.5684    4.9709    0.5451 N.am      1 <0>        -0.6137
     18 C12        -4.9032    4.6074    0.6702 C.2       1 <0>         0.2838
     19 N4         -5.9760    5.3745    0.6539 N.2       1 <0>        -0.5052
     20 C13        -7.1843    4.8621    0.7825 C.2       1 <0>         0.0516
     21 C14        -7.3035    3.5217    0.9453 C.2       1 <0>        -0.2120
     22 S2         -5.5871    3.0273    0.8959 S.3       1 <0>         0.0697
     23 H1          4.9302    3.7812   -1.4702 H         1 <0>         0.1137
     24 H2          3.5736    2.7647   -0.9276 H         1 <0>         0.1103
     25 H3          4.3255    2.4725   -2.5143 H         1 <0>         0.1229
     26 H4          3.6743    4.1371   -4.5309 H         1 <0>         0.2260
     27 H5          1.7191    5.8587   -4.7998 H         1 <0>         0.2236
     28 H6         -1.0991    4.6231    0.2043 H         1 <0>         0.1545
     29 H7          0.1541    9.4052    0.0252 H         1 <0>         0.1636
     30 H8         -3.2881    8.8013    0.6959 H         1 <0>         0.4281
     31 H9         -2.2758    9.8695   -0.1146 H         1 <0>         0.4131
     32 H10        -2.8757    4.2928    0.5807 H         1 <0>         0.4239
     33 H11        -8.0582    5.4962    0.7637 H         1 <0>         0.1786
     34 H12        -8.1909    2.9191    1.0706 H         1 <0>         0.2054
     35 N5          1.4782    5.5883   -2.6698 N.pl3     1 <0>        -0.4943
     36 H13         0.6848    6.2101   -2.4745 H         1 <0>         0.4704
@<TRIPOS>BOND
     1    1    2 1
     2    1   23 1
     3    1   24 1
     4    1   25 1
     5    2    5 1
     6    2    3 1
     7    3    4 2
     8    3   26 1
     9    4   27 1
    10    4   35 1
    11    5    6 1
    12    5   35 2
    13    6    7 1
    14    7   12 ar
    15    7    8 ar
    16    8    9 ar
    17    8   28 1
    18    9   10 ar
    19    9   15 1
    20   10   11 ar
    21   10   14 1
    22   11   12 ar
    23   11   29 1
    24   12   13 1
    25   14   30 1
    26   14   31 1
    27   15   16 2
    28   15   17 am
    29   17   18 1
    30   17   32 1
    31   18   22 1
    32   18   19 2
    33   19   20 1
    34   20   21 2
    35   20   33 1
    36   21   22 1
    37   21   34 1
    38   35   36 1
