@<TRIPOS>MOLECULE
ZINC00121480
   28    29     0     0     0
SMALL
USER_CHARGES

@<TRIPOS>ATOM
      1 C1          0.9603   -0.4516   -1.2269 C.ar      1 <0>        -0.1074
      2 C2          2.1311    0.2598   -1.4013 C.ar      1 <0>        -0.0881
      3 C3          2.3516    1.4196   -0.6794 C.ar      1 <0>        -0.0494
      4 C4          1.4000    1.8697    0.2190 C.ar      1 <0>        -0.0886
      5 C5          0.2275    1.1619    0.3971 C.ar      1 <0>        -0.1323
      6 C6          0.0037   -0.0019   -0.3264 C.ar      1 <0>         0.1652
      7 N1         -1.1842   -0.7209   -0.1480 N.am      1 <0>        -0.6785
      8 C7         -1.1823   -2.0640   -0.2605 C.2       1 <0>         0.7062
      9 O1         -0.1345   -2.6590   -0.4232 O.2       1 <0>        -0.5477
     10 N2         -2.3419   -2.7475   -0.1927 N.am      1 <0>        -0.6788
     11 C8         -2.3307   -4.1473   -0.2005 C.ar      1 <0>         0.1819
     12 C9         -1.2809   -4.8378    0.3911 C.ar      1 <0>        -0.1041
     13 C10        -1.2716   -6.2187    0.3823 C.ar      1 <0>        -0.0752
     14 C11        -2.3070   -6.9153   -0.2157 C.ar      1 <0>        -0.0468
     15 C12        -3.3552   -6.2298   -0.8064 C.ar      1 <0>        -0.0102
     16 C13        -3.3718   -4.8475   -0.7946 C.ar      1 <0>        -0.1282
     17 Cl1        -4.6526   -7.1067   -1.5557 Cl        1 <0>        -0.0402
     18 Cl2        -2.2916   -8.6512   -0.2258 Cl        1 <0>        -0.0450
     19 Cl3         3.8246    2.3112   -0.9006 Cl        1 <0>        -0.0669
     20 H1          0.7869   -1.3545   -1.7936 H         1 <0>         0.1457
     21 H2          2.8755   -0.0895   -2.1016 H         1 <0>         0.1386
     22 H3          1.5746    2.7749    0.7815 H         1 <0>         0.1395
     23 H4         -0.5145    1.5132    1.0989 H         1 <0>         0.1366
     24 H5         -2.0086   -0.2525    0.0565 H         1 <0>         0.4122
     25 H6         -3.1842   -2.2695   -0.1385 H         1 <0>         0.4136
     26 H7         -0.4720   -4.2950    0.8574 H         1 <0>         0.1524
     27 H8         -0.4552   -6.7556    0.8424 H         1 <0>         0.1487
     28 H9         -4.1917   -4.3128   -1.2511 H         1 <0>         0.1468
@<TRIPOS>BOND
     1    1    6 ar
     2    1    2 ar
     3    1   20 1
     4    2    3 ar
     5    2   21 1
     6    3    4 ar
     7    3   19 1
     8    4    5 ar
     9    4   22 1
    10    5    6 ar
    11    5   23 1
    12    6    7 1
    13    7    8 am
    14    7   24 1
    15    8    9 2
    16    8   10 am
    17   10   11 1
    18   10   25 1
    19   11   16 ar
    20   11   12 ar
    21   12   13 ar
    22   12   26 1
    23   13   14 ar
    24   13   27 1
    25   14   15 ar
    26   14   18 1
    27   15   16 ar
    28   15   17 1
    29   16   28 1
@<TRIPOS>MOLECULE
ZINC00367971
   43    45     0     0     0
SMALL
USER_CHARGES

@<TRIPOS>ATOM
      1 C1          1.3094    1.4219    3.2168 C.ar      1 <0>        -0.1337
      2 C2          1.9306    0.2724    3.6695 C.ar      1 <0>        -0.0994
      3 C3          2.8009   -0.4142    2.8457 C.ar      1 <0>        -0.1199
      4 C4          3.0518    0.0510    1.5615 C.ar      1 <0>         0.1584
      5 C5          2.4263    1.2056    1.1098 C.ar      1 <0>        -0.1454
      6 C6          1.5571    1.8877    1.9386 C.ar      1 <0>        -0.0995
      7 N1          3.9334   -0.6421    0.7244 N.am      1 <0>        -0.6799
      8 C7          4.0251   -1.9843    0.8058 C.2       1 <0>         0.7039
      9 O1          3.2742   -2.6018    1.5359 O.2       1 <0>        -0.5483
     10 N2          4.9493   -2.6420    0.0779 N.am      1 <0>        -0.6812
     11 C8          4.9716   -4.0360    0.0750 C.ar      1 <0>         0.1904
     12 C9          3.7811   -4.7494    0.1732 C.ar      1 <0>        -0.1250
     13 C10         3.7995   -6.1259    0.1706 C.ar      1 <0>        -0.0402
     14 C11         5.0158   -6.8067    0.0691 C.ar      1 <0>        -0.1507
     15 C12         6.2098   -6.0870   -0.0294 C.ar      1 <0>        -0.0685
     16 C13         6.1838   -4.7106   -0.0319 C.ar      1 <0>        -0.1526
     17 C14         5.0395   -8.2823    0.0665 C.2       1 <0>         0.5664
     18 O2          4.1807   -8.9030   -0.5298 O.2       1 <0>        -0.5305
     19 N3          6.0130   -8.9419    0.7250 N.am      1 <0>        -0.6132
     20 C15         6.9882   -8.2195    1.5572 C.3       1 <0>         0.0633
     21 C16         7.0425   -8.8930    2.9332 C.3       1 <0>         0.0455
     22 O3          7.2681  -10.2944    2.7627 O.3       1 <0>        -0.3781
     23 C17         6.2278  -10.9728    2.0546 C.3       1 <0>         0.0471
     24 C18         6.1284  -10.4063    0.6381 C.3       1 <0>         0.0762
     25 H1          0.6258    1.9545    3.8614 H         1 <0>         0.1246
     26 H2          1.7354   -0.0886    4.6685 H         1 <0>         0.1267
     27 H3          3.2861   -1.3117    3.1999 H         1 <0>         0.1354
     28 H4          2.6196    1.5701    0.1118 H         1 <0>         0.1255
     29 H5          1.0701    2.7856    1.5879 H         1 <0>         0.1276
     30 H6          4.4784   -0.1566    0.0856 H         1 <0>         0.4096
     31 H7          5.5990   -2.1454   -0.4439 H         1 <0>         0.4116
     32 H8          2.8415   -4.2227    0.2519 H         1 <0>         0.1438
     33 H9          2.8751   -6.6791    0.2472 H         1 <0>         0.1362
     34 H10         7.1515   -6.6100   -0.1076 H         1 <0>         0.1361
     35 H11         7.1057   -4.1538   -0.1124 H         1 <0>         0.1347
     36 H12         7.9718   -8.2605    1.0893 H         1 <0>         0.0814
     37 H13         6.6773   -7.1807    1.6690 H         1 <0>         0.1048
     38 H14         7.8552   -8.4619    3.5178 H         1 <0>         0.1092
     39 H15         6.0969   -8.7370    3.4525 H         1 <0>         0.0579
     40 H16         6.4544  -12.0379    2.0070 H         1 <0>         0.1098
     41 H17         5.2793  -10.8243    2.5707 H         1 <0>         0.0573
     42 H18         5.2484  -10.8150    0.1414 H         1 <0>         0.1042
     43 H19         7.0239  -10.6712    0.0761 H         1 <0>         0.0789
@<TRIPOS>BOND
     1    1    6 ar
     2    1    2 ar
     3    1   25 1
     4    2    3 ar
     5    2   26 1
     6    3    4 ar
     7    3   27 1
     8    4    5 ar
     9    4    7 1
    10    5    6 ar
    11    5   28 1
    12    6   29 1
    13    7    8 am
    14    7   30 1
    15    8    9 2
    16    8   10 am
    17   10   11 1
    18   10   31 1
    19   11   16 ar
    20   11   12 ar
    21   12   13 ar
    22   12   32 1
    23   13   14 ar
    24   13   33 1
    25   14   15 ar
    26   14   17 1
    27   15   16 ar
    28   15   34 1
    29   16   35 1
    30   17   18 2
    31   17   19 am
    32   19   24 1
    33   19   20 1
    34   20   21 1
    35   20   36 1
    36   20   37 1
    37   21   22 1
    38   21   38 1
    39   21   39 1
    40   22   23 1
    41   23   24 1
    42   23   40 1
    43   23   41 1
    44   24   42 1
    45   24   43 1
@<TRIPOS>MOLECULE
ZINC02212042
   43    45     0     0     0
SMALL
USER_CHARGES

@<TRIPOS>ATOM
      1 C1          0.1987    0.8752    0.6384 C.ar      1 <0>        -0.0694
      2 C2          1.2839    1.7102    0.4972 C.ar      1 <0>        -0.1257
      3 C3          2.5643    1.1769    0.3866 C.ar      1 <0>         0.1896
      4 C4          2.7523   -0.2013    0.4178 C.ar      1 <0>        -0.1502
      5 C5          1.6714   -1.0420    0.5587 C.ar      1 <0>        -0.0396
      6 C6          0.3841   -0.5097    0.6705 C.ar      1 <0>        -0.1504
      7 C7         -0.7771   -1.4079    0.8223 C.2       1 <0>         0.5662
      8 O1         -0.6757   -2.4271    1.4775 O.2       1 <0>        -0.5321
      9 N1         -1.9498   -1.0985    0.2345 N.am      1 <0>        -0.6126
     10 C8         -2.0607    0.0531   -0.6748 C.3       1 <0>         0.0612
     11 C9         -2.7320   -0.4167   -1.9704 C.3       1 <0>         0.0459
     12 O2         -3.9503   -1.0930   -1.6508 O.3       1 <0>        -0.3779
     13 C10        -3.7748   -2.2772   -0.8693 C.3       1 <0>         0.0472
     14 C11        -3.1556   -1.9059    0.4783 C.3       1 <0>         0.0761
     15 N2          3.6613    2.0255    0.2437 N.am      1 <0>        -0.6803
     16 C12         3.5388    3.1741   -0.4507 C.2       1 <0>         0.7049
     17 O3          2.5033    3.4221   -1.0377 O.2       1 <0>        -0.5481
     18 N3          4.5641    4.0478   -0.4943 N.am      1 <0>        -0.6803
     19 C13         4.3982    5.2911   -1.1159 C.ar      1 <0>         0.1660
     20 C14         5.4564    5.8723   -1.8021 C.ar      1 <0>        -0.1318
     21 C15         5.2902    7.0990   -2.4144 C.ar      1 <0>        -0.0888
     22 C16         4.0706    7.7491   -2.3443 C.ar      1 <0>        -0.0491
     23 C17         3.0145    7.1721   -1.6611 C.ar      1 <0>        -0.0885
     24 C18         3.1737    5.9427   -1.0522 C.ar      1 <0>        -0.1062
     25 Cl1         3.8653    9.2915   -3.1141 Cl        1 <0>        -0.0668
     26 H1         -0.7944    1.2899    0.7286 H         1 <0>         0.1366
     27 H2          1.1414    2.7805    0.4718 H         1 <0>         0.1424
     28 H3          3.7474   -0.6121    0.3310 H         1 <0>         0.1354
     29 H4          1.8180   -2.1118    0.5825 H         1 <0>         0.1382
     30 H5         -2.6655    0.8314   -0.2094 H         1 <0>         0.0823
     31 H6         -1.0672    0.4429   -0.8965 H         1 <0>         0.1067
     32 H7         -2.9487    0.4452   -2.6014 H         1 <0>         0.1099
     33 H8         -2.0655   -1.0978   -2.4995 H         1 <0>         0.0575
     34 H9         -4.7418   -2.7537   -0.7081 H         1 <0>         0.1097
     35 H10        -3.1120   -2.9650   -1.3943 H         1 <0>         0.0570
     36 H11        -2.8868   -2.8129    1.0199 H         1 <0>         0.1042
     37 H12        -3.8724   -1.3282    1.0618 H         1 <0>         0.0791
     38 H13         4.5126    1.7892    0.6440 H         1 <0>         0.4123
     39 H14         5.4169    3.8151   -0.0950 H         1 <0>         0.4117
     40 H15         6.4086    5.3656   -1.8565 H         1 <0>         0.1364
     41 H16         6.1128    7.5514   -2.9482 H         1 <0>         0.1394
     42 H17         2.0637    7.6816   -1.6078 H         1 <0>         0.1386
     43 H18         2.3477    5.4906   -0.5232 H         1 <0>         0.1436
@<TRIPOS>BOND
     1    1    6 ar
     2    1    2 ar
     3    1   26 1
     4    2    3 ar
     5    2   27 1
     6    3    4 ar
     7    3   15 1
     8    4    5 ar
     9    4   28 1
    10    5    6 ar
    11    5   29 1
    12    6    7 1
    13    7    8 2
    14    7    9 am
    15    9   14 1
    16    9   10 1
    17   10   11 1
    18   10   30 1
    19   10   31 1
    20   11   12 1
    21   11   32 1
    22   11   33 1
    23   12   13 1
    24   13   14 1
    25   13   34 1
    26   13   35 1
    27   14   36 1
    28   14   37 1
    29   15   16 am
    30   15   38 1
    31   16   17 2
    32   16   18 am
    33   18   19 1
    34   18   39 1
    35   19   24 ar
    36   19   20 ar
    37   20   21 ar
    38   20   40 1
    39   21   22 ar
    40   21   41 1
    41   22   23 ar
    42   22   25 1
    43   23   24 ar
    44   23   42 1
    45   24   43 1
@<TRIPOS>MOLECULE
ZINC12404136
   43    45     0     0     0
SMALL
USER_CHARGES
3-(4-chlorophenyl)-1-[3-(morpholine-4-carbonyl)phenyl]urea
@<TRIPOS>ATOM
      1 C1         -3.3905   -0.8621    0.6224 C.ar      1 <0>        -0.0991
      2 C2         -2.2127   -0.1726    0.8284 C.ar      1 <0>        -0.1123
      3 C3         -1.0071   -0.8676    0.9365 C.ar      1 <0>        -0.1064
      4 C4         -0.9994   -2.2596    0.8463 C.ar      1 <0>        -0.0717
      5 C5         -2.1882   -2.9429    0.6447 C.ar      1 <0>         0.1618
      6 C6         -3.3827   -2.2413    0.5326 C.ar      1 <0>        -0.1247
      7 N1         -2.1858   -4.3396    0.5536 N.am      1 <0>        -0.6796
      8 C7         -1.1139   -4.9800    0.0462 C.2       1 <0>         0.7020
      9 O1         -0.1897   -4.3426   -0.4206 O.2       1 <0>        -0.5438
     10 N2         -1.0664   -6.3269    0.0563 N.am      1 <0>        -0.6792
     11 C8          0.0921   -6.9896   -0.3659 C.ar      1 <0>         0.1628
     12 C9          0.8663   -6.4549   -1.3871 C.ar      1 <0>        -0.1078
     13 C10         2.0122   -7.1075   -1.7975 C.ar      1 <0>        -0.0893
     14 C11         2.3824   -8.2997   -1.2003 C.ar      1 <0>        -0.0490
     15 C12         1.6096   -8.8377   -0.1863 C.ar      1 <0>        -0.0905
     16 C13         0.4661   -8.1858    0.2320 C.ar      1 <0>        -0.1329
     17 Cl1         3.8192   -9.1215   -1.7238 Cl        1 <0>        -0.0682
     18 C14         0.2569   -0.1312    1.1520 C.2       1 <0>         0.5629
     19 O2          1.2409   -0.4073    0.4940 O.2       1 <0>        -0.5203
     20 N3          0.3179    0.8461    2.0781 N.am      1 <0>        -0.6126
     21 C15        -0.8870    1.2783    2.8038 C.3       1 <0>         0.0579
     22 C16        -0.5693    1.2704    4.3077 C.3       1 <0>         0.0461
     23 O3          0.6184    2.0315    4.5401 O.3       1 <0>        -0.3780
     24 C17         1.7864    1.5008    3.9093 C.3       1 <0>         0.0478
     25 C18         1.5903    1.5167    2.3890 C.3       1 <0>         0.0769
     26 H1         -4.3218   -0.3223    0.5349 H         1 <0>         0.1374
     27 H2         -2.2234    0.9048    0.9021 H         1 <0>         0.1340
     28 H3         -0.0701   -2.8031    0.9330 H         1 <0>         0.1476
     29 H4         -4.3080   -2.7756    0.3752 H         1 <0>         0.1329
     30 H5         -2.9556   -4.8467    0.8555 H         1 <0>         0.4115
     31 H6         -1.8351   -6.8370    0.3560 H         1 <0>         0.4110
     32 H7          0.5750   -5.5271   -1.8570 H         1 <0>         0.1527
     33 H8          2.6174   -6.6894   -2.5882 H         1 <0>         0.1383
     34 H9          1.9010   -9.7679    0.2787 H         1 <0>         0.1388
     35 H10        -0.1366   -8.6059    1.0237 H         1 <0>         0.1357
     36 H11        -1.1636    2.2847    2.4895 H         1 <0>         0.0827
     37 H12        -1.7067    0.5903    2.5969 H         1 <0>         0.1087
     38 H13        -0.4164    0.2451    4.6447 H         1 <0>         0.0572
     39 H14        -1.3995    1.7143    4.8571 H         1 <0>         0.1086
     40 H15         1.9478    0.4764    4.2449 H         1 <0>         0.0570
     41 H16         2.6508    2.1110    4.1713 H         1 <0>         0.1100
     42 H17         2.4120    0.9865    1.9073 H         1 <0>         0.1033
     43 H18         1.5592    2.5464    2.0330 H         1 <0>         0.0795
@<TRIPOS>BOND
     1    1    6 ar
     2    1    2 ar
     3    1   26 1
     4    2    3 ar
     5    2   27 1
     6    3    4 ar
     7    3   18 1
     8    4    5 ar
     9    4   28 1
    10    5    6 ar
    11    5    7 1
    12    6   29 1
    13    7    8 am
    14    7   30 1
    15    8    9 2
    16    8   10 am
    17   10   11 1
    18   10   31 1
    19   11   16 ar
    20   11   12 ar
    21   12   13 ar
    22   12   32 1
    23   13   14 ar
    24   13   33 1
    25   14   15 ar
    26   14   17 1
    27   15   16 ar
    28   15   34 1
    29   16   35 1
    30   18   19 2
    31   18   20 am
    32   20   25 1
    33   20   21 1
    34   21   22 1
    35   21   36 1
    36   21   37 1
    37   22   23 1
    38   22   38 1
    39   22   39 1
    40   23   24 1
    41   24   25 1
    42   24   40 1
    43   24   41 1
    44   25   42 1
    45   25   43 1
@<TRIPOS>MOLECULE
ZINC48926256
   41    42     0     0     0
SMALL
USER_CHARGES

@<TRIPOS>ATOM
      1 C1         -0.0035    1.5368   -0.0095 C.3       1 <0>        -0.1391
      2 C2          0.0160    0.0069   -0.0102 C.3       1 <0>        -0.1440
      3 C3          0.7141   -0.4860   -1.2515 C.2       1 <0>         0.5134
      4 O1          1.1529    0.3082   -2.0563 O.2       1 <0>        -0.5370
      5 N1          0.8509   -1.8093   -1.4673 N.am      1 <0>        -0.6183
      6 C4          0.3192   -2.7836   -0.5046 C.3       1 <0>         0.1110
      7 C5          1.4435   -3.7434   -0.1026 C.3       1 <0>        -0.1437
      8 C6          2.0488   -4.3694   -1.3611 C.3       1 <0>         0.1638
      9 C7          2.6447   -3.2701   -2.2436 C.3       1 <0>        -0.1444
     10 C8          1.5291   -2.3051   -2.6727 C.3       1 <0>         0.1133
     11 N2          3.1023   -5.3128   -0.9786 N.am      1 <0>        -0.7382
     12 C9          3.4290   -6.3284   -1.8023 C.2       1 <0>         0.7047
     13 O2          2.8493   -6.4615   -2.8628 O.2       1 <0>        -0.5692
     14 N3          4.3981   -7.1964   -1.4504 N.am      1 <0>        -0.6870
     15 C10         4.6713   -8.3056   -2.2588 C.ar      1 <0>         0.1594
     16 C11         5.0454   -9.5119   -1.6816 C.ar      1 <0>        -0.1477
     17 C12         5.3139  -10.6049   -2.4821 C.ar      1 <0>        -0.1018
     18 C13         5.2104  -10.4989   -3.8569 C.ar      1 <0>        -0.1356
     19 C14         4.8386   -9.2989   -4.4348 C.ar      1 <0>        -0.1021
     20 C15         4.5632   -8.2038   -3.6395 C.ar      1 <0>        -0.1195
     21 H1          1.0194    1.9131   -0.0247 H         1 <0>         0.0615
     22 H2         -0.5352    1.8938   -0.8914 H         1 <0>         0.0622
     23 H3         -0.5084    1.8932    0.8883 H         1 <0>         0.0624
     24 H4          0.5477   -0.3502    0.8717 H         1 <0>         0.0928
     25 H5         -1.0069   -0.3695    0.0050 H         1 <0>         0.0936
     26 H6         -0.0486   -2.2613    0.3785 H         1 <0>         0.0941
     27 H7         -0.4938   -3.3454   -0.9645 H         1 <0>         0.0764
     28 H8          2.2147   -3.1944    0.4377 H         1 <0>         0.0753
     29 H9          1.0401   -4.5289    0.5365 H         1 <0>         0.0859
     30 H10         1.2718   -4.8975   -1.9138 H         1 <0>         0.0941
     31 H11         3.4046   -2.7256   -1.6832 H         1 <0>         0.0689
     32 H12         3.0962   -3.7188   -3.1284 H         1 <0>         0.0826
     33 H13         0.8127   -2.8286   -3.3058 H         1 <0>         0.0722
     34 H14         1.9598   -1.4669   -3.2205 H         1 <0>         0.0970
     35 H15         3.5647   -5.2066   -0.1326 H         1 <0>         0.3976
     36 H16         4.9063   -7.0522   -0.6368 H         1 <0>         0.4066
     37 H17         5.1267   -9.5953   -0.6079 H         1 <0>         0.1238
     38 H18         5.6052  -11.5433   -2.0338 H         1 <0>         0.1260
     39 H19         5.4209  -11.3550   -4.4808 H         1 <0>         0.1232
     40 H20         4.7590   -9.2192   -5.5089 H         1 <0>         0.1255
     41 H21         4.2682   -7.2682   -4.0911 H         1 <0>         0.1401
@<TRIPOS>BOND
     1    1    2 1
     2    1   21 1
     3    1   22 1
     4    1   23 1
     5    2    3 1
     6    2   24 1
     7    2   25 1
     8    3    4 2
     9    3    5 am
    10    5   10 1
    11    5    6 1
    12    6    7 1
    13    6   26 1
    14    6   27 1
    15    7    8 1
    16    7   28 1
    17    7   29 1
    18    8    9 1
    19    8   11 1
    20    8   30 1
    21    9   10 1
    22    9   31 1
    23    9   32 1
    24   10   33 1
    25   10   34 1
    26   11   12 am
    27   11   35 1
    28   12   13 2
    29   12   14 am
    30   14   15 1
    31   14   36 1
    32   15   20 ar
    33   15   16 ar
    34   16   17 ar
    35   16   37 1
    36   17   18 ar
    37   17   38 1
    38   18   19 ar
    39   18   39 1
    40   19   20 ar
    41   19   40 1
    42   20   41 1
@<TRIPOS>MOLECULE
ZINC48926254
   47    48     0     0     0
SMALL
USER_CHARGES

@<TRIPOS>ATOM
      1 C1         -0.0187    1.5258    0.0104 C.3       1 <0>        -0.1389
      2 C2          0.0021   -0.0041    0.0020 C.3       1 <0>        -0.1440
      3 C3          0.7309   -0.5033    1.2229 C.2       1 <0>         0.5132
      4 O1          1.1887    0.2867    2.0212 O.2       1 <0>        -0.5376
      5 N1          0.8741   -1.8277    1.4277 N.am      1 <0>        -0.6178
      6 C4          0.3303   -2.7969    0.4666 C.3       1 <0>         0.1109
      7 C5         -0.5651   -3.7870    1.2179 C.3       1 <0>        -0.1435
      8 C6          0.2280   -4.4169    2.3652 C.3       1 <0>         0.1649
      9 C7          0.6678   -3.3251    3.3433 C.3       1 <0>        -0.1437
     10 C8          1.5821   -2.3296    2.6132 C.3       1 <0>         0.1132
     11 N2         -0.6152   -5.3889    3.0655 N.am      1 <0>        -0.7443
     12 C9         -0.0491   -6.4051    3.7463 C.2       1 <0>         0.7047
     13 O2          1.1613   -6.5152    3.7791 O.2       1 <0>        -0.5867
     14 N3         -0.8249   -7.2993    4.3906 N.am      1 <0>        -0.7435
     15 C10        -0.2096   -8.4039    5.1305 C.3       1 <0>         0.1637
     16 C11         0.0765   -9.5624    4.1729 C.3       1 <0>        -0.1291
     17 C12         0.7191  -10.7160    4.9456 C.3       1 <0>        -0.1179
     18 C13        -0.2347  -11.1871    6.0453 C.3       1 <0>        -0.1226
     19 C14        -0.5209  -10.0286    7.0029 C.3       1 <0>        -0.1164
     20 C15        -1.1634   -8.8750    6.2302 C.3       1 <0>        -0.1264
     21 H1          1.0039    1.9031    0.0027 H         1 <0>         0.0621
     22 H2         -0.5459    1.8868   -0.8726 H         1 <0>         0.0622
     23 H3         -0.5289    1.8773    0.9072 H         1 <0>         0.0615
     24 H4         -1.0205   -0.3814    0.0098 H         1 <0>         0.0927
     25 H5          0.5123   -0.3556   -0.8948 H         1 <0>         0.0935
     26 H6         -0.2566   -2.2732   -0.2880 H         1 <0>         0.0933
     27 H7          1.1485   -3.3348   -0.0123 H         1 <0>         0.0759
     28 H8         -1.4313   -3.2615    1.6200 H         1 <0>         0.0743
     29 H9         -0.8979   -4.5678    0.5340 H         1 <0>         0.0850
     30 H10         1.1074   -4.9213    1.9647 H         1 <0>         0.0917
     31 H11        -0.2100   -2.8039    3.7254 H         1 <0>         0.0676
     32 H12         1.2125   -3.7771    4.1722 H         1 <0>         0.0820
     33 H13         2.5002   -2.8303    2.3058 H         1 <0>         0.0716
     34 H14         1.8213   -1.4976    3.2755 H         1 <0>         0.0963
     35 H15        -1.5808   -5.3011    3.0393 H         1 <0>         0.3951
     36 H16        -1.7905   -7.2115    4.3644 H         1 <0>         0.3945
     37 H17         0.7238   -8.0649    5.5798 H         1 <0>         0.0882
     38 H18        -0.8569   -9.9014    3.7236 H         1 <0>         0.0616
     39 H19         0.7560   -9.2268    3.3895 H         1 <0>         0.0673
     40 H20         0.9229  -11.5413    4.2634 H         1 <0>         0.0649
     41 H21         1.6525  -10.3770    5.3950 H         1 <0>         0.0649
     42 H22        -1.1682  -11.5261    5.5960 H         1 <0>         0.0624
     43 H23         0.2230  -12.0089    6.5958 H         1 <0>         0.0645
     44 H24        -1.2004  -10.3642    7.7863 H         1 <0>         0.0677
     45 H25         0.4126   -9.6896    7.4522 H         1 <0>         0.0659
     46 H26        -1.3673   -8.0497    6.9124 H         1 <0>         0.0681
     47 H27        -2.0969   -9.2140    5.7808 H         1 <0>         0.0672
@<TRIPOS>BOND
     1    1    2 1
     2    1   21 1
     3    1   22 1
     4    1   23 1
     5    2    3 1
     6    2   24 1
     7    2   25 1
     8    3    4 2
     9    3    5 am
    10    5   10 1
    11    5    6 1
    12    6    7 1
    13    6   26 1
    14    6   27 1
    15    7    8 1
    16    7   28 1
    17    7   29 1
    18    8    9 1
    19    8   11 1
    20    8   30 1
    21    9   10 1
    22    9   31 1
    23    9   32 1
    24   10   33 1
    25   10   34 1
    26   11   12 am
    27   11   35 1
    28   12   13 2
    29   12   14 am
    30   14   15 1
    31   14   36 1
    32   15   20 1
    33   15   16 1
    34   15   37 1
    35   16   17 1
    36   16   38 1
    37   16   39 1
    38   17   18 1
    39   17   40 1
    40   17   41 1
    41   18   19 1
    42   18   42 1
    43   18   43 1
    44   19   20 1
    45   19   44 1
    46   19   45 1
    47   20   46 1
    48   20   47 1
@<TRIPOS>MOLECULE
ZINC40097054
   46    48     0     0     0
SMALL
USER_CHARGES

@<TRIPOS>ATOM
      1 C1          0.0653    1.2475   -0.5861 C.ar      1 <0>        -0.1098
      2 C2          1.2521    1.9535   -0.5854 C.ar      1 <0>        -0.1025
      3 C3          2.3814    1.4118    0.0108 C.ar      1 <0>         0.0877
      4 C4          2.3194    0.1605    0.6062 C.ar      1 <0>        -0.1695
      5 C5          1.1333   -0.5467    0.6058 C.ar      1 <0>        -0.0779
      6 C6          0.0025   -0.0047    0.0101 C.ar      1 <0>         0.1472
      7 N1         -1.2018   -0.7216    0.0101 N.am      1 <0>        -0.6851
      8 C7         -1.1865   -2.0648   -0.0990 C.2       1 <0>         0.7051
      9 O1         -0.1272   -2.6616   -0.1129 O.2       1 <0>        -0.5690
     10 N2         -2.3453   -2.7466   -0.1927 N.am      1 <0>        -0.7364
     11 C8         -2.3287   -4.2067   -0.3112 C.3       1 <0>         0.1639
     12 C9         -2.1484   -4.5969   -1.7800 C.3       1 <0>        -0.1448
     13 C10        -2.0968   -6.1236   -1.8960 C.3       1 <0>         0.1139
     14 N3         -3.2983   -6.6867   -1.2651 N.am      1 <0>        -0.6120
     15 C11        -3.6152   -6.3044    0.1177 C.3       1 <0>         0.1113
     16 C12        -3.6498   -4.7757    0.2111 C.3       1 <0>        -0.1445
     17 C13        -4.0948   -7.5373   -1.9421 C.2       1 <0>         0.5461
     18 O2         -3.8226   -7.8448   -3.0833 O.2       1 <0>        -0.5371
     19 C14        -5.3237   -8.1065   -1.2811 C.3       1 <0>        -0.2000
     20 C15        -5.3237   -9.6020   -0.9581 C.3       1 <0>        -0.1506
     21 C16        -6.1870   -9.0664   -2.1022 C.3       1 <0>        -0.1471
     22 O3          3.5497    2.1075    0.0111 O.3       1 <0>        -0.3104
     23 C17         4.6726    1.4895    0.6429 C.3       1 <0>         0.6038
     24 F1          4.9573    0.2770    0.0057 F         1 <0>        -0.1639
     25 F2          5.7829    2.3358    0.5523 F         1 <0>        -0.1307
     26 F3          4.3770    1.2505    1.9893 F         1 <0>        -0.1649
     27 H1         -0.8150    1.6713   -1.0464 H         1 <0>         0.1407
     28 H2          1.3012    2.9275   -1.0495 H         1 <0>         0.1441
     29 H3          3.1991   -0.2609    1.0700 H         1 <0>         0.1369
     30 H4          1.0854   -1.5213    1.0688 H         1 <0>         0.1516
     31 H5         -2.0464   -0.2510    0.0887 H         1 <0>         0.4089
     32 H6         -3.1904   -2.2705   -0.1816 H         1 <0>         0.3984
     33 H7         -1.5028   -4.6092    0.2752 H         1 <0>         0.0948
     34 H8         -2.9868   -4.2159   -2.3632 H         1 <0>         0.0693
     35 H9         -1.2187   -4.1717   -2.1580 H         1 <0>         0.0838
     36 H10        -2.0681   -6.4094   -2.9475 H         1 <0>         0.0974
     37 H11        -1.2078   -6.4987   -1.3889 H         1 <0>         0.0730
     38 H12        -4.5884   -6.7096    0.3949 H         1 <0>         0.0955
     39 H13        -2.8501   -6.6943    0.7891 H         1 <0>         0.0767
     40 H14        -3.7887   -4.4778    1.2504 H         1 <0>         0.0863
     41 H15        -4.4741   -4.3931   -0.3908 H         1 <0>         0.0755
     42 H16        -5.8340   -7.4409   -0.5849 H         1 <0>         0.1253
     43 H17        -4.4348  -10.1742   -1.2237 H         1 <0>         0.0999
     44 H18        -5.8339   -9.9205   -0.0491 H         1 <0>         0.1061
     45 H19        -7.2652   -9.0327   -1.9458 H         1 <0>         0.1045
     46 H20        -5.8661   -9.2863   -3.1204 H         1 <0>         0.1083
@<TRIPOS>BOND
     1    1    6 ar
     2    1    2 ar
     3    1   27 1
     4    2    3 ar
     5    2   28 1
     6    3    4 ar
     7    3   22 1
     8    4    5 ar
     9    4   29 1
    10    5    6 ar
    11    5   30 1
    12    6    7 1
    13    7    8 am
    14    7   31 1
    15    8    9 2
    16    8   10 am
    17   10   11 1
    18   10   32 1
    19   11   16 1
    20   11   12 1
    21   11   33 1
    22   12   13 1
    23   12   34 1
    24   12   35 1
    25   13   14 1
    26   13   36 1
    27   13   37 1
    28   14   15 1
    29   14   17 am
    30   15   16 1
    31   15   38 1
    32   15   39 1
    33   16   40 1
    34   16   41 1
    35   17   18 2
    36   17   19 1
    37   19   21 1
    38   19   20 1
    39   19   42 1
    40   20   21 1
    41   20   43 1
    42   20   44 1
    43   21   45 1
    44   21   46 1
    45   22   23 1
    46   23   24 1
    47   23   25 1
    48   23   26 1
@<TRIPOS>MOLECULE
ZINC36388980
   45    46     0     0     0
SMALL
USER_CHARGES

@<TRIPOS>ATOM
      1 C1         -0.0035    1.5368   -0.0095 C.3       1 <0>        -0.1392
      2 C2          0.0160    0.0069   -0.0103 C.3       1 <0>        -0.1440
      3 C3          0.7141   -0.4860   -1.2515 C.2       1 <0>         0.5135
      4 O1          1.1529    0.3082   -2.0563 O.2       1 <0>        -0.5367
      5 N1          0.8509   -1.8093   -1.4673 N.am      1 <0>        -0.6185
      6 C4          0.3192   -2.7836   -0.5046 C.3       1 <0>         0.1108
      7 C5          1.4435   -3.7434   -0.1026 C.3       1 <0>        -0.1437
      8 C6          2.0488   -4.3694   -1.3611 C.3       1 <0>         0.1634
      9 C7          2.6447   -3.2702   -2.2436 C.3       1 <0>        -0.1444
     10 C8          1.5291   -2.3051   -2.6727 C.3       1 <0>         0.1132
     11 N2          3.1023   -5.3128   -0.9786 N.am      1 <0>        -0.7365
     12 C9          3.4290   -6.3284   -1.8023 C.2       1 <0>         0.7051
     13 O2          2.8493   -6.4616   -2.8628 O.2       1 <0>        -0.5689
     14 N3          4.3981   -7.1964   -1.4504 N.am      1 <0>        -0.6852
     15 C10         4.6717   -8.3072   -2.2600 C.ar      1 <0>         0.1471
     16 C11         5.0456   -9.5127   -1.6817 C.ar      1 <0>        -0.1098
     17 C12         5.3146  -10.6071   -2.4799 C.ar      1 <0>        -0.1027
     18 C13         5.2112  -10.5020   -3.8592 C.ar      1 <0>         0.0879
     19 C14         4.8381   -9.2977   -4.4376 C.ar      1 <0>        -0.1696
     20 C15         4.5633   -8.2042   -3.6402 C.ar      1 <0>        -0.0776
     21 O3          5.4762  -11.5799   -4.6446 O.3       1 <0>        -0.3104
     22 C16         5.3499  -11.4005   -6.0567 C.3       1 <0>         0.6038
     23 F1          6.2319  -10.4007   -6.4804 F         1 <0>        -0.1648
     24 F2          5.6565  -12.5998   -6.7085 F         1 <0>        -0.1307
     25 F3          4.0375  -11.0253   -6.3635 F         1 <0>        -0.1640
     26 H1          1.0194    1.9131   -0.0248 H         1 <0>         0.0616
     27 H2         -0.5352    1.8938   -0.8914 H         1 <0>         0.0622
     28 H3         -0.5084    1.8932    0.8883 H         1 <0>         0.0625
     29 H4          0.5477   -0.3502    0.8717 H         1 <0>         0.0929
     30 H5         -1.0069   -0.3695    0.0050 H         1 <0>         0.0936
     31 H6         -0.0486   -2.2613    0.3785 H         1 <0>         0.0942
     32 H7         -0.4938   -3.3454   -0.9645 H         1 <0>         0.0765
     33 H8          2.2147   -3.1944    0.4377 H         1 <0>         0.0755
     34 H9          1.0401   -4.5289    0.5365 H         1 <0>         0.0862
     35 H10         1.2718   -4.8975   -1.9137 H         1 <0>         0.0947
     36 H11         3.4046   -2.7256   -1.6832 H         1 <0>         0.0692
     37 H12         3.0962   -3.7188   -3.1284 H         1 <0>         0.0826
     38 H13         0.8127   -2.8286   -3.3058 H         1 <0>         0.0722
     39 H14         1.9597   -1.4669   -3.2205 H         1 <0>         0.0971
     40 H15         3.5647   -5.2066   -0.1326 H         1 <0>         0.3984
     41 H16         4.9063   -7.0522   -0.6368 H         1 <0>         0.4090
     42 H17         5.1265   -9.5946   -0.6078 H         1 <0>         0.1408
     43 H18         5.6058  -11.5448   -2.0302 H         1 <0>         0.1441
     44 H19         4.7581   -9.2164   -5.5116 H         1 <0>         0.1369
     45 H20         4.2685   -7.2678   -4.0905 H         1 <0>         0.1515
@<TRIPOS>BOND
     1    1    2 1
     2    1   26 1
     3    1   27 1
     4    1   28 1
     5    2    3 1
     6    2   29 1
     7    2   30 1
     8    3    4 2
     9    3    5 am
    10    5   10 1
    11    5    6 1
    12    6    7 1
    13    6   31 1
    14    6   32 1
    15    7    8 1
    16    7   33 1
    17    7   34 1
    18    8    9 1
    19    8   11 1
    20    8   35 1
    21    9   10 1
    22    9   36 1
    23    9   37 1
    24   10   38 1
    25   10   39 1
    26   11   12 am
    27   11   40 1
    28   12   13 2
    29   12   14 am
    30   14   15 1
    31   14   41 1
    32   15   20 ar
    33   15   16 ar
    34   16   17 ar
    35   16   42 1
    36   17   18 ar
    37   17   43 1
    38   18   19 ar
    39   18   21 1
    40   19   20 ar
    41   19   44 1
    42   20   45 1
    43   21   22 1
    44   22   23 1
    45   22   24 1
    46   22   25 1
@<TRIPOS>MOLECULE
ZINC00157375
   40    41     0     0     0
SMALL
USER_CHARGES

@<TRIPOS>ATOM
      1 C1         -0.0187    1.5258    0.0104 C.3       1 <0>        -0.1225
      2 C2          1.4167    2.0553   -0.0004 C.3       1 <0>        -0.1162
      3 C3          2.1567    1.5485    1.2391 C.3       1 <0>        -0.1262
      4 C4          2.1775    0.0187    1.2307 C.3       1 <0>         0.1638
      5 C5          0.7421   -0.5109    1.2415 C.3       1 <0>        -0.1293
      6 C6          0.0021   -0.0041    0.0020 C.3       1 <0>        -0.1178
      7 N1          2.8860   -0.4666    2.4176 N.am      1 <0>        -0.7445
      8 C7          3.4710   -1.6807    2.4037 C.2       1 <0>         0.7039
      9 O1          3.4108   -2.3732    1.4061 O.2       1 <0>        -0.5882
     10 N2          4.1229   -2.1272    3.4955 N.am      1 <0>        -0.7445
     11 C8          4.7588   -3.4469    3.4804 C.3       1 <0>         0.1638
     12 C9          3.7249   -4.5154    3.8412 C.3       1 <0>        -0.1293
     13 C10         4.3890   -5.8936    3.8254 C.3       1 <0>        -0.1178
     14 C11         5.5290   -5.9221    4.8454 C.3       1 <0>        -0.1225
     15 C12         6.5629   -4.8536    4.4847 C.3       1 <0>        -0.1162
     16 C13         5.8988   -3.4754    4.5005 C.3       1 <0>        -0.1262
     17 H1         -0.5289    1.8773    0.9072 H         1 <0>         0.0623
     18 H2         -0.5459    1.8868   -0.8726 H         1 <0>         0.0643
     19 H3          1.9269    1.7038   -0.8972 H         1 <0>         0.0657
     20 H4          1.4019    3.1452    0.0056 H         1 <0>         0.0675
     21 H5          3.1793    1.9258    1.2314 H         1 <0>         0.0681
     22 H6          1.6465    1.9000    2.1359 H         1 <0>         0.0671
     23 H7          2.6876   -0.3328    0.3339 H         1 <0>         0.0878
     24 H8          0.7568   -1.6008    1.2356 H         1 <0>         0.0673
     25 H9          0.2319   -0.1594    2.1383 H         1 <0>         0.0614
     26 H10        -1.0205   -0.3814    0.0098 H         1 <0>         0.0647
     27 H11         0.5123   -0.3556   -0.8948 H         1 <0>         0.0648
     28 H12         2.9341    0.0858    3.2134 H         1 <0>         0.3941
     29 H13         4.1710   -1.5747    4.2914 H         1 <0>         0.3941
     30 H14         5.1564   -3.6472    2.4855 H         1 <0>         0.0878
     31 H15         3.3273   -4.3150    4.8361 H         1 <0>         0.0614
     32 H16         2.9127   -4.4951    3.1145 H         1 <0>         0.0673
     33 H17         3.6524   -6.6549    4.0824 H         1 <0>         0.0647
     34 H18         4.7866   -6.0940    2.8305 H         1 <0>         0.0648
     35 H19         5.1314   -5.7218    5.8404 H         1 <0>         0.0623
     36 H20         6.0021   -6.9040    4.8342 H         1 <0>         0.0643
     37 H21         7.3751   -4.8739    5.2114 H         1 <0>         0.0675
     38 H22         6.9605   -5.0540    3.4898 H         1 <0>         0.0657
     39 H23         6.6354   -2.7141    4.2435 H         1 <0>         0.0681
     40 H24         5.5012   -3.2750    5.4954 H         1 <0>         0.0671
@<TRIPOS>BOND
     1    1    6 1
     2    1    2 1
     3    1   17 1
     4    1   18 1
     5    2    3 1
     6    2   19 1
     7    2   20 1
     8    3    4 1
     9    3   21 1
    10    3   22 1
    11    4    5 1
    12    4    7 1
    13    4   23 1
    14    5    6 1
    15    5   24 1
    16    5   25 1
    17    6   26 1
    18    6   27 1
    19    7    8 am
    20    7   28 1
    21    8    9 2
    22    8   10 am
    23   10   11 1
    24   10   29 1
    25   11   16 1
    26   11   12 1
    27   11   30 1
    28   12   13 1
    29   12   31 1
    30   12   32 1
    31   13   14 1
    32   13   33 1
    33   13   34 1
    34   14   15 1
    35   14   35 1
    36   14   36 1
    37   15   16 1
    38   15   37 1
    39   15   38 1
    40   16   39 1
    41   16   40 1
@<TRIPOS>MOLECULE
ZINC02683996
   41    43     0     0     0
SMALL
USER_CHARGES

@<TRIPOS>ATOM
      1 C1         -0.0187    1.5258    0.0104 C.3       1 <0>        -0.1646
      2 C2          0.0021   -0.0041    0.0020 C.3       1 <0>         0.1543
      3 C3          0.7182   -0.4975   -1.2568 C.3       1 <0>        -0.1612
      4 N1          0.7106   -0.4894    1.1889 N.am      1 <0>        -0.7443
      5 C4          0.0512   -0.6335    2.3554 C.2       1 <0>         0.7035
      6 O1         -1.1318   -0.3607    2.4228 O.2       1 <0>        -0.5893
      7 N2          0.7031   -1.0799    3.4473 N.am      1 <0>        -0.7403
      8 C5         -0.0137   -1.2366    4.7154 C.3       1 <0>         0.1771
      9 C6         -0.0369    0.1016    5.4568 C.3       1 <0>        -0.0960
     10 C7         -0.7855   -0.0620    6.7810 C.3       1 <0>        -0.1069
     11 C8         -0.0765   -1.1096    7.6417 C.3       1 <0>        -0.0885
     12 C9          1.3579   -0.6555    7.9194 C.3       1 <0>        -0.1081
     13 C10         2.1065   -0.4919    6.5951 C.3       1 <0>        -0.0871
     14 C11         1.3975    0.5557    5.7345 C.3       1 <0>        -0.1052
     15 C12         2.1297   -1.8301    5.8537 C.3       1 <0>        -0.1083
     16 C13         0.6953   -2.2842    5.5760 C.3       1 <0>        -0.0932
     17 C14        -0.0533   -2.4477    6.9003 C.3       1 <0>        -0.1053
     18 H1          1.0039    1.9031    0.0027 H         1 <0>         0.0546
     19 H2         -0.5459    1.8868   -0.8726 H         1 <0>         0.0653
     20 H3         -0.5289    1.8773    0.9072 H         1 <0>         0.0606
     21 H4         -1.0205   -0.3814    0.0098 H         1 <0>         0.0878
     22 H5          1.7408   -0.1202   -1.2645 H         1 <0>         0.0601
     23 H6          0.7330   -1.5874   -1.2628 H         1 <0>         0.0612
     24 H7          0.1910   -0.1364   -2.1398 H         1 <0>         0.0740
     25 H8          1.6544   -0.7070    1.1351 H         1 <0>         0.3937
     26 H9          1.6468   -1.2976    3.3936 H         1 <0>         0.3932
     27 H10        -1.0356   -1.5601    4.5175 H         1 <0>         0.0872
     28 H11        -0.5421    0.8480    4.8436 H         1 <0>         0.0747
     29 H12        -0.8021    0.8914    7.3092 H         1 <0>         0.0651
     30 H13        -1.8074   -0.3855    6.5832 H         1 <0>         0.0646
     31 H14        -0.6098   -1.2261    8.5851 H         1 <0>         0.0722
     32 H15         1.3414    0.2979    8.4476 H         1 <0>         0.0623
     33 H16         1.8630   -1.4018    8.5325 H         1 <0>         0.0621
     34 H17         3.1284   -0.1684    6.7929 H         1 <0>         0.0695
     35 H18         1.9308    0.6723    4.7910 H         1 <0>         0.0593
     36 H19         1.3809    1.5091    6.2626 H         1 <0>         0.0614
     37 H20         2.6630   -1.7135    4.9102 H         1 <0>         0.0579
     38 H21         2.6348   -2.5764    6.4668 H         1 <0>         0.0669
     39 H22         0.7118   -3.2375    5.0478 H         1 <0>         0.0755
     40 H23         0.4518   -3.1941    7.5134 H         1 <0>         0.0681
     41 H24        -1.0752   -2.7713    6.7024 H         1 <0>         0.0658
@<TRIPOS>BOND
     1    1    2 1
     2    1   18 1
     3    1   19 1
     4    1   20 1
     5    2    3 1
     6    2    4 1
     7    2   21 1
     8    3   22 1
     9    3   23 1
    10    3   24 1
    11    4    5 am
    12    4   25 1
    13    5    6 2
    14    5    7 am
    15    7    8 1
    16    7   26 1
    17    8   16 1
    18    8    9 1
    19    8   27 1
    20    9   14 1
    21    9   10 1
    22    9   28 1
    23   10   11 1
    24   10   29 1
    25   10   30 1
    26   11   17 1
    27   11   12 1
    28   11   31 1
    29   12   13 1
    30   12   32 1
    31   12   33 1
    32   13   14 1
    33   13   15 1
    34   13   34 1
    35   14   35 1
    36   14   36 1
    37   15   16 1
    38   15   37 1
    39   15   38 1
    40   16   17 1
    41   16   39 1
    42   17   40 1
    43   17   41 1
@<TRIPOS>MOLECULE
ZINC38146017
   48    51     0     0     0
SMALL
USER_CHARGES

@<TRIPOS>ATOM
      1 C1         -0.0187    1.5258    0.0104 C.3       1 <0>        -0.1225
      2 C2          1.4167    2.0553   -0.0004 C.3       1 <0>        -0.1162
      3 C3          2.1567    1.5485    1.2391 C.3       1 <0>        -0.1262
      4 C4          2.1775    0.0187    1.2307 C.3       1 <0>         0.1644
      5 C5          0.7421   -0.5109    1.2415 C.3       1 <0>        -0.1290
      6 C6          0.0021   -0.0041    0.0020 C.3       1 <0>        -0.1178
      7 N1          2.8860   -0.4666    2.4176 N.am      1 <0>        -0.7449
      8 C7          3.4710   -1.6807    2.4037 C.2       1 <0>         0.7039
      9 O1          3.4108   -2.3732    1.4061 O.2       1 <0>        -0.5885
     10 N2          4.1229   -2.1272    3.4955 N.am      1 <0>        -0.7404
     11 C8          4.7588   -3.4469    3.4804 C.3       1 <0>         0.1773
     12 C9          3.7249   -4.5154    3.8412 C.3       1 <0>        -0.0958
     13 C10         4.3890   -5.8936    3.8254 C.3       1 <0>        -0.1068
     14 C11         5.5290   -5.9221    4.8454 C.3       1 <0>        -0.0886
     15 C12         4.9709   -5.6409    6.2420 C.3       1 <0>        -0.1081
     16 C13         4.3068   -4.2626    6.2578 C.3       1 <0>        -0.0871
     17 C14         3.1668   -4.2342    5.2377 C.3       1 <0>        -0.1051
     18 C15         5.3407   -3.1941    5.8970 C.3       1 <0>        -0.1082
     19 C16         5.8988   -3.4754    4.5005 C.3       1 <0>        -0.0931
     20 C17         6.5629   -4.8536    4.4847 C.3       1 <0>        -0.1053
     21 H1         -0.5289    1.8773    0.9072 H         1 <0>         0.0622
     22 H2         -0.5459    1.8868   -0.8726 H         1 <0>         0.0642
     23 H3          1.9269    1.7038   -0.8972 H         1 <0>         0.0657
     24 H4          1.4019    3.1452    0.0056 H         1 <0>         0.0673
     25 H5          3.1793    1.9258    1.2314 H         1 <0>         0.0679
     26 H6          1.6465    1.9000    2.1359 H         1 <0>         0.0669
     27 H7          2.6876   -0.3328    0.3339 H         1 <0>         0.0877
     28 H8          0.7568   -1.6008    1.2356 H         1 <0>         0.0673
     29 H9          0.2319   -0.1594    2.1383 H         1 <0>         0.0611
     30 H10        -1.0205   -0.3814    0.0098 H         1 <0>         0.0645
     31 H11         0.5123   -0.3556   -0.8948 H         1 <0>         0.0647
     32 H12         2.9341    0.0858    3.2134 H         1 <0>         0.3935
     33 H13         4.1710   -1.5747    4.2914 H         1 <0>         0.3931
     34 H14         5.1564   -3.6472    2.4855 H         1 <0>         0.0871
     35 H15         2.9127   -4.4951    3.1145 H         1 <0>         0.0746
     36 H16         3.6524   -6.6549    4.0824 H         1 <0>         0.0651
     37 H17         4.7866   -6.0940    2.8305 H         1 <0>         0.0646
     38 H18         6.0021   -6.9040    4.8342 H         1 <0>         0.0722
     39 H19         4.2343   -6.4021    6.4990 H         1 <0>         0.0623
     40 H20         5.7831   -5.6612    6.9687 H         1 <0>         0.0620
     41 H21         3.9092   -4.0623    7.2527 H         1 <0>         0.0695
     42 H22         2.6936   -3.2523    5.2489 H         1 <0>         0.0592
     43 H23         2.4302   -4.9954    5.4947 H         1 <0>         0.0613
     44 H24         4.8676   -2.2122    5.9083 H         1 <0>         0.0579
     45 H25         6.1529   -3.2144    6.6237 H         1 <0>         0.0668
     46 H26         6.6354   -2.7141    4.2435 H         1 <0>         0.0754
     47 H27         7.3751   -4.8739    5.2114 H         1 <0>         0.0680
     48 H28         6.9605   -5.0540    3.4898 H         1 <0>         0.0658
@<TRIPOS>BOND
     1    1    6 1
     2    1    2 1
     3    1   21 1
     4    1   22 1
     5    2    3 1
     6    2   23 1
     7    2   24 1
     8    3    4 1
     9    3   25 1
    10    3   26 1
    11    4    5 1
    12    4    7 1
    13    4   27 1
    14    5    6 1
    15    5   28 1
    16    5   29 1
    17    6   30 1
    18    6   31 1
    19    7    8 am
    20    7   32 1
    21    8    9 2
    22    8   10 am
    23   10   11 1
    24   10   33 1
    25   11   19 1
    26   11   12 1
    27   11   34 1
    28   12   17 1
    29   12   13 1
    30   12   35 1
    31   13   14 1
    32   13   36 1
    33   13   37 1
    34   14   20 1
    35   14   15 1
    36   14   38 1
    37   15   16 1
    38   15   39 1
    39   15   40 1
    40   16   17 1
    41   16   18 1
    42   16   41 1
    43   17   42 1
    44   17   43 1
    45   18   19 1
    46   18   44 1
    47   18   45 1
    48   19   20 1
    49   19   46 1
    50   20   47 1
    51   20   48 1
@<TRIPOS>MOLECULE
ZINC44410189
   34    36     0     0     0
SMALL
USER_CHARGES

@<TRIPOS>ATOM
      1 C1         -0.0167    1.3781    0.0096 C.ar      1 <0>        -0.1218
      2 C2          1.1709    2.0855    0.0021 C.ar      1 <0>        -0.1170
      3 C3          2.3773    1.4107   -0.0130 C.ar      1 <0>        -0.1113
      4 C4          2.3960    0.0285   -0.0201 C.ar      1 <0>        -0.0551
      5 C5          1.2084   -0.6789   -0.0117 C.ar      1 <0>        -0.1195
      6 C6          0.0021   -0.0041    0.0020 C.ar      1 <0>        -0.1156
      7 C7          3.7112   -0.7071   -0.0376 C.3       1 <0>        -0.1198
      8 H1          4.5589   -0.1646    0.3809 H         1 <0>         0.1174
      9 C8          3.6750   -2.2237    0.1616 C.3       1 <0>        -0.1818
     10 C9          3.9832   -1.6399   -1.2194 C.3       1 <0>         0.0940
     11 H2          3.2110   -1.7215   -1.9844 H         1 <0>         0.1427
     12 N1          5.3633   -1.7359   -1.7017 N.am      1 <0>        -0.6968
     13 C10         5.6080   -2.0989   -2.9763 C.2       1 <0>         0.5615
     14 O1          4.6837   -2.3467   -3.7258 O.2       1 <0>        -0.5232
     15 C11         7.0013   -2.1959   -3.4632 C.ar      1 <0>        -0.1071
     16 C12         8.0631   -1.9168   -2.6006 C.ar      1 <0>        -0.0875
     17 C13         9.3606   -2.0070   -3.0536 C.ar      1 <0>        -0.0767
     18 C14         9.6142   -2.3777   -4.3762 C.ar      1 <0>         0.0013
     19 C15         8.5518   -2.6568   -5.2390 C.ar      1 <0>        -0.0757
     20 C16         7.2546   -2.5720   -4.7838 C.ar      1 <0>        -0.0580
     21 C17        10.9631   -2.4711   -4.8477 C.1       1 <0>         0.2452
     22 N2         12.0332   -2.5452   -5.2217 N.1       1 <0>        -0.3996
     23 H3         -0.9591    1.9053    0.0259 H         1 <0>         0.1225
     24 H4          1.1563    3.1654    0.0076 H         1 <0>         0.1233
     25 H5          3.3051    1.9634   -0.0196 H         1 <0>         0.1217
     26 H6          1.2231   -1.7588   -0.0176 H         1 <0>         0.1242
     27 H7         -0.9258   -0.5567    0.0082 H         1 <0>         0.1236
     28 H8          4.4992   -2.6789    0.7109 H         1 <0>         0.1046
     29 H9          2.7000   -2.6893    0.3053 H         1 <0>         0.1100
     30 H10         6.1009   -1.5382   -1.1036 H         1 <0>         0.4028
     31 H11         7.8670   -1.6299   -1.5780 H         1 <0>         0.1368
     32 H12        10.1819   -1.7908   -2.3864 H         1 <0>         0.1419
     33 H13         8.7476   -2.9435   -6.2617 H         1 <0>         0.1434
     34 H14         6.4333   -2.7921   -5.4496 H         1 <0>         0.1498
@<TRIPOS>BOND
     1    1    6 ar
     2    1    2 ar
     3    1   23 1
     4    2    3 ar
     5    2   24 1
     6    3    4 ar
     7    3   25 1
     8    4    5 ar
     9    4    7 1
    10    5    6 ar
    11    5   26 1
    12    6   27 1
    13    7    8 1
    14    7   10 1
    15    7    9 1
    16    9   10 1
    17    9   28 1
    18    9   29 1
    19   10   11 1
    20   10   12 1
    21   12   13 am
    22   12   30 1
    23   13   14 2
    24   13   15 1
    25   15   20 ar
    26   15   16 ar
    27   16   17 ar
    28   16   31 1
    29   17   18 ar
    30   17   32 1
    31   18   19 ar
    32   18   21 1
    33   19   20 ar
    34   19   33 1
    35   20   34 1
    36   21   22 3
@<TRIPOS>MOLECULE
ZINC47829836
   44    45     0     0     0
SMALL
USER_CHARGES

@<TRIPOS>ATOM
      1 C1          0.0350   -0.7635    1.3032 C.3       1 <0>        -0.1775
      2 C2          0.0021   -0.0041    0.0020 C.2       1 <0>         0.5143
      3 O1         -0.1141    1.2032    0.0073 O.2       1 <0>        -0.5459
      4 N1          0.1018   -0.6664   -1.1675 N.am      1 <0>        -0.6174
      5 C3          0.1973    0.0668   -2.4372 C.3       1 <0>         0.1140
      6 C4         -0.8932   -0.4435   -3.3845 C.3       1 <0>        -0.1414
      7 C5         -0.7713   -1.9625   -3.5251 C.3       1 <0>         0.1648
      8 C6         -0.9722   -2.6208   -2.1582 C.3       1 <0>        -0.1455
      9 C7          0.1231   -2.1352   -1.1966 C.3       1 <0>         0.1075
     10 N2         -1.7920   -2.4499   -4.4562 N.am      1 <0>        -0.7442
     11 C8         -1.5977   -3.6034   -5.1257 C.2       1 <0>         0.7048
     12 O2         -0.5753   -4.2395   -4.9568 O.2       1 <0>        -0.5877
     13 N3         -2.5367   -4.0518   -5.9822 N.am      1 <0>        -0.7435
     14 C9         -2.3255   -5.3056   -6.7099 C.3       1 <0>         0.1640
     15 C10        -1.5120   -5.0297   -7.9760 C.3       1 <0>        -0.1296
     16 C11        -1.2914   -6.3391   -8.7360 C.3       1 <0>        -0.1178
     17 C12        -2.6450   -6.9399   -9.1204 C.3       1 <0>        -0.1228
     18 C13        -3.4585   -7.2159   -7.8543 C.3       1 <0>        -0.1162
     19 C14        -3.6791   -5.9064   -7.0943 C.3       1 <0>        -0.1265
     20 H1         -0.9844   -0.9728    1.6276 H         1 <0>         0.0945
     21 H2          0.5714   -1.7019    1.1628 H         1 <0>         0.0828
     22 H3          0.5416   -0.1652    2.0605 H         1 <0>         0.0949
     23 H4          0.0545    1.1320   -2.2557 H         1 <0>         0.0988
     24 H5          1.1773   -0.1018   -2.8837 H         1 <0>         0.0723
     25 H6         -1.8736   -0.1931   -2.9791 H         1 <0>         0.0732
     26 H7         -0.7733    0.0232   -4.3622 H         1 <0>         0.0834
     27 H8          0.2181   -2.2136   -3.9072 H         1 <0>         0.0918
     28 H9         -1.9518   -2.3500   -1.7643 H         1 <0>         0.0691
     29 H10        -0.9085   -3.7039   -2.2631 H         1 <0>         0.0837
     30 H11         1.0971   -2.4797   -1.5439 H         1 <0>         0.0756
     31 H12        -0.0686   -2.5233   -0.1962 H         1 <0>         0.0935
     32 H13        -2.6076   -1.9424   -4.5909 H         1 <0>         0.3956
     33 H14        -3.3523   -3.5443   -6.1169 H         1 <0>         0.3947
     34 H15        -1.7836   -6.0070   -6.0756 H         1 <0>         0.0882
     35 H16        -2.0539   -4.3282   -8.6104 H         1 <0>         0.0616
     36 H17        -0.5477   -4.6016   -7.7022 H         1 <0>         0.0674
     37 H18        -0.7119   -6.1425   -9.6380 H         1 <0>         0.0649
     38 H19        -0.7495   -7.0405   -8.1017 H         1 <0>         0.0648
     39 H20        -3.1869   -6.2385   -9.7548 H         1 <0>         0.0624
     40 H21        -2.4879   -7.8728   -9.6618 H         1 <0>         0.0645
     41 H22        -4.4228   -7.6439   -8.1281 H         1 <0>         0.0677
     42 H23        -2.9166   -7.9173   -7.2199 H         1 <0>         0.0658
     43 H24        -4.2586   -6.1030   -6.1923 H         1 <0>         0.0681
     44 H25        -4.2210   -5.2050   -7.7287 H         1 <0>         0.0673
@<TRIPOS>BOND
     1    1    2 1
     2    1   20 1
     3    1   21 1
     4    1   22 1
     5    2    3 2
     6    2    4 am
     7    4    9 1
     8    4    5 1
     9    5    6 1
    10    5   23 1
    11    5   24 1
    12    6    7 1
    13    6   25 1
    14    6   26 1
    15    7    8 1
    16    7   10 1
    17    7   27 1
    18    8    9 1
    19    8   28 1
    20    8   29 1
    21    9   30 1
    22    9   31 1
    23   10   11 am
    24   10   32 1
    25   11   12 2
    26   11   13 am
    27   13   14 1
    28   13   33 1
    29   14   19 1
    30   14   15 1
    31   14   34 1
    32   15   16 1
    33   15   35 1
    34   15   36 1
    35   16   17 1
    36   16   37 1
    37   16   38 1
    38   17   18 1
    39   17   39 1
    40   17   40 1
    41   18   19 1
    42   18   41 1
    43   18   42 1
    44   19   43 1
    45   19   44 1
@<TRIPOS>MOLECULE
ZINC47639227
   47    48     0     0     0
SMALL
USER_CHARGES

@<TRIPOS>ATOM
      1 C1          0.0350   -0.7635    1.3032 C.3       1 <0>        -0.1775
      2 C2          0.0021   -0.0041    0.0020 C.2       1 <0>         0.5143
      3 O1         -0.1141    1.2032    0.0073 O.2       1 <0>        -0.5459
      4 N1          0.1018   -0.6664   -1.1675 N.am      1 <0>        -0.6173
      5 C3          0.1973    0.0668   -2.4372 C.3       1 <0>         0.1140
      6 C4         -0.8932   -0.4435   -3.3845 C.3       1 <0>        -0.1415
      7 C5         -0.7713   -1.9625   -3.5251 C.3       1 <0>         0.1650
      8 C6         -0.9722   -2.6208   -2.1582 C.3       1 <0>        -0.1454
      9 C7          0.1231   -2.1352   -1.1966 C.3       1 <0>         0.1075
     10 N2         -1.7920   -2.4499   -4.4562 N.am      1 <0>        -0.7444
     11 C8         -1.5977   -3.6034   -5.1257 C.2       1 <0>         0.7047
     12 O2         -0.5753   -4.2395   -4.9568 O.2       1 <0>        -0.5864
     13 N3         -2.5367   -4.0518   -5.9822 N.am      1 <0>        -0.7437
     14 C9         -2.3255   -5.3056   -6.7099 C.3       1 <0>         0.1656
     15 C10        -2.7824   -6.4637   -5.8648 C.3       1 <0>        -0.1270
     16 C11        -1.9258   -7.7258   -6.0816 C.3       1 <0>        -0.1128
     17 C12        -1.5826   -7.9676   -7.5639 C.3       1 <0>        -0.1231
     18 C13        -2.7519   -7.7096   -8.4752 C.3       1 <0>        -0.1196
     19 C14        -2.6625   -6.2576   -8.9878 C.3       1 <0>        -0.1178
     20 C15        -3.1511   -5.2940   -8.0127 C.3       1 <0>        -0.1232
     21 H1         -0.9844   -0.9728    1.6276 H         1 <0>         0.0945
     22 H2          0.5714   -1.7019    1.1628 H         1 <0>         0.0828
     23 H3          0.5416   -0.1652    2.0605 H         1 <0>         0.0949
     24 H4          0.0545    1.1320   -2.2557 H         1 <0>         0.0988
     25 H5          1.1773   -0.1018   -2.8837 H         1 <0>         0.0723
     26 H6         -1.8736   -0.1931   -2.9791 H         1 <0>         0.0731
     27 H7         -0.7733    0.0232   -4.3622 H         1 <0>         0.0834
     28 H8          0.2181   -2.2136   -3.9072 H         1 <0>         0.0918
     29 H9         -1.9518   -2.3500   -1.7643 H         1 <0>         0.0689
     30 H10        -0.9085   -3.7039   -2.2631 H         1 <0>         0.0835
     31 H11         1.0971   -2.4797   -1.5439 H         1 <0>         0.0756
     32 H12        -0.0686   -2.5233   -0.1962 H         1 <0>         0.0933
     33 H13        -2.6076   -1.9424   -4.5909 H         1 <0>         0.3955
     34 H14        -3.3523   -3.5443   -6.1169 H         1 <0>         0.3943
     35 H15        -1.2676   -5.4171   -6.9479 H         1 <0>         0.0921
     36 H16        -2.7282   -6.1768   -4.8146 H         1 <0>         0.0633
     37 H17        -3.8186   -6.6939   -6.1125 H         1 <0>         0.0611
     38 H18        -0.9983   -7.6222   -5.5184 H         1 <0>         0.0626
     39 H19        -2.4706   -8.5900   -5.7014 H         1 <0>         0.0596
     40 H20        -0.7620   -7.3087   -7.8480 H         1 <0>         0.0617
     41 H21        -1.2608   -9.0017   -7.6873 H         1 <0>         0.0601
     42 H22        -2.7175   -8.3987   -9.3190 H         1 <0>         0.0640
     43 H23        -3.6825   -7.8468   -7.9245 H         1 <0>         0.0664
     44 H24        -1.6224   -6.0286   -9.2198 H         1 <0>         0.0634
     45 H25        -3.2534   -6.1681   -9.8993 H         1 <0>         0.0650
     46 H26        -4.1889   -5.5276   -7.7750 H         1 <0>         0.0664
     47 H27        -3.1070   -4.2963   -8.4497 H         1 <0>         0.0660
@<TRIPOS>BOND
     1    1    2 1
     2    1   21 1
     3    1   22 1
     4    1   23 1
     5    2    3 2
     6    2    4 am
     7    4    9 1
     8    4    5 1
     9    5    6 1
    10    5   24 1
    11    5   25 1
    12    6    7 1
    13    6   26 1
    14    6   27 1
    15    7    8 1
    16    7   10 1
    17    7   28 1
    18    8    9 1
    19    8   29 1
    20    8   30 1
    21    9   31 1
    22    9   32 1
    23   10   11 am
    24   10   33 1
    25   11   12 2
    26   11   13 am
    27   13   14 1
    28   13   34 1
    29   14   20 1
    30   14   15 1
    31   14   35 1
    32   15   16 1
    33   15   36 1
    34   15   37 1
    35   16   17 1
    36   16   38 1
    37   16   39 1
    38   17   18 1
    39   17   40 1
    40   17   41 1
    41   18   19 1
    42   18   42 1
    43   18   43 1
    44   19   20 1
    45   19   44 1
    46   19   45 1
    47   20   46 1
    48   20   47 1
@<TRIPOS>MOLECULE
ZINC40526006
   41    42     0     0     0
SMALL
USER_CHARGES

@<TRIPOS>ATOM
      1 C1         -0.0022    1.4899    0.0163 C.3       1 <0>        -0.1754
      2 C2          0.0110   -0.0170    0.0010 C.2       1 <0>         0.5128
      3 O1          1.0665   -0.6140   -0.0187 O.2       1 <0>        -0.5427
      4 N1         -1.1501   -0.7012    0.0093 N.am      1 <0>        -0.6183
      5 C3         -2.4368    0.0080    0.0270 C.3       1 <0>         0.1109
      6 C4         -3.2718   -0.5148    1.2001 C.3       1 <0>        -0.1440
      7 C5         -3.3944   -2.0367    1.0956 C.3       1 <0>         0.1629
      8 C6         -2.0028   -2.6688    1.1737 C.3       1 <0>        -0.1446
      9 C7         -1.1535   -2.1703   -0.0053 C.3       1 <0>         0.1127
     10 N2         -4.2201   -2.5366    2.1976 N.am      1 <0>        -0.7353
     11 C8         -4.8827   -3.7031    2.0678 C.2       1 <0>         0.7055
     12 O2         -4.7951   -4.3405    1.0361 O.2       1 <0>        -0.5655
     13 N3         -5.6423   -4.1631    3.0816 N.am      1 <0>        -0.6872
     14 C9         -6.4065   -5.3233    2.9129 C.ar      1 <0>         0.1967
     15 C10        -7.6492   -5.4328    3.5228 C.ar      1 <0>        -0.1492
     16 C11        -8.4011   -6.5789    3.3539 C.ar      1 <0>        -0.0491
     17 C12        -7.9176   -7.6168    2.5785 C.ar      1 <0>        -0.2014
     18 C13        -6.6803   -7.5110    1.9702 C.ar      1 <0>        -0.0495
     19 C14        -5.9261   -6.3652    2.1305 C.ar      1 <0>        -0.1221
     20 C15        -8.7407   -8.8660    2.3964 C.3       1 <0>         0.5098
     21 F1         -9.5648   -8.7221    1.2750 F         1 <0>        -0.1765
     22 F2         -7.8907   -9.9619    2.2128 F         1 <0>        -0.1769
     23 F3         -9.5307   -9.0736    3.5321 F         1 <0>        -0.1777
     24 H1          1.0222    1.8623    0.0066 H         1 <0>         0.0933
     25 H2         -0.5307    1.8575   -0.8633 H         1 <0>         0.0893
     26 H3         -0.5075    1.8397    0.9165 H         1 <0>         0.0884
     27 H4         -2.2631    1.0771    0.1499 H         1 <0>         0.0953
     28 H5         -2.9667   -0.1731   -0.9081 H         1 <0>         0.0767
     29 H6         -2.7842   -0.2527    2.1391 H         1 <0>         0.0758
     30 H7         -4.2650   -0.0667    1.1679 H         1 <0>         0.0864
     31 H8         -3.8596   -2.2991    0.1455 H         1 <0>         0.0952
     32 H9         -1.5272   -2.3864    2.1129 H         1 <0>         0.0696
     33 H10        -2.0928   -3.7539    1.1227 H         1 <0>         0.0830
     34 H11        -1.5809   -2.5255   -0.9430 H         1 <0>         0.0727
     35 H12        -0.1328   -2.5391    0.0962 H         1 <0>         0.0974
     36 H13        -4.2900   -2.0282    3.0207 H         1 <0>         0.3989
     37 H14        -5.6594   -3.6899    3.9282 H         1 <0>         0.4108
     38 H15        -8.0272   -4.6227    4.1288 H         1 <0>         0.1379
     39 H16        -9.3675   -6.6648    3.8283 H         1 <0>         0.1406
     40 H17        -6.3053   -8.3235    1.3655 H         1 <0>         0.1399
     41 H18        -4.9619   -6.2812    1.6512 H         1 <0>         0.1528
@<TRIPOS>BOND
     1    1    2 1
     2    1   24 1
     3    1   25 1
     4    1   26 1
     5    2    3 2
     6    2    4 am
     7    4    9 1
     8    4    5 1
     9    5    6 1
    10    5   27 1
    11    5   28 1
    12    6    7 1
    13    6   29 1
    14    6   30 1
    15    7    8 1
    16    7   10 1
    17    7   31 1
    18    8    9 1
    19    8   32 1
    20    8   33 1
    21    9   34 1
    22    9   35 1
    23   10   11 am
    24   10   36 1
    25   11   12 2
    26   11   13 am
    27   13   14 1
    28   13   37 1
    29   14   19 ar
    30   14   15 ar
    31   15   16 ar
    32   15   38 1
    33   16   17 ar
    34   16   39 1
    35   17   18 ar
    36   17   20 1
    37   18   19 ar
    38   18   40 1
    39   19   41 1
    40   20   21 1
    41   20   22 1
    42   20   23 1
@<TRIPOS>MOLECULE
ZINC40525693
   42    43     0     0     0
SMALL
USER_CHARGES

@<TRIPOS>ATOM
      1 C1          0.7704   -0.4537    0.8430 C.3       1 <0>        -0.1774
      2 C2          0.5110    0.2770   -0.4493 C.2       1 <0>         0.5146
      3 O1          0.3168    1.4741   -0.4406 O.2       1 <0>        -0.5447
      4 N1          0.4950   -0.3999   -1.6146 N.am      1 <0>        -0.6181
      5 C3          0.3629    0.3129   -2.8926 C.3       1 <0>         0.1139
      6 C4         -0.8090   -0.2892   -3.6741 C.3       1 <0>        -0.1418
      7 C5         -0.6011   -1.7988   -3.8150 C.3       1 <0>         0.1632
      8 C6         -0.5649   -2.4422   -2.4269 C.3       1 <0>        -0.1462
      9 C7          0.6154   -1.8641   -1.6315 C.3       1 <0>         0.1079
     10 N2         -1.7035   -2.3730   -4.5905 N.am      1 <0>        -0.7364
     11 C8         -1.5226   -3.5235   -5.2688 C.2       1 <0>         0.7046
     12 O2         -0.4444   -4.0849   -5.2371 O.2       1 <0>        -0.5689
     13 N3         -2.5367   -4.0518   -5.9822 N.am      1 <0>        -0.6856
     14 C9         -2.3835   -5.3011   -6.5988 C.ar      1 <0>         0.1509
     15 C10        -3.0017   -5.5554   -7.8156 C.ar      1 <0>        -0.1107
     16 C11        -2.8500   -6.7864   -8.4228 C.ar      1 <0>        -0.1008
     17 C12        -2.0802   -7.7687   -7.8172 C.ar      1 <0>         0.0867
     18 C13        -1.4626   -7.5153   -6.6012 C.ar      1 <0>        -0.1677
     19 C14        -1.6089   -6.2828   -5.9957 C.ar      1 <0>        -0.0780
     20 O3         -1.9312   -8.9806   -8.4156 O.3       1 <0>        -0.3101
     21 C15        -1.1248   -9.9449   -7.7360 C.3       1 <0>         0.6037
     22 F1         -1.6773  -10.2119   -6.4787 F         1 <0>        -0.1650
     23 F2         -1.0787  -11.1255   -8.4853 F         1 <0>        -0.1306
     24 F3          0.1710   -9.4416   -7.5787 F         1 <0>        -0.1639
     25 H1         -0.1779   -0.7656    1.2807 H         1 <0>         0.0945
     26 H2          1.3861   -1.3314    0.6469 H         1 <0>         0.0831
     27 H3          1.2904    0.2075    1.5362 H         1 <0>         0.0950
     28 H4          0.1720    1.3693   -2.7037 H         1 <0>         0.0997
     29 H5          1.2815    0.2028   -3.4690 H         1 <0>         0.0729
     30 H6         -1.7393   -0.0984   -3.1391 H         1 <0>         0.0745
     31 H7         -0.8581    0.1652   -4.6637 H         1 <0>         0.0846
     32 H8          0.3415   -1.9893   -4.3282 H         1 <0>         0.0947
     33 H9         -1.4975   -2.2312   -1.9036 H         1 <0>         0.0708
     34 H10        -0.4403   -3.5203   -2.5287 H         1 <0>         0.0842
     35 H11         1.5542   -2.1481   -2.1072 H         1 <0>         0.0762
     36 H12         0.5911   -2.2446   -0.6104 H         1 <0>         0.0941
     37 H13        -2.5635   -1.9252   -4.6158 H         1 <0>         0.3988
     38 H14        -3.3725   -3.5673   -6.0690 H         1 <0>         0.4091
     39 H15        -3.6013   -4.7909   -8.2870 H         1 <0>         0.1411
     40 H16        -3.3311   -6.9846   -9.3692 H         1 <0>         0.1444
     41 H17        -0.8637   -8.2806   -6.1300 H         1 <0>         0.1369
     42 H18        -1.1244   -6.0841   -5.0512 H         1 <0>         0.1458
@<TRIPOS>BOND
     1    1    2 1
     2    1   25 1
     3    1   26 1
     4    1   27 1
     5    2    3 2
     6    2    4 am
     7    4    9 1
     8    4    5 1
     9    5    6 1
    10    5   28 1
    11    5   29 1
    12    6    7 1
    13    6   30 1
    14    6   31 1
    15    7    8 1
    16    7   10 1
    17    7   32 1
    18    8    9 1
    19    8   33 1
    20    8   34 1
    21    9   35 1
    22    9   36 1
    23   10   11 am
    24   10   37 1
    25   11   12 2
    26   11   13 am
    27   13   14 1
    28   13   38 1
    29   14   19 ar
    30   14   15 ar
    31   15   16 ar
    32   15   39 1
    33   16   17 ar
    34   16   40 1
    35   17   18 ar
    36   17   20 1
    37   18   19 ar
    38   18   41 1
    39   19   42 1
    40   20   21 1
    41   21   22 1
    42   21   23 1
    43   21   24 1
@<TRIPOS>MOLECULE
ZINC43278259
   42    43     0     0     0
SMALL
USER_CHARGES

@<TRIPOS>ATOM
      1 C1         -0.0143    1.8111    0.0162 C.3       1 <0>        -0.6736
      2 S1          0.0166   -0.0026    0.0111 S.o2      1 <0>         2.6099
      3 O1          0.8577   -0.4807    1.0519 O.2       1 <0>        -0.9528
      4 O2         -1.2994   -0.5141   -0.1494 O.2       1 <0>        -0.9540
      5 N1          0.8022   -0.4110   -1.3883 N.pl3     1 <0>        -1.0027
      6 C2          0.0536   -0.6067   -2.6373 C.3       1 <0>         0.1217
      7 C3          0.4052   -1.9823   -3.2125 C.3       1 <0>        -0.1397
      8 C4          1.9238   -2.0937   -3.3659 C.3       1 <0>         0.1639
      9 C5          2.5880   -1.9598   -1.9937 C.3       1 <0>        -0.1427
     10 C6          2.2618   -0.5784   -1.4059 C.3       1 <0>         0.1201
     11 N2          2.2615   -3.3955   -3.9467 N.am      1 <0>        -0.7354
     12 C7          3.4125   -3.5502   -4.6306 C.2       1 <0>         0.7059
     13 O3          4.1705   -2.6092   -4.7657 O.2       1 <0>        -0.5669
     14 N3          3.7232   -4.7479   -5.1649 N.am      1 <0>        -0.6876
     15 C8          4.8692   -4.8849   -5.9563 C.ar      1 <0>         0.1974
     16 C9          4.8640   -5.7472   -7.0448 C.ar      1 <0>        -0.1494
     17 C10         5.9965   -5.8799   -7.8242 C.ar      1 <0>        -0.0491
     18 C11         7.1347   -5.1552   -7.5216 C.ar      1 <0>        -0.2018
     19 C12         7.1432   -4.2961   -6.4381 C.ar      1 <0>        -0.0497
     20 C13         6.0121   -4.1546   -5.6582 C.ar      1 <0>        -0.1221
     21 C14         8.3686   -5.3025   -8.3741 C.3       1 <0>         0.5098
     22 F1          8.3318   -4.3667   -9.4133 F         1 <0>        -0.1767
     23 F2          9.5062   -5.0837   -7.5897 F         1 <0>        -0.1771
     24 F3          8.4134   -6.5937   -8.9106 F         1 <0>        -0.1778
     25 H1          1.0069    2.1919    0.0012 H         1 <0>         0.1280
     26 H2         -0.5481    2.1679   -0.8647 H         1 <0>         0.1278
     27 H3         -0.5203    2.1634    0.9151 H         1 <0>         0.1288
     28 H4         -1.0161   -0.5583   -2.4336 H         1 <0>         0.1016
     29 H5          0.3269    0.1692   -3.3525 H         1 <0>         0.0751
     30 H6          0.0497   -2.7606   -2.5373 H         1 <0>         0.0775
     31 H7         -0.0686   -2.1010   -4.1869 H         1 <0>         0.0849
     32 H8          2.2818   -1.2999   -4.0216 H         1 <0>         0.0950
     33 H9          2.2119   -2.7383   -1.3299 H         1 <0>         0.0726
     34 H10         3.6679   -2.0626   -2.1006 H         1 <0>         0.0830
     35 H11         2.7115    0.1996   -2.0227 H         1 <0>         0.0750
     36 H12         2.6496   -0.5115   -0.3894 H         1 <0>         0.0995
     37 H13         1.6567   -4.1462   -3.8389 H         1 <0>         0.3995
     38 H14         3.1524   -5.5148   -5.0010 H         1 <0>         0.4110
     39 H15         3.9755   -6.3138   -7.2815 H         1 <0>         0.1379
     40 H16         5.9933   -6.5507   -8.6706 H         1 <0>         0.1404
     41 H17         8.0338   -3.7318   -6.2041 H         1 <0>         0.1396
     42 H18         6.0178   -3.4799   -4.8150 H         1 <0>         0.1530
@<TRIPOS>BOND
     1    1    2 1
     2    1   25 1
     3    1   26 1
     4    1   27 1
     5    2    3 2
     6    2    4 2
     7    2    5 1
     8    5   10 1
     9    5    6 1
    10    6    7 1
    11    6   28 1
    12    6   29 1
    13    7    8 1
    14    7   30 1
    15    7   31 1
    16    8    9 1
    17    8   11 1
    18    8   32 1
    19    9   10 1
    20    9   33 1
    21    9   34 1
    22   10   35 1
    23   10   36 1
    24   11   12 am
    25   11   37 1
    26   12   13 2
    27   12   14 am
    28   14   15 1
    29   14   38 1
    30   15   20 ar
    31   15   16 ar
    32   16   17 ar
    33   16   39 1
    34   17   18 ar
    35   17   40 1
    36   18   19 ar
    37   18   21 1
    38   19   20 ar
    39   19   41 1
    40   20   42 1
    41   21   22 1
    42   21   23 1
    43   21   24 1
@<TRIPOS>MOLECULE
ZINC19074909
   34    35     0     0     0
SMALL
USER_CHARGES
3-cyclohexyl-1-(2,3,4-trifluorophenyl)urea
@<TRIPOS>ATOM
      1 C1         -2.1998    0.0179   -5.8036 C.ar      1 <0>        -0.0870
      2 C2         -2.9182   -0.2153   -6.9611 C.ar      1 <0>        -0.1070
      3 C3         -2.2901   -0.1508   -8.1926 C.ar      1 <0>         0.0763
      4 C4         -0.9379    0.1476   -8.2686 C.ar      1 <0>         0.0585
      5 C5         -0.2161    0.3865   -7.1116 C.ar      1 <0>         0.0573
      6 C6         -0.8467    0.3168   -5.8747 C.ar      1 <0>         0.1624
      7 N1         -0.1177    0.5539   -4.7009 N.am      1 <0>        -0.6790
      8 C7         -0.7492    0.9844   -3.5908 C.2       1 <0>         0.7083
      9 O1         -1.9315    1.2651   -3.6341 O.2       1 <0>        -0.5646
     10 N2         -0.0703    1.1036   -2.4327 N.am      1 <0>        -0.7322
     11 C8         -0.7567    1.5715   -1.2260 C.3       1 <0>         0.1619
     12 C9         -0.0234    1.0514    0.0120 C.3       1 <0>        -0.1270
     13 C10        -0.7403    1.5400    1.2722 C.3       1 <0>        -0.1161
     14 C11        -0.7520    3.0699    1.2916 C.3       1 <0>        -0.1237
     15 C12        -1.4853    3.5900    0.0536 C.3       1 <0>        -0.1175
     16 C13        -0.7684    3.1013   -1.2066 C.3       1 <0>        -0.1314
     17 F1          1.1001    0.6823   -7.1843 F         1 <0>        -0.1184
     18 F2         -0.3263    0.2101   -9.4716 F         1 <0>        -0.1128
     19 F3         -2.9951   -0.3793   -9.3222 F         1 <0>        -0.1188
     20 H1         -2.6919   -0.0321   -4.8435 H         1 <0>         0.1757
     21 H2         -3.9713   -0.4478   -6.9045 H         1 <0>         0.1597
     22 H3          0.8412    0.4082   -4.6878 H         1 <0>         0.4144
     23 H4          0.8729    0.8797   -2.3982 H         1 <0>         0.3996
     24 H5         -1.7815    1.2003   -1.2239 H         1 <0>         0.0929
     25 H6         -0.0151   -0.0385   -0.0018 H         1 <0>         0.0702
     26 H7          1.0014    1.4226    0.0099 H         1 <0>         0.0691
     27 H8         -1.7651    1.1688    1.2743 H         1 <0>         0.0667
     28 H9         -0.2178    1.1695    2.1542 H         1 <0>         0.0691
     29 H10         0.2729    3.4411    1.2895 H         1 <0>         0.0630
     30 H11        -1.2627    3.4180    2.1894 H         1 <0>         0.0656
     31 H12        -1.4936    4.6799    0.0674 H         1 <0>         0.0663
     32 H13        -2.5101    3.2187    0.0557 H         1 <0>         0.0658
     33 H14         0.2564    3.4726   -1.2087 H         1 <0>         0.0638
     34 H15        -1.2909    3.4719   -2.0886 H         1 <0>         0.0689
@<TRIPOS>BOND
     1    1    6 ar
     2    1    2 ar
     3    1   20 1
     4    2    3 ar
     5    2   21 1
     6    3    4 ar
     7    3   19 1
     8    4    5 ar
     9    4   18 1
    10    5    6 ar
    11    5   17 1
    12    6    7 1
    13    7    8 am
    14    7   22 1
    15    8    9 2
    16    8   10 am
    17   10   11 1
    18   10   23 1
    19   11   16 1
    20   11   12 1
    21   11   24 1
    22   12   13 1
    23   12   25 1
    24   12   26 1
    25   13   14 1
    26   13   27 1
    27   13   28 1
    28   14   15 1
    29   14   29 1
    30   14   30 1
    31   15   16 1
    32   15   31 1
    33   15   32 1
    34   16   33 1
    35   16   34 1
@<TRIPOS>MOLECULE
ZINC05671763
   41    43     0     0     0
SMALL
USER_CHARGES
3-(2-adamantyl)-1-propyl-urea
@<TRIPOS>ATOM
      1 C1          4.9065    1.4493   -0.0370 C.3       1 <0>        -0.1505
      2 C2          3.5713    2.1962   -0.0202 C.3       1 <0>        -0.1357
      3 C3          2.4220    1.1862   -0.0147 C.3       1 <0>         0.1366
      4 N1          1.1435    1.9014    0.0014 N.am      1 <0>        -0.7493
      5 C4         -0.0144    1.2117    0.0087 C.2       1 <0>         0.7024
      6 O1          0.0021   -0.0041    0.0020 O.2       1 <0>        -0.5894
      7 N2         -1.1906    1.8696    0.0179 N.am      1 <0>        -0.7399
      8 C5         -2.4493    1.1200    0.0198 C.3       1 <0>         0.1767
      9 C6         -2.8299    0.7588   -1.4175 C.3       1 <0>        -0.0963
     10 H1         -2.0433    0.1469   -1.8588 H         1 <0>         0.0748
     11 C7         -3.0003    2.0394   -2.2371 C.3       1 <0>        -0.1053
     12 C8         -4.1046    2.8983   -1.6175 C.3       1 <0>        -0.0871
     13 H2         -4.2260    3.8107   -2.2015 H         1 <0>         0.0697
     14 C9         -5.4191    2.1154   -1.6156 C.3       1 <0>        -0.1082
     15 C10        -5.2487    0.8347   -0.7959 C.3       1 <0>        -0.0886
     16 H3         -6.1852    0.2770   -0.7945 H         1 <0>         0.0724
     17 C11        -4.1444   -0.0242   -1.4155 C.3       1 <0>        -0.1069
     18 C12        -4.8680    1.1959    0.6413 C.3       1 <0>        -0.1053
     19 C13        -3.5535    1.9789    0.6393 C.3       1 <0>        -0.0932
     20 H4         -3.2823    2.2362    1.6632 H         1 <0>         0.0757
     21 C14        -3.7239    3.2595   -0.1803 C.3       1 <0>        -0.1084
     22 H5          4.9812    0.8187    0.8489 H         1 <0>         0.0585
     23 H6          4.9642    0.8283   -0.9309 H         1 <0>         0.0585
     24 H7          5.7252    2.1688   -0.0410 H         1 <0>         0.0606
     25 H8          3.4965    2.8268   -0.9062 H         1 <0>         0.0680
     26 H9          3.5135    2.8172    0.8737 H         1 <0>         0.0681
     27 H10         2.4967    0.5556    0.8712 H         1 <0>         0.0658
     28 H11         2.4797    0.5652   -0.9086 H         1 <0>         0.0658
     29 H12         1.1303    2.8713    0.0067 H         1 <0>         0.3949
     30 H13        -1.2038    2.8395    0.0232 H         1 <0>         0.3935
     31 H14        -2.3279    0.2076    0.6037 H         1 <0>         0.0874
     32 H15        -2.0639    2.5972   -2.2385 H         1 <0>         0.0593
     33 H16        -3.2715    1.7821   -3.2610 H         1 <0>         0.0617
     34 H17        -5.6903    1.8581   -2.6395 H         1 <0>         0.0624
     35 H18        -6.2058    2.7273   -1.1742 H         1 <0>         0.0621
     36 H19        -4.0231   -0.9365   -0.8315 H         1 <0>         0.0648
     37 H20        -4.4156   -0.2815   -2.4394 H         1 <0>         0.0653
     38 H21        -4.7466    0.2836    1.2252 H         1 <0>         0.0659
     39 H22        -5.6547    1.8078    1.0827 H         1 <0>         0.0682
     40 H23        -4.5106    3.8714    0.2610 H         1 <0>         0.0671
     41 H24        -2.7874    3.8173   -0.1817 H         1 <0>         0.0579
@<TRIPOS>BOND
     1    1    2 1
     2    1   22 1
     3    1   23 1
     4    1   24 1
     5    2    3 1
     6    2   25 1
     7    2   26 1
     8    3    4 1
     9    3   27 1
    10    3   28 1
    11    4    5 am
    12    4   29 1
    13    5    6 2
    14    5    7 am
    15    7    8 1
    16    7   30 1
    17    8   19 1
    18    8    9 1
    19    8   31 1
    20    9   10 1
    21    9   17 1
    22    9   11 1
    23   11   12 1
    24   11   32 1
    25   11   33 1
    26   12   13 1
    27   12   21 1
    28   12   14 1
    29   14   15 1
    30   14   34 1
    31   14   35 1
    32   15   16 1
    33   15   17 1
    34   15   18 1
    35   17   36 1
    36   17   37 1
    37   18   19 1
    38   18   38 1
    39   18   39 1
    40   19   20 1
    41   19   21 1
    42   21   40 1
    43   21   41 1
@<TRIPOS>MOLECULE
ZINC42840507
   45    47     0     0     0
SMALL
USER_CHARGES

@<TRIPOS>ATOM
      1 C1         -0.0187    1.5258    0.0104 C.3       1 <0>        -0.1526
      2 C2          0.0021   -0.0041    0.0020 C.3       1 <0>         0.0567
      3 O1          0.6709   -0.4649   -1.1737 O.3       1 <0>        -0.3874
      4 C3          0.7457   -1.8880   -1.2798 C.3       1 <0>         0.0487
      5 C4          1.4779   -2.2655   -2.5691 C.3       1 <0>         0.1426
      6 N1          2.8679   -1.8090   -2.4929 N.am      1 <0>        -0.7435
      7 C5          3.7081   -2.0331   -3.5226 C.2       1 <0>         0.7059
      8 O2          3.3126   -2.6141   -4.5147 O.2       1 <0>        -0.5851
      9 N2          4.9868   -1.6130   -3.4526 N.am      1 <0>        -0.7418
     10 C6          5.9002   -1.8566   -4.5718 C.3       1 <0>         0.2028
     11 C7          6.0186   -3.3625   -4.8151 C.3       1 <0>        -0.1219
     12 C8          6.9724   -3.6169   -5.9839 C.3       1 <0>        -0.0829
     13 C9          8.3515   -3.0441   -5.6508 C.3       1 <0>        -0.1113
     14 C10         8.2331   -1.5382   -5.4075 C.3       1 <0>        -0.0801
     15 C11         7.2793   -1.2839   -4.2386 C.3       1 <0>        -0.1145
     16 C12         7.6896   -0.8595   -6.6664 C.3       1 <0>        -0.1114
     17 C13         6.3105   -1.4322   -6.9996 C.3       1 <0>        -0.0829
     18 C14         6.4289   -2.9381   -7.2428 C.3       1 <0>        -0.1090
     19 C15         5.3566   -1.1778   -5.8307 C.3       1 <0>        -0.1222
     20 H1          1.0039    1.9031    0.0027 H         1 <0>         0.0625
     21 H2         -0.5459    1.8868   -0.8726 H         1 <0>         0.0635
     22 H3         -0.5289    1.8773    0.9072 H         1 <0>         0.0719
     23 H4          0.5293   -0.3651    0.8851 H         1 <0>         0.0486
     24 H5         -1.0205   -0.3814    0.0098 H         1 <0>         0.0497
     25 H6          1.2883   -2.2882   -0.4233 H         1 <0>         0.0562
     26 H7         -0.2614   -2.3044   -1.2986 H         1 <0>         0.0681
     27 H8          1.4574   -3.3481   -2.6949 H         1 <0>         0.0818
     28 H9          0.9858   -1.7917   -3.4184 H         1 <0>         0.0751
     29 H10         3.1834   -1.3454   -1.7015 H         1 <0>         0.3975
     30 H11         5.3024   -1.1495   -2.6611 H         1 <0>         0.3936
     31 H12         6.4058   -3.8461   -3.9182 H         1 <0>         0.0570
     32 H13         5.0361   -3.7705   -5.0524 H         1 <0>         0.0874
     33 H14         7.0568   -4.6897   -6.1572 H         1 <0>         0.0714
     34 H15         8.7388   -3.5277   -4.7539 H         1 <0>         0.0618
     35 H16         9.0311   -3.2253   -6.4835 H         1 <0>         0.0645
     36 H17         9.2156   -1.1302   -5.1701 H         1 <0>         0.0745
     37 H18         7.1949   -0.2110   -4.0653 H         1 <0>         0.0677
     38 H19         7.6665   -1.7674   -3.3418 H         1 <0>         0.0674
     39 H20         7.6052    0.2134   -6.4931 H         1 <0>         0.0620
     40 H21         8.3691   -1.0407   -7.4991 H         1 <0>         0.0645
     41 H22         5.9232   -0.9486   -7.8964 H         1 <0>         0.0715
     42 H23         7.1084   -3.1193   -8.0755 H         1 <0>         0.0619
     43 H24         5.4464   -3.3461   -7.4802 H         1 <0>         0.0649
     44 H25         4.3741   -1.5859   -6.0680 H         1 <0>         0.0875
     45 H26         5.2723   -0.1050   -5.6574 H         1 <0>         0.0574
@<TRIPOS>BOND
     1    1    2 1
     2    1   20 1
     3    1   21 1
     4    1   22 1
     5    2    3 1
     6    2   23 1
     7    2   24 1
     8    3    4 1
     9    4    5 1
    10    4   25 1
    11    4   26 1
    12    5    6 1
    13    5   27 1
    14    5   28 1
    15    6    7 am
    16    6   29 1
    17    7    8 2
    18    7    9 am
    19    9   10 1
    20    9   30 1
    21   10   15 1
    22   10   19 1
    23   10   11 1
    24   11   12 1
    25   11   31 1
    26   11   32 1
    27   12   18 1
    28   12   13 1
    29   12   33 1
    30   13   14 1
    31   13   34 1
    32   13   35 1
    33   14   15 1
    34   14   16 1
    35   14   36 1
    36   15   37 1
    37   15   38 1
    38   16   17 1
    39   16   39 1
    40   16   40 1
    41   17   18 1
    42   17   19 1
    43   17   41 1
    44   18   42 1
    45   18   43 1
    46   19   44 1
    47   19   45 1
@<TRIPOS>MOLECULE
ZINC43467149
   45    47     0     0     0
SMALL
USER_CHARGES

@<TRIPOS>ATOM
      1 C1         -0.0173    1.4248    0.0099 C.3       1 <0>         0.0312
      2 O1          0.0021   -0.0041    0.0020 O.3       1 <0>        -0.3931
      3 C2          0.6734   -0.5824    1.1231 C.3       1 <0>         0.0640
      4 C3          0.6327   -2.1077    1.0107 C.3       1 <0>        -0.1314
      5 C4          1.3514   -2.7270    2.2110 C.3       1 <0>         0.1423
      6 N1          1.3125   -4.1875    2.1034 N.am      1 <0>        -0.7484
      7 C5          1.8871   -4.9489    3.0555 C.2       1 <0>         0.7060
      8 O2          2.4378   -4.4237    4.0037 O.2       1 <0>        -0.5828
      9 N2          1.8512   -6.2926    2.9564 N.am      1 <0>        -0.7416
     10 C6          2.4759   -7.1203    3.9913 C.3       1 <0>         0.2025
     11 C7          3.9688   -6.7953    4.0721 C.3       1 <0>        -0.1222
     12 C8          4.6211   -7.6598    5.1529 C.3       1 <0>        -0.0828
     13 C9          4.4391   -9.1379    4.8024 C.3       1 <0>        -0.1115
     14 C10         2.9462   -9.4629    4.7217 C.3       1 <0>        -0.0802
     15 C11         2.2939   -8.5985    3.6409 C.3       1 <0>        -0.1146
     16 C12         2.2876   -9.1741    6.0721 C.3       1 <0>        -0.1115
     17 C13         2.4696   -7.6959    6.4226 C.3       1 <0>        -0.0828
     18 C14         3.9625   -7.3710    6.5033 C.3       1 <0>        -0.1092
     19 C15         1.8172   -6.8315    5.3418 C.3       1 <0>        -0.1222
     20 H1          1.0053    1.8021    0.0021 H         1 <0>         0.0429
     21 H2         -0.5445    1.7859   -0.8732 H         1 <0>         0.0878
     22 H3         -0.5275    1.7763    0.9067 H         1 <0>         0.0429
     23 H4          1.7103   -0.2468    1.1385 H         1 <0>         0.0537
     24 H5          0.1775   -0.2725    2.0430 H         1 <0>         0.0537
     25 H6         -0.4042   -2.4434    0.9953 H         1 <0>         0.0782
     26 H7          1.1285   -2.4176    0.0908 H         1 <0>         0.0782
     27 H8          2.3884   -2.3913    2.2264 H         1 <0>         0.0684
     28 H9          0.8556   -2.4171    3.1309 H         1 <0>         0.0684
     29 H10         0.8731   -4.6065    1.3469 H         1 <0>         0.3963
     30 H11         1.4118   -6.7116    2.1999 H         1 <0>         0.3940
     31 H12         4.4380   -7.0011    3.1100 H         1 <0>         0.0574
     32 H13         4.0984   -5.7423    4.3218 H         1 <0>         0.0872
     33 H14         5.6847   -7.4283    5.2104 H         1 <0>         0.0716
     34 H15         4.9083   -9.3437    3.8404 H         1 <0>         0.0621
     35 H16         4.9039   -9.7538    5.5724 H         1 <0>         0.0647
     36 H17         2.8166  -10.5160    4.4720 H         1 <0>         0.0748
     37 H18         1.2303   -8.8300    3.5833 H         1 <0>         0.0678
     38 H19         2.7631   -8.8042    2.6788 H         1 <0>         0.0678
     39 H20         1.2240   -9.4056    6.0145 H         1 <0>         0.0621
     40 H21         2.7523   -9.7899    6.8421 H         1 <0>         0.0647
     41 H22         2.0004   -7.4902    7.3846 H         1 <0>         0.0716
     42 H23         4.4272   -7.9868    7.2733 H         1 <0>         0.0622
     43 H24         4.0921   -6.3179    6.7530 H         1 <0>         0.0649
     44 H25         1.9469   -5.7784    5.5914 H         1 <0>         0.0872
     45 H26         0.7537   -7.0630    5.2842 H         1 <0>         0.0575
@<TRIPOS>BOND
     1    1    2 1
     2    1   20 1
     3    1   21 1
     4    1   22 1
     5    2    3 1
     6    3    4 1
     7    3   23 1
     8    3   24 1
     9    4    5 1
    10    4   25 1
    11    4   26 1
    12    5    6 1
    13    5   27 1
    14    5   28 1
    15    6    7 am
    16    6   29 1
    17    7    8 2
    18    7    9 am
    19    9   10 1
    20    9   30 1
    21   10   15 1
    22   10   19 1
    23   10   11 1
    24   11   12 1
    25   11   31 1
    26   11   32 1
    27   12   18 1
    28   12   13 1
    29   12   33 1
    30   13   14 1
    31   13   34 1
    32   13   35 1
    33   14   15 1
    34   14   16 1
    35   14   36 1
    36   15   37 1
    37   15   38 1
    38   16   17 1
    39   16   39 1
    40   16   40 1
    41   17   18 1
    42   17   19 1
    43   17   41 1
    44   18   42 1
    45   18   43 1
    46   19   44 1
    47   19   45 1
@<TRIPOS>MOLECULE
ZINC10277834
   60    61     0     0     0
SMALL
USER_CHARGES
1,3-bis(4-isopentyloxyphenyl)urea
@<TRIPOS>ATOM
      1 C1          3.1008    7.8322    1.1078 C.3       1 <0>        -0.1477
      2 C2          3.2290    6.3194    1.2976 C.3       1 <0>        -0.0940
      3 C3          3.2094    5.9894    2.7914 C.3       1 <0>        -0.1541
      4 C4          2.0592    5.6176    0.6048 C.3       1 <0>        -0.1146
      5 C5          2.2526    4.1021    0.6871 C.3       1 <0>         0.0570
      6 O1          1.1601    3.4466    0.0400 O.3       1 <0>        -0.3156
      7 C6          1.1781    2.0871    0.0235 C.ar      1 <0>         0.1196
      8 C7          0.1482    1.3875   -0.5880 C.ar      1 <0>        -0.1343
      9 C8          0.1658    0.0067   -0.6051 C.ar      1 <0>        -0.1025
     10 C9          1.2148   -0.6812   -0.0100 C.ar      1 <0>         0.1188
     11 C10         2.2453    0.0197    0.6018 C.ar      1 <0>        -0.0757
     12 C11         2.2264    1.4004    0.6182 C.ar      1 <0>        -0.1906
     13 N1          1.2331   -2.0824   -0.0266 N.am      1 <0>        -0.6794
     14 C12         2.4046   -2.7397   -0.1356 C.2       1 <0>         0.7040
     15 O2          3.4514   -2.1209   -0.1349 O.2       1 <0>        -0.5590
     16 N2          2.4159   -4.0830   -0.2454 N.am      1 <0>        -0.6795
     17 C13         3.6347   -4.7745   -0.2610 C.ar      1 <0>         0.1189
     18 C14         4.7450   -4.2112   -0.8755 C.ar      1 <0>        -0.0755
     19 C15         5.9468   -4.8913   -0.8867 C.ar      1 <0>        -0.1905
     20 C16         6.0423   -6.1413   -0.2930 C.ar      1 <0>         0.1196
     21 C17         4.9322   -6.7068    0.3169 C.ar      1 <0>        -0.1342
     22 C18         3.7310   -6.0257    0.3331 C.ar      1 <0>        -0.1025
     23 O3          7.2248   -6.8125   -0.3086 O.3       1 <0>        -0.3156
     24 C19         8.3265   -6.1709   -0.9540 C.3       1 <0>         0.0570
     25 C20         9.5609   -7.0710   -0.8709 C.3       1 <0>        -0.1146
     26 C21        10.7405   -6.3841   -1.5619 C.3       1 <0>        -0.0940
     27 C22        12.0039   -7.2257   -1.3712 C.3       1 <0>        -0.1476
     28 C23        10.4436   -6.2412   -3.0560 C.3       1 <0>        -0.1541
     29 H1          2.1621    8.1748    1.5434 H         1 <0>         0.0567
     30 H2          3.9342    8.3322    1.6014 H         1 <0>         0.0579
     31 H3          3.1147    8.0674    0.0436 H         1 <0>         0.0565
     32 H4          4.1676    5.9769    0.8621 H         1 <0>         0.0728
     33 H5          3.3007    4.9116    2.9266 H         1 <0>         0.0552
     34 H6          4.0428    6.4894    3.2850 H         1 <0>         0.0578
     35 H7          2.2707    6.3319    3.2270 H         1 <0>         0.0576
     36 H8          2.0202    5.9227   -0.4409 H         1 <0>         0.0744
     37 H9          1.1269    5.8922    1.0984 H         1 <0>         0.0747
     38 H10         2.2916    3.7970    1.7328 H         1 <0>         0.0648
     39 H11         3.1849    3.8276    0.1935 H         1 <0>         0.0618
     40 H12        -0.6655    1.9228   -1.0548 H         1 <0>         0.1356
     41 H13        -0.6363   -0.5378   -1.0809 H         1 <0>         0.1327
     42 H14         3.0614   -0.5149    1.0652 H         1 <0>         0.1437
     43 H15         3.0280    1.9457    1.0942 H         1 <0>         0.1303
     44 H16         0.4026   -2.5791    0.0404 H         1 <0>         0.4080
     45 H17         1.5805   -4.5711   -0.3136 H         1 <0>         0.4080
     46 H18         4.6697   -3.2398   -1.3413 H         1 <0>         0.1434
     47 H19         6.8115   -4.4516   -1.3615 H         1 <0>         0.1303
     48 H20         5.0072   -7.6800    0.7790 H         1 <0>         0.1356
     49 H21         2.8667   -6.4660    0.8080 H         1 <0>         0.1327
     50 H22         8.0792   -5.9891   -1.9999 H         1 <0>         0.0648
     51 H23         8.5348   -5.2220   -0.4596 H         1 <0>         0.0618
     52 H24         9.8082   -7.2529    0.1750 H         1 <0>         0.0744
     53 H25         9.3526   -8.0199   -1.3652 H         1 <0>         0.0747
     54 H26        10.8924   -5.3968   -1.1256 H         1 <0>         0.0728
     55 H27        11.8520   -8.2130   -1.8074 H         1 <0>         0.0567
     56 H28        12.8443   -6.7363   -1.8635 H         1 <0>         0.0580
     57 H29        12.2154   -7.3275   -0.3067 H         1 <0>         0.0565
     58 H30         9.5435   -5.6416   -3.1918 H         1 <0>         0.0552
     59 H31        11.2840   -5.7518   -3.5483 H         1 <0>         0.0578
     60 H32        10.2917   -7.2285   -3.4922 H         1 <0>         0.0576
@<TRIPOS>BOND
     1    1    2 1
     2    1   29 1
     3    1   30 1
     4    1   31 1
     5    2    3 1
     6    2    4 1
     7    2   32 1
     8    3   33 1
     9    3   34 1
    10    3   35 1
    11    4    5 1
    12    4   36 1
    13    4   37 1
    14    5    6 1
    15    5   38 1
    16    5   39 1
    17    6    7 1
    18    7   12 ar
    19    7    8 ar
    20    8    9 ar
    21    8   40 1
    22    9   10 ar
    23    9   41 1
    24   10   11 ar
    25   10   13 1
    26   11   12 ar
    27   11   42 1
    28   12   43 1
    29   13   14 am
    30   13   44 1
    31   14   15 2
    32   14   16 am
    33   16   17 1
    34   16   45 1
    35   17   22 ar
    36   17   18 ar
    37   18   19 ar
    38   18   46 1
    39   19   20 ar
    40   19   47 1
    41   20   21 ar
    42   20   23 1
    43   21   22 ar
    44   21   48 1
    45   22   49 1
    46   23   24 1
    47   24   25 1
    48   24   50 1
    49   24   51 1
    50   25   26 1
    51   25   52 1
    52   25   53 1
    53   26   27 1
    54   26   28 1
    55   26   54 1
    56   27   55 1
    57   27   56 1
    58   27   57 1
    59   28   58 1
    60   28   59 1
    61   28   60 1
@<TRIPOS>MOLECULE
ZINC00395455
   38    39     0     0     0
SMALL
USER_CHARGES
1-cyclohexyl-3-(4-methoxyphenyl)urea
@<TRIPOS>ATOM
      1 C1         -4.3818   -0.6848   -9.1822 C.3       1 <0>         0.0236
      2 O1         -2.9931   -0.3823   -9.3309 O.3       1 <0>        -0.3186
      3 C2         -2.2860   -0.1523   -8.1924 C.ar      1 <0>         0.1080
      4 C3         -0.9335    0.1468   -8.2649 C.ar      1 <0>        -0.1315
      5 C4         -0.2149    0.3810   -7.1091 C.ar      1 <0>        -0.1099
      6 C5         -0.8465    0.3169   -5.8744 C.ar      1 <0>         0.1353
      7 C6         -2.1991    0.0122   -5.8022 C.ar      1 <0>        -0.0824
      8 C7         -2.9177   -0.2165   -6.9591 C.ar      1 <0>        -0.1867
      9 N1         -0.1177    0.5539   -4.7009 N.am      1 <0>        -0.6984
     10 C8         -0.7136    1.1422   -3.6448 C.2       1 <0>         0.7059
     11 O2         -1.8534    1.5545   -3.7417 O.2       1 <0>        -0.5797
     12 N2         -0.0461    1.2734   -2.4813 N.am      1 <0>        -0.7514
     13 C9         -0.6938    1.9128   -1.3333 C.3       1 <0>         0.1668
     14 C10        -0.0495    1.4110   -0.0395 C.3       1 <0>        -0.1245
     15 C11        -0.7259    2.0788    1.1594 C.3       1 <0>        -0.1173
     16 C12        -0.5568    3.5962    1.0605 C.3       1 <0>        -0.1231
     17 C13        -1.2011    4.0979   -0.2333 C.3       1 <0>        -0.1187
     18 C14        -0.5247    3.4302   -1.4322 C.3       1 <0>        -0.1294
     19 H1         -4.8298   -0.8474  -10.1736 H         1 <0>         0.1017
     20 H2         -4.8886    0.1548   -8.6840 H         1 <0>         0.0564
     21 H3         -4.4958   -1.5946   -8.5746 H         1 <0>         0.0560
     22 H4         -0.4422    0.1963   -9.2254 H         1 <0>         0.1342
     23 H5          0.8381    0.6142   -7.1656 H         1 <0>         0.1317
     24 H6         -2.6900   -0.0421   -4.8418 H         1 <0>         0.1366
     25 H7         -3.9709   -0.4492   -6.9034 H         1 <0>         0.1300
     26 H8          0.9406    0.2598   -4.6419 H         1 <0>         0.4267
     27 H9          0.9850    0.9004   -2.3937 H         1 <0>         0.4134
     28 H10        -1.7585    1.6387   -1.3675 H         1 <0>         0.0872
     29 H11        -0.1712    0.3201    0.0316 H         1 <0>         0.0687
     30 H12         1.0217    1.6610   -0.0424 H         1 <0>         0.0688
     31 H13        -1.7971    1.8287    1.1623 H         1 <0>         0.0657
     32 H14        -0.2627    1.7181    2.0896 H         1 <0>         0.0681
     33 H15        -1.0432    4.0763    1.9225 H         1 <0>         0.0646
     34 H16         0.5144    3.8464    1.0577 H         1 <0>         0.0628
     35 H17        -2.2723    3.8477   -0.2304 H         1 <0>         0.0647
     36 H18        -1.0795    5.1888   -0.3044 H         1 <0>         0.0651
     37 H19         0.5465    3.6803   -1.4351 H         1 <0>         0.0628
     38 H20        -0.9880    3.7909   -2.3624 H         1 <0>         0.0669
@<TRIPOS>BOND
     1    1    2 1
     2    1   19 1
     3    1   20 1
     4    1   21 1
     5    2    3 1
     6    3    8 ar
     7    3    4 ar
     8    4    5 ar
     9    4   22 1
    10    5    6 ar
    11    5   23 1
    12    6    7 ar
    13    6    9 1
    14    7    8 ar
    15    7   24 1
    16    8   25 1
    17    9   10 am
    18    9   26 1
    19   10   11 2
    20   10   12 am
    21   12   13 1
    22   12   27 1
    23   13   18 1
    24   13   14 1
    25   13   28 1
    26   14   15 1
    27   14   29 1
    28   14   30 1
    29   15   16 1
    30   15   31 1
    31   15   32 1
    32   16   17 1
    33   16   33 1
    34   16   34 1
    35   17   18 1
    36   17   35 1
    37   17   36 1
    38   18   37 1
    39   18   38 1
@<TRIPOS>MOLECULE
ZINC00201053
   34    35     0     0     0
SMALL
USER_CHARGES

@<TRIPOS>ATOM
      1 C1          0.0701    1.2314    0.5929 C.ar      1 <0>        -0.0871
      2 C2          1.2559    1.9401    0.5945 C.ar      1 <0>        -0.1441
      3 C3          2.3816    1.4093   -0.0210 C.ar      1 <0>         0.1758
      4 C4          2.3121    0.1666   -0.6369 C.ar      1 <0>        -0.1136
      5 C5          1.1230   -0.5379   -0.6354 C.ar      1 <0>        -0.0162
      6 C6          0.0028   -0.0054   -0.0207 C.ar      1 <0>        -0.1279
      7 Cl1         1.0341   -2.0913   -1.4053 Cl        1 <0>        -0.0644
      8 N1          3.5839    2.1254   -0.0212 N.am      1 <0>        -0.6865
      9 C7          4.7585    1.4703    0.0659 C.2       1 <0>         0.7034
     10 O1          4.7785    0.2546    0.0598 O.2       1 <0>        -0.5674
     11 N2          5.9110    2.1628    0.1597 N.am      1 <0>        -0.7365
     12 C8          7.1878    1.4507    0.2543 C.3       1 <0>         0.1625
     13 C9          7.4602    1.0839    1.7145 C.3       1 <0>        -0.1301
     14 C10         8.7936    0.3402    1.8133 C.3       1 <0>        -0.1178
     15 C11         9.9183    1.2386    1.2948 C.3       1 <0>        -0.1230
     16 C12         9.6459    1.6054   -0.1654 C.3       1 <0>        -0.1163
     17 C13         8.3125    2.3491   -0.2642 C.3       1 <0>        -0.1264
     18 H1         -0.8044    1.6422    1.0756 H         1 <0>         0.1372
     19 H2          1.3072    2.9065    1.0739 H         1 <0>         0.1315
     20 H3          3.1859   -0.2487   -1.1168 H         1 <0>         0.1520
     21 H4         -0.9255   -0.5574   -0.0206 H         1 <0>         0.1348
     22 H5          3.5719    3.0933   -0.0839 H         1 <0>         0.4093
     23 H6          5.8951    3.1326    0.1646 H         1 <0>         0.3972
     24 H7          7.1425    0.5421   -0.3462 H         1 <0>         0.0908
     25 H8          7.5055    1.9924    2.3150 H         1 <0>         0.0629
     26 H9          6.6590    0.4438    2.0839 H         1 <0>         0.0682
     27 H10         8.9877    0.0789    2.8536 H         1 <0>         0.0658
     28 H11         8.7483   -0.5684    1.2129 H         1 <0>         0.0654
     29 H12         9.9637    2.1472    1.8953 H         1 <0>         0.0627
     30 H13        10.8683    0.7088    1.3652 H         1 <0>         0.0651
     31 H14        10.4471    2.2454   -0.5348 H         1 <0>         0.0686
     32 H15         9.6006    0.6968   -0.7659 H         1 <0>         0.0663
     33 H16         8.1184    2.6104   -1.3045 H         1 <0>         0.0693
     34 H17         8.3578    3.2576    0.3362 H         1 <0>         0.0683
@<TRIPOS>BOND
     1    1    6 ar
     2    1    2 ar
     3    1   18 1
     4    2    3 ar
     5    2   19 1
     6    3    4 ar
     7    3    8 1
     8    4    5 ar
     9    4   20 1
    10    5    6 ar
    11    5    7 1
    12    6   21 1
    13    8    9 am
    14    8   22 1
    15    9   10 2
    16    9   11 am
    17   11   12 1
    18   11   23 1
    19   12   17 1
    20   12   13 1
    21   12   24 1
    22   13   14 1
    23   13   25 1
    24   13   26 1
    25   14   15 1
    26   14   27 1
    27   14   28 1
    28   15   16 1
    29   15   29 1
    30   15   30 1
    31   16   17 1
    32   16   31 1
    33   16   32 1
    34   17   33 1
    35   17   34 1
@<TRIPOS>MOLECULE
ZINC00142289
   39    40     0     0     0
SMALL
USER_CHARGES
N-cyclohexyl-2-(4-methoxyphenyl)-acetamide
@<TRIPOS>ATOM
      1 C1         -4.4103   -0.9393   -9.2956 C.3       1 <0>         0.0268
      2 O1         -3.7008    0.2872   -9.1098 O.3       1 <0>        -0.3182
      3 C2         -2.8180    0.3390   -8.0778 C.ar      1 <0>         0.1280
      4 C3         -2.0950    1.4988   -7.8396 C.ar      1 <0>        -0.1499
      5 C4         -1.1986    1.5491   -6.7897 C.ar      1 <0>        -0.0649
      6 C5         -1.0217    0.4449   -5.9766 C.ar      1 <0>        -0.1064
      7 C6         -1.7370   -0.7140   -6.2154 C.ar      1 <0>        -0.0646
      8 C7         -2.6387   -0.7676   -7.2606 C.ar      1 <0>        -0.2063
      9 C8         -0.0432    0.5026   -4.8320 C.3       1 <0>        -0.0974
     10 C9         -0.7486    0.9886   -3.5921 C.2       1 <0>         0.5127
     11 O2         -1.9296    1.2613   -3.6338 O.2       1 <0>        -0.5271
     12 N1         -0.0670    1.1202   -2.4368 N.am      1 <0>        -0.7317
     13 C10        -0.7527    1.5927   -1.2315 C.3       1 <0>         0.1450
     14 C11        -0.0127    1.0858    0.0080 C.3       1 <0>        -0.1261
     15 C12        -0.7288    1.5792    1.2668 C.3       1 <0>        -0.1168
     16 C13        -0.7496    3.1091    1.2752 C.3       1 <0>        -0.1225
     17 C14        -1.4896    3.6159    0.0357 C.3       1 <0>        -0.1181
     18 C15        -0.7734    3.1225   -1.2231 C.3       1 <0>        -0.1287
     19 H1         -4.9921   -1.1616   -8.4010 H         1 <0>         0.0559
     20 H2         -5.0799   -0.8457  -10.1505 H         1 <0>         0.1008
     21 H3         -3.7001   -1.7460   -9.4769 H         1 <0>         0.0557
     22 H4         -2.2326    2.3615   -8.4746 H         1 <0>         0.1311
     23 H5         -0.6358    2.4519   -6.6036 H         1 <0>         0.1268
     24 H6         -1.5936   -1.5768   -5.5818 H         1 <0>         0.1222
     25 H7         -3.2005   -1.6716   -7.4440 H         1 <0>         0.1281
     26 H8          0.7673    1.1876   -5.0810 H         1 <0>         0.1025
     27 H9          0.3643   -0.4922   -4.6518 H         1 <0>         0.1017
     28 H10         0.8776    0.9021   -2.4035 H         1 <0>         0.3994
     29 H11        -1.7753    1.2154   -1.2238 H         1 <0>         0.0871
     30 H12         0.0021   -0.0041    0.0020 H         1 <0>         0.0682
     31 H13         1.0099    1.4631    0.0003 H         1 <0>         0.0679
     32 H14        -1.7514    1.2020    1.2746 H         1 <0>         0.0651
     33 H15        -0.2017    1.2182    2.1499 H         1 <0>         0.0676
     34 H16         0.2730    3.4864    1.2675 H         1 <0>         0.0627
     35 H17        -1.2598    3.4606    2.1720 H         1 <0>         0.0644
     36 H18        -1.5044    4.7058    0.0417 H         1 <0>         0.0652
     37 H19        -2.5122    3.2386    0.0434 H         1 <0>         0.0643
     38 H20         0.2491    3.4998   -1.2308 H         1 <0>         0.0630
     39 H21        -1.3006    3.4836   -2.1062 H         1 <0>         0.0668
@<TRIPOS>BOND
     1    1    2 1
     2    1   19 1
     3    1   20 1
     4    1   21 1
     5    2    3 1
     6    3    8 ar
     7    3    4 ar
     8    4    5 ar
     9    4   22 1
    10    5    6 ar
    11    5   23 1
    12    6    7 ar
    13    6    9 1
    14    7    8 ar
    15    7   24 1
    16    8   25 1
    17    9   10 1
    18    9   26 1
    19    9   27 1
    20   10   11 2
    21   10   12 am
    22   12   13 1
    23   12   28 1
    24   13   18 1
    25   13   14 1
    26   13   29 1
    27   14   15 1
    28   14   30 1
    29   14   31 1
    30   15   16 1
    31   15   32 1
    32   15   33 1
    33   16   17 1
    34   16   34 1
    35   16   35 1
    36   17   18 1
    37   17   36 1
    38   17   37 1
    39   18   38 1
    40   18   39 1
@<TRIPOS>MOLECULE
ZINC00451523
   39    40     0     0     0
SMALL
USER_CHARGES
2-cyclohexyl-N-(4-methoxyphenyl)acetamide
@<TRIPOS>ATOM
      1 C1         -4.9151    2.3438   -9.1713 C.3       1 <0>         0.0233
      2 O1         -3.5047    2.2430   -9.3772 O.3       1 <0>        -0.3179
      3 C2         -2.7389    1.9773   -8.2856 C.ar      1 <0>         0.1110
      4 C3         -1.3621    1.8663   -8.4148 C.ar      1 <0>        -0.1325
      5 C4         -0.5838    1.5965   -7.3066 C.ar      1 <0>        -0.1071
      6 C5         -1.1794    1.4367   -6.0626 C.ar      1 <0>         0.1138
      7 C6         -2.5579    1.5427   -5.9348 C.ar      1 <0>        -0.0824
      8 C7         -3.3346    1.8178   -7.0430 C.ar      1 <0>        -0.1879
      9 N1         -0.3903    1.1630   -4.9376 N.am      1 <0>        -0.6874
     10 C8         -0.7515    1.6382   -3.7293 C.2       1 <0>         0.5133
     11 O2         -1.7051    2.3812   -3.6301 O.2       1 <0>        -0.5200
     12 C9          0.0294    1.2465   -2.5014 C.3       1 <0>        -0.1376
     13 C10        -0.5843    1.9177   -1.2710 C.3       1 <0>        -0.0710
     14 C11         0.1292    1.4232   -0.0111 C.3       1 <0>        -0.1155
     15 C12        -0.4846    2.0944    1.2192 C.3       1 <0>        -0.1200
     16 C13        -0.3251    3.6118    1.1052 C.3       1 <0>        -0.1218
     17 C14        -1.0386    4.1063   -0.1547 C.3       1 <0>        -0.1186
     18 C15        -0.4249    3.4351   -1.3851 C.3       1 <0>        -0.1210
     19 H1         -5.4109    2.5598  -10.1291 H         1 <0>         0.1024
     20 H2         -5.1245    3.1552   -8.4587 H         1 <0>         0.0566
     21 H3         -5.2955    1.3939   -8.7675 H         1 <0>         0.0563
     22 H4         -0.8990    1.9906   -9.3825 H         1 <0>         0.1346
     23 H5          0.4880    1.5101   -7.4073 H         1 <0>         0.1325
     24 H6         -3.0222    1.4142   -4.9682 H         1 <0>         0.1356
     25 H7         -4.4064    1.9047   -6.9429 H         1 <0>         0.1306
     26 H8          0.5241    0.5602   -5.0406 H         1 <0>         0.4331
     27 H9         -0.0046    0.1539   -2.3783 H         1 <0>         0.0973
     28 H10         1.0747    1.5705   -2.6128 H         1 <0>         0.0962
     29 H11        -1.6531    1.6648   -1.2102 H         1 <0>         0.0784
     30 H12         0.0146    0.3323    0.0709 H         1 <0>         0.0621
     31 H13         1.1980    1.6761   -0.0718 H         1 <0>         0.0630
     32 H14        -1.5534    1.8416    1.2798 H         1 <0>         0.0619
     33 H15         0.0282    1.7388    2.1251 H         1 <0>         0.0619
     34 H16        -0.7663    4.0943    1.9898 H         1 <0>         0.0600
     35 H17         0.7437    3.8646    1.0445 H         1 <0>         0.0604
     36 H18        -2.1074    3.8534   -0.0939 H         1 <0>         0.0615
     37 H19        -0.9240    5.1972   -0.2367 H         1 <0>         0.0597
     38 H20         0.6439    3.6879   -1.4459 H         1 <0>         0.0545
     39 H21        -0.9379    3.7906   -2.2909 H         1 <0>         0.0807
@<TRIPOS>BOND
     1    1    2 1
     2    1   19 1
     3    1   20 1
     4    1   21 1
     5    2    3 1
     6    3    8 ar
     7    3    4 ar
     8    4    5 ar
     9    4   22 1
    10    5    6 ar
    11    5   23 1
    12    6    7 ar
    13    6    9 1
    14    7    8 ar
    15    7   24 1
    16    8   25 1
    17    9   10 am
    18    9   26 1
    19   10   11 2
    20   10   12 1
    21   12   13 1
    22   12   27 1
    23   12   28 1
    24   13   18 1
    25   13   14 1
    26   13   29 1
    27   14   15 1
    28   14   30 1
    29   14   31 1
    30   15   16 1
    31   15   32 1
    32   15   33 1
    33   16   17 1
    34   16   34 1
    35   16   35 1
    36   17   18 1
    37   17   36 1
    38   17   37 1
    39   18   38 1
    40   18   39 1
@<TRIPOS>MOLECULE
ZINC00365623
   41    42     0     0     0
SMALL
USER_CHARGES
N-cyclohexyl-4-phenyl-butanamide
@<TRIPOS>ATOM
      1 C1         -2.0785    2.5007   -3.4529 C.ar      1 <0>        -0.1254
      2 C2         -1.0663    3.2585   -2.8942 C.ar      1 <0>        -0.1183
      3 C3         -0.3980    2.8008   -1.7740 C.ar      1 <0>        -0.1178
      4 C4         -0.7416    1.5850   -1.2129 C.ar      1 <0>        -0.0813
      5 C5         -1.7499    0.8246   -1.7750 C.ar      1 <0>        -0.1178
      6 C6         -2.4217    1.2848   -2.8921 C.ar      1 <0>        -0.1183
      7 C7         -0.0127    1.0858    0.0080 C.3       1 <0>        -0.0825
      8 C8         -0.7288    1.5792    1.2668 C.3       1 <0>        -0.0987
      9 C9          0.0111    1.0724    2.5063 C.3       1 <0>        -0.1418
     10 C10        -0.6942    1.5584    3.7462 C.2       1 <0>         0.5124
     11 O1         -1.6907    2.2428    3.6481 O.2       1 <0>        -0.5425
     12 N1         -0.2177    1.2325    4.9641 N.am      1 <0>        -0.7431
     13 C11        -0.9034    1.7050    6.1694 C.3       1 <0>         0.1468
     14 C12        -0.4138    3.1125    6.5162 C.3       1 <0>        -0.1278
     15 C13        -1.1300    3.6059    7.7750 C.3       1 <0>        -0.1190
     16 C14        -0.8268    2.6594    8.9383 C.3       1 <0>        -0.1227
     17 C15        -1.3164    1.2520    8.5915 C.3       1 <0>        -0.1179
     18 C16        -0.6003    0.7586    7.3327 C.3       1 <0>        -0.1244
     19 H1         -2.6009    2.8585   -4.3278 H         1 <0>         0.1208
     20 H2         -0.7979    4.2083   -3.3326 H         1 <0>         0.1214
     21 H3          0.3927    3.3928   -1.3375 H         1 <0>         0.1206
     22 H4         -2.0153   -0.1273   -1.3392 H         1 <0>         0.1206
     23 H5         -3.2122    0.6925   -3.3288 H         1 <0>         0.1214
     24 H6          0.0022   -0.0141    0.0019 H         1 <0>         0.0735
     25 H7          1.0193    1.4665    0.0002 H         1 <0>         0.0734
     26 H8         -0.7437    2.6791    1.2728 H         1 <0>         0.0714
     27 H9         -1.7608    1.1985    1.2746 H         1 <0>         0.0715
     28 H10         0.0260   -0.0275    2.5003 H         1 <0>         0.0938
     29 H11         1.0431    1.4531    2.4985 H         1 <0>         0.0938
     30 H12         0.6860    0.6117    5.0531 H         1 <0>         0.4178
     31 H13        -1.9807    1.7133    5.9473 H         1 <0>         0.0854
     32 H14         0.6710    3.0892    6.6969 H         1 <0>         0.0631
     33 H15        -0.6317    3.7930    5.6798 H         1 <0>         0.0657
     34 H16        -0.7780    4.6178    8.0243 H         1 <0>         0.0650
     35 H17        -2.2148    3.6292    7.5944 H         1 <0>         0.0643
     36 H18         0.2580    2.6361    9.1189 H         1 <0>         0.0627
     37 H19        -1.3416    3.0141    9.8434 H         1 <0>         0.0645
     38 H20        -1.0985    0.5715    9.4278 H         1 <0>         0.0676
     39 H21        -2.4012    1.2753    8.4109 H         1 <0>         0.0651
     40 H22        -0.9523   -0.2533    7.0834 H         1 <0>         0.0680
     41 H23         0.4845    0.7353    7.5133 H         1 <0>         0.0685
@<TRIPOS>BOND
     1    1    6 ar
     2    1    2 ar
     3    1   19 1
     4    2    3 ar
     5    2   20 1
     6    3    4 ar
     7    3   21 1
     8    4    5 ar
     9    4    7 1
    10    5    6 ar
    11    5   22 1
    12    6   23 1
    13    7    8 1
    14    7   24 1
    15    7   25 1
    16    8    9 1
    17    8   26 1
    18    8   27 1
    19    9   10 1
    20    9   28 1
    21    9   29 1
    22   10   11 2
    23   10   12 am
    24   12   13 1
    25   12   30 1
    26   13   18 1
    27   13   14 1
    28   13   31 1
    29   14   15 1
    30   14   32 1
    31   14   33 1
    32   15   16 1
    33   15   34 1
    34   15   35 1
    35   16   17 1
    36   16   36 1
    37   16   37 1
    38   17   18 1
    39   17   38 1
    40   17   39 1
    41   18   40 1
    42   18   41 1
@<TRIPOS>MOLECULE
ZINC00858629
   41    42     0     0     0
SMALL
USER_CHARGES
2-cyclohexyl-N-phenethyl-acetamide
@<TRIPOS>ATOM
      1 C1         -2.1865    2.5890    8.4253 C.ar      1 <0>        -0.1210
      2 C2         -2.5408    1.3793    7.8579 C.ar      1 <0>        -0.1180
      3 C3         -1.8940    0.9337    6.7203 C.ar      1 <0>        -0.1144
      4 C4         -0.8927    1.6976    6.1505 C.ar      1 <0>        -0.0846
      5 C5         -0.5345    2.9046    6.7212 C.ar      1 <0>        -0.1144
      6 C6         -1.1848    3.3527    7.8558 C.ar      1 <0>        -0.1180
      7 C7         -0.1873    1.2116    4.9106 C.3       1 <0>        -0.0909
      8 C8         -0.9273    1.7184    3.6711 C.3       1 <0>         0.1267
      9 N1         -0.2416    1.2460    2.4658 N.am      1 <0>        -0.7462
     10 C9         -0.7181    1.5718    1.2479 C.2       1 <0>         0.5122
     11 O1         -1.7145    2.2562    1.1498 O.2       1 <0>        -0.5374
     12 C10        -0.0127    1.0858    0.0080 C.3       1 <0>        -0.1384
     13 C11        -0.7527    1.5927   -1.2315 C.3       1 <0>        -0.0710
     14 C12        -2.1465    0.9639   -1.2860 C.3       1 <0>        -0.1203
     15 C13        -2.8865    1.4708   -2.5256 C.3       1 <0>        -0.1188
     16 C14        -2.1028    1.0835   -3.7813 C.3       1 <0>        -0.1216
     17 C15        -0.7090    1.7122   -3.7268 C.3       1 <0>        -0.1201
     18 C16         0.0310    1.2054   -2.4872 C.3       1 <0>        -0.1155
     19 H1         -2.6920    2.9373    9.3139 H         1 <0>         0.1224
     20 H2         -3.3231    0.7825    8.3031 H         1 <0>         0.1230
     21 H3         -2.1708   -0.0114    6.2770 H         1 <0>         0.1217
     22 H4          0.2508    3.4993    6.2785 H         1 <0>         0.1217
     23 H5         -0.9078    4.2976    8.2993 H         1 <0>         0.1230
     24 H6          0.8447    1.5924    4.9028 H         1 <0>         0.0801
     25 H7         -0.1723    0.1117    4.9046 H         1 <0>         0.0801
     26 H8         -1.9593    1.3376    3.6789 H         1 <0>         0.0667
     27 H9         -0.9423    2.8183    3.6771 H         1 <0>         0.0667
     28 H10         0.6622    0.6254    2.5548 H         1 <0>         0.4204
     29 H11         1.0193    1.4665    0.0002 H         1 <0>         0.0932
     30 H12         0.0022   -0.0141    0.0019 H         1 <0>         0.0930
     31 H13        -0.8461    2.6875   -1.1807 H         1 <0>         0.0776
     32 H14        -2.0531   -0.1309   -1.3368 H         1 <0>         0.0536
     33 H15        -2.7099    1.2423   -0.3832 H         1 <0>         0.0808
     34 H16        -3.8886    1.0188   -2.5648 H         1 <0>         0.0593
     35 H17        -2.9799    2.5657   -2.4748 H         1 <0>         0.0615
     36 H18        -2.0094   -0.0114   -3.8321 H         1 <0>         0.0601
     37 H19        -2.6348    1.4479   -4.6725 H         1 <0>         0.0597
     38 H20        -0.1456    1.4337   -4.6296 H         1 <0>         0.0614
     39 H21        -0.8023    2.8071   -3.6761 H         1 <0>         0.0619
     40 H22         1.0331    1.6575   -2.4480 H         1 <0>         0.0614
     41 H23         0.1244    0.1106   -2.5380 H         1 <0>         0.0623
@<TRIPOS>BOND
     1    1    6 ar
     2    1    2 ar
     3    1   19 1
     4    2    3 ar
     5    2   20 1
     6    3    4 ar
     7    3   21 1
     8    4    5 ar
     9    4    7 1
    10    5    6 ar
    11    5   22 1
    12    6   23 1
    13    7    8 1
    14    7   24 1
    15    7   25 1
    16    8    9 1
    17    8   26 1
    18    8   27 1
    19    9   10 am
    20    9   28 1
    21   10   11 2
    22   10   12 1
    23   12   13 1
    24   12   29 1
    25   12   30 1
    26   13   18 1
    27   13   14 1
    28   13   31 1
    29   14   15 1
    30   14   32 1
    31   14   33 1
    32   15   16 1
    33   15   34 1
    34   15   35 1
    35   16   17 1
    36   16   36 1
    37   16   37 1
    38   17   18 1
    39   17   38 1
    40   17   39 1
    41   18   40 1
    42   18   41 1
@<TRIPOS>MOLECULE
ZINC00182146
   40    41     0     0     0
SMALL
USER_CHARGES

@<TRIPOS>ATOM
      1 C1         -0.0167    1.3781    0.0096 C.ar      1 <0>        -0.1206
      2 C2          1.1709    2.0855    0.0021 C.ar      1 <0>        -0.1182
      3 C3          2.3773    1.4107   -0.0130 C.ar      1 <0>        -0.1136
      4 C4          2.3960    0.0285   -0.0201 C.ar      1 <0>        -0.0843
      5 C5          1.2084   -0.6789   -0.0117 C.ar      1 <0>        -0.1136
      6 C6          0.0021   -0.0041    0.0020 C.ar      1 <0>        -0.1181
      7 C7          3.7112   -0.7071   -0.0376 C.3       1 <0>        -0.0909
      8 C8          4.1714   -0.9633    1.3989 C.3       1 <0>         0.1441
      9 N1          5.4498   -1.6784    1.3820 N.am      1 <0>        -0.7489
     10 C9          6.0502   -2.0132    2.5413 C.2       1 <0>         0.7033
     11 O1          5.5307   -1.7217    3.6012 O.2       1 <0>        -0.5876
     12 N2          7.2263   -2.6711    2.5257 N.am      1 <0>        -0.7436
     13 C10         7.8789   -3.0350    3.7858 C.3       1 <0>         0.1634
     14 C11         8.7132   -1.8547    4.2875 C.3       1 <0>        -0.1297
     15 C12         9.3947   -2.2348    5.6036 C.3       1 <0>        -0.1179
     16 C13        10.3054   -3.4430    5.3760 C.3       1 <0>        -0.1226
     17 C14         9.4711   -4.6232    4.8743 C.3       1 <0>        -0.1163
     18 C15         8.7896   -4.2432    3.5582 C.3       1 <0>        -0.1262
     19 H1         -0.9591    1.9053    0.0259 H         1 <0>         0.1223
     20 H2          1.1563    3.1654    0.0076 H         1 <0>         0.1230
     21 H3          3.3051    1.9634   -0.0196 H         1 <0>         0.1221
     22 H4          1.2231   -1.7588   -0.0176 H         1 <0>         0.1222
     23 H5         -0.9258   -0.5567    0.0082 H         1 <0>         0.1230
     24 H6          3.5884   -1.6586   -0.5549 H         1 <0>         0.0795
     25 H7          4.4573   -0.1052   -0.5563 H         1 <0>         0.0795
     26 H8          4.2941   -0.0118    1.9163 H         1 <0>         0.0681
     27 H9          3.4252   -1.5652    1.9176 H         1 <0>         0.0682
     28 H10         5.8643   -1.9110    0.5363 H         1 <0>         0.3958
     29 H11         7.6408   -2.9037    1.6800 H         1 <0>         0.3946
     30 H12         7.1211   -3.2859    4.5281 H         1 <0>         0.0881
     31 H13         9.4709   -1.6038    3.5452 H         1 <0>         0.0618
     32 H14         8.0643   -0.9940    4.4497 H         1 <0>         0.0675
     33 H15         9.9891   -1.3939    5.9610 H         1 <0>         0.0649
     34 H16         8.6370   -2.4857    6.3459 H         1 <0>         0.0649
     35 H17        11.0631   -3.1920    4.6337 H         1 <0>         0.0624
     36 H18        10.7909   -3.7137    6.3136 H         1 <0>         0.0644
     37 H19        10.1199   -5.4840    4.7121 H         1 <0>         0.0676
     38 H20         8.7134   -4.8741    5.6166 H         1 <0>         0.0658
     39 H21         8.1952   -5.0841    3.2008 H         1 <0>         0.0683
     40 H22         9.5473   -3.9923    2.8159 H         1 <0>         0.0673
@<TRIPOS>BOND
     1    1    6 ar
     2    1    2 ar
     3    1   19 1
     4    2    3 ar
     5    2   20 1
     6    3    4 ar
     7    3   21 1
     8    4    5 ar
     9    4    7 1
    10    5    6 ar
    11    5   22 1
    12    6   23 1
    13    7    8 1
    14    7   24 1
    15    7   25 1
    16    8    9 1
    17    8   26 1
    18    8   27 1
    19    9   10 am
    20    9   28 1
    21   10   11 2
    22   10   12 am
    23   12   13 1
    24   12   29 1
    25   13   18 1
    26   13   14 1
    27   13   30 1
    28   14   15 1
    29   14   31 1
    30   14   32 1
    31   15   16 1
    32   15   33 1
    33   15   34 1
    34   16   17 1
    35   16   35 1
    36   16   36 1
    37   17   18 1
    38   17   37 1
    39   17   38 1
    40   18   39 1
    41   18   40 1
@<TRIPOS>MOLECULE
ZINC36330618
   60    63     0     0     0
SMALL
USER_CHARGES

@<TRIPOS>ATOM
      1 C1         -0.0187    1.5258    0.0104 C.3       1 <0>        -0.1565
      2 C2          0.0021   -0.0041    0.0020 C.3       1 <0>        -0.1512
      3 C3         -1.4333   -0.5336    0.0129 C.3       1 <0>        -0.0109
      4 N1         -1.4134   -2.0025    0.0048 N.4       1 <0>        -0.3840
      5 C4         -0.8017   -2.4889    1.2473 C.3       1 <0>        -0.0095
      6 C5         -0.7046   -4.0155    1.2089 C.3       1 <0>        -0.1394
      7 C6         -2.1096   -4.6074    1.0640 C.3       1 <0>        -0.1128
      8 C7         -2.7662   -4.0357   -0.1959 C.3       1 <0>        -0.1440
      9 C8         -2.7869   -2.5084   -0.1055 C.3       1 <0>        -0.0056
     10 C9         -2.0136   -6.1298    0.9451 C.3       1 <0>         0.1445
     11 N2         -3.3613   -6.7040    0.9266 N.am      1 <0>        -0.7544
     12 C10        -3.5239   -8.0382    0.8271 C.2       1 <0>         0.7054
     13 O1         -2.5522   -8.7653    0.7527 O.2       1 <0>        -0.5760
     14 N3         -4.7637   -8.5665    0.8101 N.am      1 <0>        -0.7377
     15 C11        -4.9405  -10.0168    0.7020 C.3       1 <0>         0.2013
     16 C12        -4.3099  -10.5117   -0.6012 C.3       1 <0>        -0.1199
     17 C13        -4.4946  -12.0263   -0.7141 C.3       1 <0>        -0.0832
     18 C14        -5.9878  -12.3597   -0.7113 C.3       1 <0>        -0.1127
     19 C15        -6.6184  -11.8648    0.5919 C.3       1 <0>        -0.0808
     20 C16        -6.4338  -10.3502    0.7048 C.3       1 <0>        -0.1140
     21 C17        -5.9404  -12.5511    1.7794 C.3       1 <0>        -0.1129
     22 C18        -4.4472  -12.2178    1.7766 C.3       1 <0>        -0.0833
     23 C19        -3.8166  -12.7127    0.4734 C.3       1 <0>        -0.1101
     24 C20        -4.2625  -10.7032    1.8895 C.3       1 <0>        -0.1208
     25 H1          1.0039    1.9031    0.0027 H         1 <0>         0.0776
     26 H2         -0.5459    1.8868   -0.8726 H         1 <0>         0.0671
     27 H3         -0.5289    1.8773    0.9072 H         1 <0>         0.0668
     28 H4          0.5123   -0.3556   -0.8948 H         1 <0>         0.0860
     29 H5          0.5293   -0.3651    0.8851 H         1 <0>         0.0861
     30 H6         -1.9435   -0.1821    0.9097 H         1 <0>         0.1290
     31 H7         -1.9605   -0.1726   -0.8702 H         1 <0>         0.1306
     32 H8          0.1969   -2.0643    1.3506 H         1 <0>         0.1344
     33 H9         -1.4142   -2.1855    2.0963 H         1 <0>         0.1294
     34 H10        -0.0920   -4.3200    0.3603 H         1 <0>         0.0933
     35 H11        -0.2519   -4.3748    2.1330 H         1 <0>         0.1172
     36 H12        -2.7072   -4.3458    1.9372 H         1 <0>         0.0963
     37 H13        -2.1964   -4.3407   -1.0737 H         1 <0>         0.0926
     38 H14        -3.7870   -4.4095   -0.2759 H         1 <0>         0.1107
     39 H15        -3.3571   -2.2045    0.7724 H         1 <0>         0.1287
     40 H16        -3.2539   -2.0981   -1.0008 H         1 <0>         0.1313
     41 H17        -1.4950   -6.3902    0.0224 H         1 <0>         0.0724
     42 H18        -1.4612   -6.5266    1.7968 H         1 <0>         0.0762
     43 H19        -4.1365   -6.1240    0.9860 H         1 <0>         0.3933
     44 H20        -5.5389   -7.9865    0.8695 H         1 <0>         0.3936
     45 H21        -4.7930  -10.0227   -1.4472 H         1 <0>         0.0567
     46 H22        -3.2461  -10.2742   -0.6032 H         1 <0>         0.0852
     47 H23        -4.0453  -12.3789   -1.6425 H         1 <0>         0.0730
     48 H24        -6.4709  -11.8707   -1.5573 H         1 <0>         0.0624
     49 H25        -6.1194  -13.4387   -0.7918 H         1 <0>         0.0673
     50 H26        -7.6822  -12.1022    0.5939 H         1 <0>         0.0770
     51 H27        -6.8830   -9.9976    1.6333 H         1 <0>         0.0680
     52 H28        -6.9168   -9.8612   -0.1412 H         1 <0>         0.0675
     53 H29        -6.3896  -12.1986    2.7078 H         1 <0>         0.0628
     54 H30        -6.0719  -13.6302    1.6989 H         1 <0>         0.0673
     55 H31        -3.9641  -12.7068    2.6225 H         1 <0>         0.0734
     56 H32        -3.9481  -13.7917    0.3929 H         1 <0>         0.0648
     57 H33        -2.7528  -12.4752    0.4714 H         1 <0>         0.0645
     58 H34        -3.1987  -10.4657    1.8875 H         1 <0>         0.0855
     59 H35        -4.7117  -10.3506    2.8179 H         1 <0>         0.0575
     60 H36        -0.8726   -2.3262   -0.7831 H         1 <0>         0.4228
@<TRIPOS>BOND
     1    1    2 1
     2    1   25 1
     3    1   26 1
     4    1   27 1
     5    2    3 1
     6    2   28 1
     7    2   29 1
     8    3    4 1
     9    3   30 1
    10    3   31 1
    11    4    9 1
    12    4    5 1
    13    4   60 1
    14    5    6 1
    15    5   32 1
    16    5   33 1
    17    6    7 1
    18    6   34 1
    19    6   35 1
    20    7    8 1
    21    7   10 1
    22    7   36 1
    23    8    9 1
    24    8   37 1
    25    8   38 1
    26    9   39 1
    27    9   40 1
    28   10   11 1
    29   10   41 1
    30   10   42 1
    31   11   12 am
    32   11   43 1
    33   12   13 2
    34   12   14 am
    35   14   15 1
    36   14   44 1
    37   15   20 1
    38   15   24 1
    39   15   16 1
    40   16   17 1
    41   16   45 1
    42   16   46 1
    43   17   23 1
    44   17   18 1
    45   17   47 1
    46   18   19 1
    47   18   48 1
    48   18   49 1
    49   19   20 1
    50   19   21 1
    51   19   50 1
    52   20   51 1
    53   20   52 1
    54   21   22 1
    55   21   53 1
    56   21   54 1
    57   22   23 1
    58   22   24 1
    59   22   55 1
    60   23   56 1
    61   23   57 1
    62   24   58 1
    63   24   59 1
@<TRIPOS>MOLECULE
ZINC36330629
   57    60     0     0     0
SMALL
USER_CHARGES

@<TRIPOS>ATOM
      1 C1         -0.0187    1.5258    0.0104 C.3       1 <0>        -0.1567
      2 C2          0.0021   -0.0041    0.0020 C.3       1 <0>        -0.1508
      3 C3         -1.4333   -0.5336    0.0129 C.3       1 <0>        -0.0114
      4 N1         -1.4134   -2.0025    0.0048 N.4       1 <0>        -0.3849
      5 C4         -0.8017   -2.4889    1.2473 C.3       1 <0>        -0.0055
      6 C5         -0.7046   -4.0155    1.2089 C.3       1 <0>        -0.1557
      7 C6         -2.1096   -4.6074    1.0640 C.3       1 <0>         0.1570
      8 C7         -2.7662   -4.0357   -0.1959 C.3       1 <0>        -0.1612
      9 C8         -2.7869   -2.5084   -0.1055 C.3       1 <0>        -0.0023
     10 N2         -2.0177   -6.0651    0.9502 N.am      1 <0>        -0.7476
     11 C9         -3.0623   -6.8364    1.3112 C.2       1 <0>         0.7076
     12 O1         -4.0810   -6.3224    1.7314 O.2       1 <0>        -0.5777
     13 N3         -2.9778   -8.1774    1.2065 N.am      1 <0>        -0.7345
     14 C10        -4.1133   -9.0158    1.5990 C.3       1 <0>         0.2008
     15 C11        -5.3322   -8.6546    0.7476 C.3       1 <0>        -0.1190
     16 C12        -6.5181   -9.5302    1.1575 C.3       1 <0>        -0.0833
     17 C13        -6.1634  -11.0028    0.9416 C.3       1 <0>        -0.1132
     18 C14        -4.9445  -11.3639    1.7930 C.3       1 <0>        -0.0808
     19 C15        -3.7586  -10.4884    1.3831 C.3       1 <0>        -0.1151
     20 C16        -5.2661  -11.1281    3.2701 C.3       1 <0>        -0.1134
     21 C17        -5.6208   -9.6555    3.4859 C.3       1 <0>        -0.0834
     22 C18        -6.8397   -9.2943    2.6346 C.3       1 <0>        -0.1098
     23 C19        -4.4349   -8.7799    3.0761 C.3       1 <0>        -0.1200
     24 H1          1.0039    1.9031    0.0027 H         1 <0>         0.0772
     25 H2         -0.5459    1.8868   -0.8726 H         1 <0>         0.0673
     26 H3         -0.5289    1.8773    0.9072 H         1 <0>         0.0672
     27 H4          0.5123   -0.3556   -0.8948 H         1 <0>         0.0856
     28 H5          0.5293   -0.3651    0.8851 H         1 <0>         0.0858
     29 H6         -1.9435   -0.1821    0.9097 H         1 <0>         0.1304
     30 H7         -1.9605   -0.1726   -0.8702 H         1 <0>         0.1316
     31 H8          0.1969   -2.0643    1.3506 H         1 <0>         0.1371
     32 H9         -1.4142   -2.1855    2.0963 H         1 <0>         0.1328
     33 H10        -0.0920   -4.3200    0.3603 H         1 <0>         0.0933
     34 H11        -0.2519   -4.3748    2.1330 H         1 <0>         0.1189
     35 H12        -2.7072   -4.3458    1.9372 H         1 <0>         0.1056
     36 H13        -2.1964   -4.3407   -1.0737 H         1 <0>         0.0885
     37 H14        -3.7870   -4.4095   -0.2759 H         1 <0>         0.1182
     38 H15        -3.3571   -2.2045    0.7724 H         1 <0>         0.1320
     39 H16        -3.2539   -2.0981   -1.0008 H         1 <0>         0.1335
     40 H17        -1.2051   -6.4751    0.6149 H         1 <0>         0.4002
     41 H18        -2.1652   -8.5874    0.8713 H         1 <0>         0.3961
     42 H19        -5.5849   -7.6055    0.9014 H         1 <0>         0.0842
     43 H20        -5.1031   -8.8227   -0.3047 H         1 <0>         0.0572
     44 H21        -7.3864   -9.2729    0.5510 H         1 <0>         0.0732
     45 H22        -7.0082  -11.6266    1.2336 H         1 <0>         0.0679
     46 H23        -5.9343  -11.1708   -0.1107 H         1 <0>         0.0630
     47 H24        -4.6918  -12.4130    1.6392 H         1 <0>         0.0779
     48 H25        -3.5295  -10.6564    0.3308 H         1 <0>         0.0685
     49 H26        -2.8903  -10.7456    1.9896 H         1 <0>         0.0689
     50 H27        -6.1110  -11.7518    3.5621 H         1 <0>         0.0679
     51 H28        -4.3978  -11.3853    3.8766 H         1 <0>         0.0633
     52 H29        -5.8499   -9.4874    4.5382 H         1 <0>         0.0736
     53 H30        -7.0923   -8.2452    2.7884 H         1 <0>         0.0638
     54 H31        -7.6845   -9.9181    2.9266 H         1 <0>         0.0653
     55 H32        -3.5666   -9.0372    3.6826 H         1 <0>         0.0580
     56 H33        -4.6876   -7.7308    3.2299 H         1 <0>         0.0847
     57 H34        -0.8726   -2.3262   -0.7831 H         1 <0>         0.4221
@<TRIPOS>BOND
     1    1    2 1
     2    1   24 1
     3    1   25 1
     4    1   26 1
     5    2    3 1
     6    2   27 1
     7    2   28 1
     8    3    4 1
     9    3   29 1
    10    3   30 1
    11    4    9 1
    12    4    5 1
    13    4   57 1
    14    5    6 1
    15    5   31 1
    16    5   32 1
    17    6    7 1
    18    6   33 1
    19    6   34 1
    20    7    8 1
    21    7   10 1
    22    7   35 1
    23    8    9 1
    24    8   36 1
    25    8   37 1
    26    9   38 1
    27    9   39 1
    28   10   11 am
    29   10   40 1
    30   11   12 2
    31   11   13 am
    32   13   14 1
    33   13   41 1
    34   14   19 1
    35   14   23 1
    36   14   15 1
    37   15   16 1
    38   15   42 1
    39   15   43 1
    40   16   22 1
    41   16   17 1
    42   16   44 1
    43   17   18 1
    44   17   45 1
    45   17   46 1
    46   18   19 1
    47   18   20 1
    48   18   47 1
    49   19   48 1
    50   19   49 1
    51   20   21 1
    52   20   50 1
    53   20   51 1
    54   21   22 1
    55   21   23 1
    56   21   52 1
    57   22   53 1
    58   22   54 1
    59   23   55 1
    60   23   56 1
@<TRIPOS>MOLECULE
ZINC04935067
   48    51     0     0     0
SMALL
USER_CHARGES
3-(1-adamantyl)-1-(4-piperidyl)urea
@<TRIPOS>ATOM
      1 C1         -2.8330    0.7606   -1.4184 C.3       1 <0>        -0.1631
      2 C2         -4.1792    0.0326   -1.4152 C.3       1 <0>         0.0009
      3 C3         -4.8804    1.2150    0.5805 C.3       1 <0>         0.0033
      4 C4         -3.5560    1.9797    0.6367 C.3       1 <0>        -0.1582
      5 C5         -2.4493    1.1200    0.0198 C.3       1 <0>         0.1560
      6 N1         -1.1906    1.8696    0.0179 N.am      1 <0>        -0.7482
      7 C6         -0.0144    1.2117    0.0087 C.2       1 <0>         0.7074
      8 O1          0.0021   -0.0041    0.0020 O.2       1 <0>        -0.5777
      9 N2          1.1435    1.9014    0.0014 N.am      1 <0>        -0.7343
     10 C7          2.4220    1.1862   -0.0147 C.3       1 <0>         0.2006
     11 C8          2.5030    0.3145   -1.2695 C.3       1 <0>        -0.1189
     12 C9          3.8382   -0.4324   -1.2862 C.3       1 <0>        -0.0832
     13 C10         4.9875    0.5776   -1.2918 C.3       1 <0>        -0.1133
     14 C11         4.9065    1.4493   -0.0370 C.3       1 <0>        -0.0809
     15 C12         3.5713    2.1962   -0.0202 C.3       1 <0>        -0.1151
     16 C13         5.0114    0.5642    1.2066 C.3       1 <0>        -0.1135
     17 C14         3.8621   -0.4458    1.2121 C.3       1 <0>        -0.0833
     18 C15         3.9431   -1.3175   -0.0427 C.3       1 <0>        -0.1098
     19 C16         2.5269    0.3011    1.2289 C.3       1 <0>        -0.1200
     20 H1         -2.9142    1.6713   -2.0117 H         1 <0>         0.0886
     21 H2         -2.0689    0.1127   -1.8478 H         1 <0>         0.1176
     22 H3         -4.0931   -0.8855   -0.8340 H         1 <0>         0.1333
     23 H4         -4.4626   -0.2109   -2.4391 H         1 <0>         0.1351
     24 H5         -4.7911    0.2913    1.1522 H         1 <0>         0.1339
     25 H6         -5.6733    1.8301    1.0060 H         1 <0>         0.1374
     26 H7         -3.3081    2.2022    1.6745 H         1 <0>         0.1185
     27 H8         -3.6485    2.9104    0.0770 H         1 <0>         0.0938
     28 H9         -2.3288    0.2074    0.6035 H         1 <0>         0.1050
     29 H10        -1.2038    2.8395    0.0232 H         1 <0>         0.4002
     30 H11         1.1303    2.8713    0.0067 H         1 <0>         0.3962
     31 H12         1.6842   -0.4050   -1.2655 H         1 <0>         0.0841
     32 H13         2.4283    0.9451   -2.1554 H         1 <0>         0.0573
     33 H14         3.8960   -1.0534   -2.1801 H         1 <0>         0.0733
     34 H15         4.9128    1.2082   -2.1777 H         1 <0>         0.0630
     35 H16         5.9387    0.0455   -1.3037 H         1 <0>         0.0680
     36 H17         5.7252    2.1688   -0.0410 H         1 <0>         0.0781
     37 H18         3.4965    2.8268   -0.9062 H         1 <0>         0.0685
     38 H19         3.5135    2.8172    0.8737 H         1 <0>         0.0689
     39 H20         5.9626    0.0321    1.1946 H         1 <0>         0.0680
     40 H21         4.9536    1.1852    2.1005 H         1 <0>         0.0634
     41 H22         3.9368   -1.0764    2.0980 H         1 <0>         0.0738
     42 H23         3.1243   -2.0370   -0.0387 H         1 <0>         0.0638
     43 H24         4.8943   -1.8496   -0.0546 H         1 <0>         0.0654
     44 H25         2.4691    0.9221    2.1228 H         1 <0>         0.0580
     45 H26         1.7081   -0.4184    1.2328 H         1 <0>         0.0846
     46 N3         -5.2142    0.9006   -0.8218 N.4       1 <0>        -0.5176
     47 H27        -6.1197    0.4177   -0.8539 H         1 <0>         0.4386
     48 H28        -5.2725    1.7734   -1.3595 H         1 <0>         0.4324
@<TRIPOS>BOND
     1    1    5 1
     2    1    2 1
     3    1   20 1
     4    1   21 1
     5    2   22 1
     6    2   23 1
     7    2   46 1
     8    3    4 1
     9    3   24 1
    10    3   25 1
    11    3   46 1
    12    4    5 1
    13    4   26 1
    14    4   27 1
    15    5    6 1
    16    5   28 1
    17    6    7 am
    18    6   29 1
    19    7    8 2
    20    7    9 am
    21    9   10 1
    22    9   30 1
    23   10   15 1
    24   10   19 1
    25   10   11 1
    26   11   12 1
    27   11   31 1
    28   11   32 1
    29   12   18 1
    30   12   13 1
    31   12   33 1
    32   13   14 1
    33   13   34 1
    34   13   35 1
    35   14   15 1
    36   14   16 1
    37   14   36 1
    38   15   37 1
    39   15   38 1
    40   16   17 1
    41   16   39 1
    42   16   40 1
    43   17   18 1
    44   17   19 1
    45   17   41 1
    46   18   42 1
    47   18   43 1
    48   19   44 1
    49   19   45 1
    50   46   47 1
    51   46   48 1
@<TRIPOS>MOLECULE
ZINC27645646
   67    69     0     0     0
SMALL
USER_CHARGES

@<TRIPOS>ATOM
      1 C1         -0.0187    1.5258    0.0104 C.3       1 <0>        -0.1111
      2 C2          1.4167    2.0553   -0.0004 C.3       1 <0>        -0.0828
      3 C3          2.1567    1.5485    1.2391 C.3       1 <0>        -0.1089
      4 C4          2.1775    0.0187    1.2307 C.3       1 <0>        -0.0828
      5 C5          0.7421   -0.5109    1.2415 C.3       1 <0>        -0.1111
      6 C6          0.0021   -0.0041    0.0020 C.3       1 <0>        -0.0800
      7 C7          0.7182   -0.4975   -1.2568 C.3       1 <0>        -0.1146
      8 C8          2.1536    0.0321   -1.2676 C.3       1 <0>         0.2031
      9 C9          2.1328    1.5619   -1.2592 C.3       1 <0>        -0.1225
     10 C10         2.8936   -0.4747   -0.0281 C.3       1 <0>        -0.1225
     11 N1          2.8393   -0.4404   -2.4730 N.am      1 <0>        -0.7432
     12 C11         4.1230   -0.0961   -2.6967 C.2       1 <0>         0.7046
     13 O1          4.7120    0.6066   -1.8981 O.2       1 <0>        -0.5840
     14 N2          4.7539   -0.5307   -3.8055 N.am      1 <0>        -0.7488
     15 C12         6.1492   -0.1565   -4.0487 C.3       1 <0>         0.1378
     16 C13         6.6214   -0.7762   -5.3655 C.3       1 <0>        -0.1312
     17 C14         8.0787   -0.3853   -5.6195 C.3       1 <0>        -0.1166
     18 C15         8.5508   -1.0050   -6.9363 C.3       1 <0>        -0.1189
     19 C16        10.0081   -0.6141   -7.1903 C.3       1 <0>        -0.1205
     20 C17        10.4802   -1.2338   -8.5071 C.3       1 <0>        -0.1203
     21 C18        11.9375   -0.8429   -8.7610 C.3       1 <0>        -0.1195
     22 C19        12.4097   -1.4626  -10.0779 C.3       1 <0>        -0.1192
     23 C20        13.8670   -1.0718  -10.3318 C.3       1 <0>        -0.1207
     24 C21        14.3391   -1.6914  -11.6486 C.3       1 <0>        -0.0935
     25 C22        15.7964   -1.3006  -11.9026 C.3       1 <0>        -0.1840
     26 C23        16.2614   -1.9109  -13.1996 C.2       1 <0>         0.4872
     27 O2         15.4981   -2.5950  -13.8597 O.co2     1 <0>        -0.7001
     28 O3         17.4011   -1.7205  -13.5889 O.co2     1 <0>        -0.7101
     29 H1         -0.5289    1.8773    0.9072 H         1 <0>         0.0639
     30 H2         -0.5459    1.8868   -0.8726 H         1 <0>         0.0618
     31 H3          1.4019    3.1452    0.0056 H         1 <0>         0.0712
     32 H4          3.1793    1.9258    1.2314 H         1 <0>         0.0653
     33 H5          1.6465    1.9000    2.1359 H         1 <0>         0.0614
     34 H6          2.7046   -0.3424    2.1137 H         1 <0>         0.0712
     35 H7          0.7568   -1.6008    1.2355 H         1 <0>         0.0618
     36 H8          0.2319   -0.1594    2.1383 H         1 <0>         0.0639
     37 H9         -1.0205   -0.3814    0.0098 H         1 <0>         0.0740
     38 H10         0.7330   -1.5874   -1.2628 H         1 <0>         0.0675
     39 H11         0.1910   -0.1364   -2.1398 H         1 <0>         0.0675
     40 H12         1.6057    1.9230   -2.1423 H         1 <0>         0.0572
     41 H13         3.1554    1.9392   -1.2670 H         1 <0>         0.0878
     42 H14         3.9162   -0.0975   -0.0359 H         1 <0>         0.0878
     43 H15         2.9084   -1.5646   -0.0341 H         1 <0>         0.0572
     44 H16         2.3694   -1.0010   -3.1100 H         1 <0>         0.3933
     45 H17         4.2840   -1.0913   -4.4426 H         1 <0>         0.3946
     46 H18         6.2292    0.9289   -4.1086 H         1 <0>         0.0654
     47 H19         6.7711   -0.5221   -3.2316 H         1 <0>         0.0654
     48 H20         6.5414   -1.8616   -5.3056 H         1 <0>         0.0681
     49 H21         5.9995   -0.4106   -6.1827 H         1 <0>         0.0681
     50 H22         8.1586    0.7001   -5.6794 H         1 <0>         0.0653
     51 H23         8.7006   -0.7509   -4.8023 H         1 <0>         0.0653
     52 H24         8.4709   -2.0904   -6.8764 H         1 <0>         0.0613
     53 H25         7.9289   -0.6394   -7.7534 H         1 <0>         0.0613
     54 H26        10.0880    0.4713   -7.2502 H         1 <0>         0.0607
     55 H27        10.6300   -0.9797   -6.3731 H         1 <0>         0.0606
     56 H28        10.4003   -2.3192   -8.4472 H         1 <0>         0.0600
     57 H29         9.8583   -0.8682   -9.3242 H         1 <0>         0.0600
     58 H30        12.0175    0.2425   -8.8210 H         1 <0>         0.0586
     59 H31        12.5594   -1.2085   -7.9439 H         1 <0>         0.0586
     60 H32        12.3297   -2.5480  -10.0179 H         1 <0>         0.0592
     61 H33        11.7878   -1.0970  -10.8950 H         1 <0>         0.0592
     62 H34        13.9469    0.0137  -10.3917 H         1 <0>         0.0537
     63 H35        14.4888   -1.4373   -9.5147 H         1 <0>         0.0537
     64 H36        14.2592   -2.7768  -11.5887 H         1 <0>         0.0570
     65 H37        13.7172   -1.3258  -12.4658 H         1 <0>         0.0570
     66 H38        15.8763   -0.2152  -11.9625 H         1 <0>         0.0540
     67 H39        16.4183   -1.6661  -11.0854 H         1 <0>         0.0540
@<TRIPOS>BOND
     1    1    6 1
     2    1    2 1
     3    1   29 1
     4    1   30 1
     5    2    9 1
     6    2    3 1
     7    2   31 1
     8    3    4 1
     9    3   32 1
    10    3   33 1
    11    4   10 1
    12    4    5 1
    13    4   34 1
    14    5    6 1
    15    5   35 1
    16    5   36 1
    17    6    7 1
    18    6   37 1
    19    7    8 1
    20    7   38 1
    21    7   39 1
    22    8    9 1
    23    8   10 1
    24    8   11 1
    25    9   40 1
    26    9   41 1
    27   10   42 1
    28   10   43 1
    29   11   12 am
    30   11   44 1
    31   12   13 2
    32   12   14 am
    33   14   15 1
    34   14   45 1
    35   15   16 1
    36   15   46 1
    37   15   47 1
    38   16   17 1
    39   16   48 1
    40   16   49 1
    41   17   18 1
    42   17   50 1
    43   17   51 1
    44   18   19 1
    45   18   52 1
    46   18   53 1
    47   19   20 1
    48   19   54 1
    49   19   55 1
    50   20   21 1
    51   20   56 1
    52   20   57 1
    53   21   22 1
    54   21   58 1
    55   21   59 1
    56   22   23 1
    57   22   60 1
    58   22   61 1
    59   23   24 1
    60   23   62 1
    61   23   63 1
    62   24   25 1
    63   24   64 1
    64   24   65 1
    65   25   26 1
    66   25   66 1
    67   25   67 1
    68   26   27 2
    69   26   28 1
@<TRIPOS>MOLECULE
ZINC36330645
   59    63     0     0     0
SMALL
USER_CHARGES

@<TRIPOS>ATOM
      1 C1          7.3362    1.5021   -0.1151 C.ar      1 <0>        -0.0962
      2 C2          6.3412    1.8527    0.7801 C.ar      1 <0>        -0.1240
      3 C3          5.1563    1.1467    0.8104 C.ar      1 <0>        -0.0670
      4 C4          4.9625    0.0766   -0.0645 C.ar      1 <0>        -0.1317
      5 C5          5.9704   -0.2718   -0.9651 C.ar      1 <0>        -0.0909
      6 C6          7.1505    0.4424   -0.9851 C.ar      1 <0>        -0.1253
      7 C7          3.6955   -0.6847   -0.0372 C.2       1 <0>         0.5632
      8 O1          2.6371   -0.0992    0.0836 O.2       1 <0>        -0.5324
      9 N1          3.7139   -2.0279   -0.1463 N.am      1 <0>        -0.6091
     10 C8          2.4609   -2.7873   -0.2555 C.3       1 <0>         0.1157
     11 C9          2.4451   -3.8709    0.8273 C.3       1 <0>        -0.1417
     12 C10         3.7098   -4.7244    0.7077 C.3       1 <0>         0.1658
     13 C11         4.9433   -3.8444    0.9229 C.3       1 <0>        -0.1444
     14 C12         4.9876   -2.7601   -0.1645 C.3       1 <0>         0.1010
     15 N2          3.6823   -5.7823    1.7207 N.am      1 <0>        -0.7451
     16 C13         4.3725   -6.9229    1.5229 C.2       1 <0>         0.7070
     17 O2          5.0181   -7.0738    0.5036 O.2       1 <0>        -0.5821
     18 N3          4.3472   -7.8962    2.4548 N.am      1 <0>        -0.7419
     19 C14         5.0975   -9.1359    2.2398 C.3       1 <0>         0.2031
     20 C15         6.5846   -8.8117    2.0843 C.3       1 <0>        -0.1213
     21 C16         7.3682  -10.1064    1.8597 C.3       1 <0>        -0.0827
     22 C17         7.1715  -11.0361    3.0589 C.3       1 <0>        -0.1117
     23 C18         5.6844  -11.3604    3.2143 C.3       1 <0>        -0.0801
     24 C19         4.9008  -10.0656    3.4389 C.3       1 <0>        -0.1148
     25 C20         5.1775  -12.0498    1.9460 C.3       1 <0>        -0.1116
     26 C21         5.3741  -11.1202    0.7469 C.3       1 <0>        -0.0829
     27 C22         6.8613  -10.7959    0.5914 C.3       1 <0>        -0.1089
     28 C23         4.5905   -9.8254    0.9714 C.3       1 <0>        -0.1215
     29 H1          8.2601    2.0608   -0.1378 H         1 <0>         0.1282
     30 H2          6.4925    2.6806    1.4569 H         1 <0>         0.1305
     31 H3          4.3805    1.4211    1.5099 H         1 <0>         0.1307
     32 H4          5.8268   -1.0990   -1.6445 H         1 <0>         0.1307
     33 H5          7.9312    0.1738   -1.6814 H         1 <0>         0.1304
     34 H6          1.6135   -2.1166   -0.1136 H         1 <0>         0.1003
     35 H7          2.4003   -3.2529   -1.2392 H         1 <0>         0.0743
     36 H8          2.4143   -3.4020    1.8108 H         1 <0>         0.0736
     37 H9          1.5664   -4.5025    0.6971 H         1 <0>         0.0843
     38 H10         3.7526   -5.1732   -0.2847 H         1 <0>         0.0920
     39 H11         4.8890   -3.3758    1.9055 H         1 <0>         0.0684
     40 H12         5.8426   -4.4572    0.8607 H         1 <0>         0.0838
     41 H13         5.1288   -3.2234   -1.1409 H         1 <0>         0.0762
     42 H14         5.8079   -2.0713    0.0376 H         1 <0>         0.0984
     43 H15         3.1673   -5.6619    2.5338 H         1 <0>         0.3947
     44 H16         3.8322   -7.7758    3.2679 H         1 <0>         0.3935
     45 H17         6.7247   -8.1494    1.2300 H         1 <0>         0.0874
     46 H18         6.9457   -8.3205    2.9879 H         1 <0>         0.0568
     47 H19         8.4276   -9.8754    1.7490 H         1 <0>         0.0714
     48 H20         7.7298  -11.9585    2.8989 H         1 <0>         0.0647
     49 H21         7.5327  -10.5449    3.9625 H         1 <0>         0.0619
     50 H22         5.5443  -12.0227    4.0686 H         1 <0>         0.0746
     51 H23         5.2620   -9.5744    4.3425 H         1 <0>         0.0674
     52 H24         3.8414  -10.2966    3.5497 H         1 <0>         0.0675
     53 H25         5.7357  -12.9722    1.7860 H         1 <0>         0.0647
     54 H26         4.1180  -12.2808    2.0567 H         1 <0>         0.0620
     55 H27         5.0130  -11.6113   -0.1567 H         1 <0>         0.0715
     56 H28         7.0013  -10.1336   -0.2629 H         1 <0>         0.0649
     57 H29         7.4195  -11.7183    0.4314 H         1 <0>         0.0620
     58 H30         3.5311  -10.0564    1.0822 H         1 <0>         0.0570
     59 H31         4.7306   -9.1631    0.1171 H         1 <0>         0.0874
@<TRIPOS>BOND
     1    1    6 ar
     2    1    2 ar
     3    1   29 1
     4    2    3 ar
     5    2   30 1
     6    3    4 ar
     7    3   31 1
     8    4    5 ar
     9    4    7 1
    10    5    6 ar
    11    5   32 1
    12    6   33 1
    13    7    8 2
    14    7    9 am
    15    9   14 1
    16    9   10 1
    17   10   11 1
    18   10   34 1
    19   10   35 1
    20   11   12 1
    21   11   36 1
    22   11   37 1
    23   12   13 1
    24   12   15 1
    25   12   38 1
    26   13   14 1
    27   13   39 1
    28   13   40 1
    29   14   41 1
    30   14   42 1
    31   15   16 am
    32   15   43 1
    33   16   17 2
    34   16   18 am
    35   18   19 1
    36   18   44 1
    37   19   24 1
    38   19   28 1
    39   19   20 1
    40   20   21 1
    41   20   45 1
    42   20   46 1
    43   21   27 1
    44   21   22 1
    45   21   47 1
    46   22   23 1
    47   22   48 1
    48   22   49 1
    49   23   24 1
    50   23   25 1
    51   23   50 1
    52   24   51 1
    53   24   52 1
    54   25   26 1
    55   25   53 1
    56   25   54 1
    57   26   27 1
    58   26   28 1
    59   26   55 1
    60   27   56 1
    61   27   57 1
    62   28   58 1
    63   28   59 1
@<TRIPOS>MOLECULE
ZINC20256825
   51    54     0     0     0
SMALL
USER_CHARGES
3-(1-adamantyl)-1-(4-piperidylmethyl)urea
@<TRIPOS>ATOM
      1 C1         -0.6389    3.1060    1.3415 C.3       1 <0>        -0.1459
      2 C2         -1.3021    3.5885    2.6336 C.3       1 <0>        -0.0012
      3 N1         -0.6281    2.9822    3.7888 N.4       1 <0>        -0.5362
      4 C3         -0.7435    1.5185    3.7628 C.3       1 <0>        -0.0024
      5 C4         -0.0622    0.9740    2.5053 C.3       1 <0>        -0.1441
      6 C5         -0.7288    1.5792    1.2668 C.3       1 <0>        -0.1112
      7 C6         -0.0127    1.0858    0.0080 C.3       1 <0>         0.1467
      8 N2         -0.7213    1.5711   -1.1789 N.am      1 <0>        -0.7646
      9 C7         -0.2681    1.2584   -2.4090 C.2       1 <0>         0.7077
     10 O1          0.7287    0.5735   -2.5338 O.2       1 <0>        -0.5831
     11 N3         -0.9200    1.7049   -3.5009 N.am      1 <0>        -0.7480
     12 C8         -0.4274    1.3649   -4.8381 C.3       1 <0>         0.2064
     13 C9          0.9941    1.9038   -5.0102 C.3       1 <0>        -0.1205
     14 C10         1.5085    1.5488   -6.4067 C.3       1 <0>        -0.0836
     15 C11         0.5944    2.1755   -7.4615 C.3       1 <0>        -0.1131
     16 C12        -0.8272    1.6366   -7.2894 C.3       1 <0>        -0.0813
     17 C13        -1.3416    1.9916   -5.8929 C.3       1 <0>        -0.1135
     18 C14        -0.8202    0.1161   -7.4591 C.3       1 <0>        -0.1134
     19 C15         0.0939   -0.5106   -6.4043 C.3       1 <0>        -0.0836
     20 C16         1.5155    0.0283   -6.5764 C.3       1 <0>        -0.1107
     21 C17        -0.4205   -0.1556   -5.0078 C.3       1 <0>        -0.1215
     22 H1          0.4177    3.4119    1.3332 H         1 <0>         0.0915
     23 H2         -1.1550    3.5465    0.4757 H         1 <0>         0.1095
     24 H3         -1.2248    4.6839    2.6985 H         1 <0>         0.1324
     25 H4         -2.3623    3.2951    2.6333 H         1 <0>         0.1266
     26 H5          0.4386    3.2504    3.7733 H         1 <0>         0.4502
     27 H6         -0.2572    1.0965    4.6547 H         1 <0>         0.1345
     28 H7         -1.8062    1.2345    3.7557 H         1 <0>         0.1269
     29 H8          1.0038    1.2449    2.5194 H         1 <0>         0.0926
     30 H9         -0.1619   -0.1212    2.4793 H         1 <0>         0.1145
     31 H10        -1.7844    1.2723    1.2278 H         1 <0>         0.0947
     32 H11         1.0193    1.4666    0.0002 H         1 <0>         0.0684
     33 H12         0.0023   -0.0141    0.0019 H         1 <0>         0.0721
     34 H13        -1.6232    2.1907   -1.0660 H         1 <0>         0.4092
     35 H14        -1.8218    2.3245   -3.3881 H         1 <0>         0.4105
     36 H15         0.9890    2.9970   -4.8882 H         1 <0>         0.0558
     37 H16         1.6514    1.4533   -4.2519 H         1 <0>         0.0847
     38 H17         2.5306    1.9362   -6.5304 H         1 <0>         0.0725
     39 H18         0.5894    3.2687   -7.3395 H         1 <0>         0.0624
     40 H19         0.9643    1.9203   -8.4655 H         1 <0>         0.0672
     41 H20        -1.4845    2.0871   -8.0477 H         1 <0>         0.0768
     42 H21        -2.3636    1.6042   -5.7691 H         1 <0>         0.0680
     43 H22        -1.3466    3.0848   -5.7709 H         1 <0>         0.0675
     44 H23        -1.8423   -0.2713   -7.3354 H         1 <0>         0.0628
     45 H24        -0.4503   -0.1391   -8.4631 H         1 <0>         0.0672
     46 H25         0.0989   -1.6038   -6.5262 H         1 <0>         0.0728
     47 H26         1.8853   -0.2269   -7.5804 H         1 <0>         0.0648
     48 H27         2.1728   -0.4223   -5.8181 H         1 <0>         0.0642
     49 H28         0.2367   -0.6062   -4.2495 H         1 <0>         0.0849
     50 H29        -1.4426   -0.5430   -4.8841 H         1 <0>         0.0566
     51 H30        -1.0862    3.3539    4.7173 H         1 <0>         0.4551
@<TRIPOS>BOND
     1    1    6 1
     2    1    2 1
     3    1   22 1
     4    1   23 1
     5    2    3 1
     6    2   24 1
     7    2   25 1
     8    3    4 1
     9    3   26 1
    10    3   51 1
    11    4    5 1
    12    4   27 1
    13    4   28 1
    14    5    6 1
    15    5   29 1
    16    5   30 1
    17    6    7 1
    18    6   31 1
    19    7    8 1
    20    7   32 1
    21    7   33 1
    22    8    9 am
    23    8   34 1
    24    9   10 2
    25    9   11 am
    26   11   12 1
    27   11   35 1
    28   12   17 1
    29   12   21 1
    30   12   13 1
    31   13   14 1
    32   13   36 1
    33   13   37 1
    34   14   20 1
    35   14   15 1
    36   14   38 1
    37   15   16 1
    38   15   39 1
    39   15   40 1
    40   16   17 1
    41   16   18 1
    42   16   41 1
    43   17   42 1
    44   17   43 1
    45   18   19 1
    46   18   44 1
    47   18   45 1
    48   19   20 1
    49   19   21 1
    50   19   46 1
    51   20   47 1
    52   20   48 1
    53   21   49 1
    54   21   50 1
@<TRIPOS>MOLECULE
ZINC36303007
   45    45     0     0     0
SMALL
USER_CHARGES

@<TRIPOS>ATOM
      1 C1         -0.0173    1.4248    0.0099 C.3       1 <0>         0.0326
      2 O1          0.0021   -0.0041    0.0020 O.3       1 <0>        -0.3563
      3 C2          0.5984   -0.5997   -1.0427 C.2       1 <0>         0.4573
      4 O2          1.0877    0.0699   -1.9214 O.2       1 <0>        -0.5066
      5 C3          0.6575   -2.1036   -1.1196 C.3       1 <0>        -0.1145
      6 C4          1.3848   -2.5205   -2.3995 C.3       1 <0>        -0.1093
      7 C5          1.4449   -4.0473   -2.4777 C.3       1 <0>        -0.1165
      8 C6          2.1722   -4.4643   -3.7576 C.3       1 <0>        -0.1313
      9 C7          2.2322   -5.9911   -3.8357 C.3       1 <0>         0.1374
     10 N1          2.9286   -6.3903   -5.0612 N.am      1 <0>        -0.7488
     11 C8          3.1014   -7.6970   -5.3430 C.2       1 <0>         0.7029
     12 O3          2.6793   -8.5444   -4.5800 O.2       1 <0>        -0.5890
     13 N2          3.7420   -8.0642   -6.4704 N.am      1 <0>        -0.7439
     14 C9          3.9298   -9.4845   -6.7766 C.3       1 <0>         0.1635
     15 C10         5.1867   -9.9967   -6.0703 C.3       1 <0>        -0.1296
     16 C11         5.3828  -11.4800   -6.3901 C.3       1 <0>        -0.1179
     17 C12         5.5382  -11.6596   -7.9016 C.3       1 <0>        -0.1226
     18 C13         4.2814  -11.1474   -8.6079 C.3       1 <0>        -0.1163
     19 C14         4.0852   -9.6641   -8.2881 C.3       1 <0>        -0.1264
     20 H1          1.0053    1.8021    0.0021 H         1 <0>         0.0608
     21 H2         -0.5445    1.7859   -0.8732 H         1 <0>         0.0608
     22 H3         -0.5275    1.7763    0.9067 H         1 <0>         0.1028
     23 H4          1.1948   -2.4908   -0.2539 H         1 <0>         0.1079
     24 H5         -0.3550   -2.5070   -1.1292 H         1 <0>         0.1079
     25 H6          0.8476   -2.1333   -3.2653 H         1 <0>         0.0733
     26 H7          2.3973   -2.1171   -2.3900 H         1 <0>         0.0733
     27 H8          1.9821   -4.4346   -1.6119 H         1 <0>         0.0705
     28 H9          0.4324   -4.4508   -2.4872 H         1 <0>         0.0705
     29 H10         1.6349   -4.0770   -4.6233 H         1 <0>         0.0708
     30 H11         3.1847   -4.0608   -3.7480 H         1 <0>         0.0708
     31 H12         2.7695   -6.3783   -2.9700 H         1 <0>         0.0665
     32 H13         1.2197   -6.3946   -3.8453 H         1 <0>         0.0665
     33 H14         3.2653   -5.7143   -5.6699 H         1 <0>         0.3958
     34 H15         4.0787   -7.3882   -7.0791 H         1 <0>         0.3946
     35 H16         3.0635  -10.0484   -6.4309 H         1 <0>         0.0881
     36 H17         6.0531   -9.4328   -6.4161 H         1 <0>         0.0617
     37 H18         5.0760   -9.8687   -4.9935 H         1 <0>         0.0674
     38 H19         6.2782  -11.8448   -5.8869 H         1 <0>         0.0648
     39 H20         4.5165  -12.0438   -6.0444 H         1 <0>         0.0649
     40 H21         6.4046  -11.0957   -8.2473 H         1 <0>         0.0624
     41 H22         5.6780  -12.7163   -8.1294 H         1 <0>         0.0644
     42 H23         4.3921  -11.2754   -9.6847 H         1 <0>         0.0676
     43 H24         3.4150  -11.7113   -8.2622 H         1 <0>         0.0658
     44 H25         3.1898   -9.2993   -8.7913 H         1 <0>         0.0683
     45 H26         4.9516   -9.1002   -8.6338 H         1 <0>         0.0673
@<TRIPOS>BOND
     1    1    2 1
     2    1   20 1
     3    1   21 1
     4    1   22 1
     5    2    3 1
     6    3    4 2
     7    3    5 1
     8    5    6 1
     9    5   23 1
    10    5   24 1
    11    6    7 1
    12    6   25 1
    13    6   26 1
    14    7    8 1
    15    7   27 1
    16    7   28 1
    17    8    9 1
    18    8   29 1
    19    8   30 1
    20    9   10 1
    21    9   31 1
    22    9   32 1
    23   10   11 am
    24   10   33 1
    25   11   12 2
    26   11   13 am
    27   13   14 1
    28   13   34 1
    29   14   19 1
    30   14   15 1
    31   14   35 1
    32   15   16 1
    33   15   36 1
    34   15   37 1
    35   16   17 1
    36   16   38 1
    37   16   39 1
    38   17   18 1
    39   17   40 1
    40   17   41 1
    41   18   19 1
    42   18   42 1
    43   18   43 1
    44   19   44 1
    45   19   45 1
@<TRIPOS>MOLECULE
ZINC24975985
   42    43     0     0     0
SMALL
USER_CHARGES
1,3-bis(4-hydroxycyclohexyl)urea
@<TRIPOS>ATOM
      1 C1          2.8194    0.8198    1.4166 C.3       1 <0>        -0.1250
      2 C2          4.1546    0.0729    1.3999 C.3       1 <0>        -0.1105
      3 C3          5.2321    0.9682    0.7847 C.3       1 <0>         0.1147
      4 C4          4.8347    1.3346   -0.6466 C.3       1 <0>        -0.1469
      5 C5          3.4995    2.0815   -0.6298 C.3       1 <0>        -0.1222
      6 C6          2.4220    1.1862   -0.0147 C.3       1 <0>         0.1655
      7 N1          1.1435    1.9014    0.0014 N.am      1 <0>        -0.7562
      8 C7         -0.0144    1.2117    0.0087 C.2       1 <0>         0.7065
      9 O1          0.0021   -0.0041    0.0020 O.2       1 <0>        -0.5938
     10 N2         -1.1906    1.8696    0.0179 N.am      1 <0>        -0.7562
     11 C8         -2.4493    1.1200    0.0198 C.3       1 <0>         0.1655
     12 C9         -2.8299    0.7588   -1.4175 C.3       1 <0>        -0.1249
     13 C10        -4.1444   -0.0242   -1.4155 C.3       1 <0>        -0.1105
     14 C11        -5.2487    0.8347   -0.7959 C.3       1 <0>         0.1147
     15 C12        -4.8680    1.1959    0.6413 C.3       1 <0>        -0.1469
     16 C13        -3.5535    1.9789    0.6393 C.3       1 <0>        -0.1222
     17 O2         -6.4764    0.1035   -0.7941 O.3       1 <0>        -0.6017
     18 O3          6.4791    0.2706    0.7691 O.3       1 <0>        -0.6017
     19 H1          2.9198    1.7370    2.0154 H         1 <0>         0.0647
     20 H2          2.0447    0.1762    1.8589 H         1 <0>         0.0746
     21 H3          4.4403   -0.1905    2.4290 H         1 <0>         0.0718
     22 H4          4.0542   -0.8444    0.8011 H         1 <0>         0.0729
     23 H5          5.3993    1.8680    1.3949 H         1 <0>         0.0503
     24 H6          5.6094    1.9783   -1.0888 H         1 <0>         0.0697
     25 H7          4.7343    0.4174   -1.2455 H         1 <0>         0.0746
     26 H8          3.6000    2.9987   -0.0309 H         1 <0>         0.0697
     27 H9          3.2138    2.3450   -1.6588 H         1 <0>         0.0722
     28 H10         2.2789    0.2797   -0.6211 H         1 <0>         0.0883
     29 H11         1.1286    3.0013    0.0075 H         1 <0>         0.4110
     30 H12        -1.2055    2.9695    0.0240 H         1 <0>         0.4110
     31 H13        -2.2845    0.2111    0.6171 H         1 <0>         0.0883
     32 H14        -2.9524    1.6795   -2.0068 H         1 <0>         0.0648
     33 H15        -2.0360    0.1414   -1.8629 H         1 <0>         0.0746
     34 H16        -4.4181   -0.2839   -2.4488 H         1 <0>         0.0718
     35 H17        -4.0219   -0.9449   -0.8263 H         1 <0>         0.0729
     36 H18        -5.4375    1.7363   -1.3971 H         1 <0>         0.0503
     37 H19        -5.6619    1.8134    1.0867 H         1 <0>         0.0696
     38 H20        -4.7455    0.2752    1.2306 H         1 <0>         0.0746
     39 H21        -3.2798    2.2386    1.6726 H         1 <0>         0.0722
     40 H22        -3.6760    2.8996    0.0500 H         1 <0>         0.0697
     41 H23        -7.3888    0.5616   -0.3847 H         1 <0>         0.4061
     42 H24         7.3767    0.7577    0.3605 H         1 <0>         0.4061
@<TRIPOS>BOND
     1    1    6 1
     2    1    2 1
     3    1   19 1
     4    1   20 1
     5    2    3 1
     6    2   21 1
     7    2   22 1
     8    3    4 1
     9    3   18 1
    10    3   23 1
    11    4    5 1
    12    4   24 1
    13    4   25 1
    14    5    6 1
    15    5   26 1
    16    5   27 1
    17    6    7 1
    18    6   28 1
    19    7    8 am
    20    7   29 1
    21    8    9 2
    22    8   10 am
    23   10   11 1
    24   10   30 1
    25   11   16 1
    26   11   12 1
    27   11   31 1
    28   12   13 1
    29   12   32 1
    30   12   33 1
    31   13   14 1
    32   13   34 1
    33   13   35 1
    34   14   15 1
    35   14   17 1
    36   14   36 1
    37   15   16 1
    38   15   37 1
    39   15   38 1
    40   16   39 1
    41   16   40 1
    42   17   41 1
    43   18   42 1
@<TRIPOS>MOLECULE
ZINC03895072
   48    51     0     0     0
SMALL
USER_CHARGES

@<TRIPOS>ATOM
      1 C1         -0.0187    1.5258    0.0104 C.3       1 <0>        -0.1225
      2 C2          1.4167    2.0553   -0.0004 C.3       1 <0>        -0.1161
      3 C3          2.1328    1.5619   -1.2592 C.3       1 <0>        -0.1264
      4 C4          2.1536    0.0321   -1.2676 C.3       1 <0>         0.1649
      5 C5          0.7182   -0.4975   -1.2568 C.3       1 <0>        -0.1288
      6 C6          0.0021   -0.0041    0.0020 C.3       1 <0>        -0.1177
      7 N1          2.8393   -0.4404   -2.4730 N.am      1 <0>        -0.7458
      8 C7          3.4244   -1.6545   -2.4833 C.2       1 <0>         0.7060
      9 O1          3.3831   -2.3576   -1.4922 O.2       1 <0>        -0.5826
     10 N2          4.0552   -2.0891   -3.5922 N.am      1 <0>        -0.7429
     11 C8          4.6912   -3.4088   -3.6034 C.3       1 <0>         0.2031
     12 C9          3.6380   -4.4848   -3.3315 C.3       1 <0>        -0.1216
     13 C10         4.3021   -5.8631   -3.3432 C.3       1 <0>        -0.0828
     14 C11         4.9416   -6.1094   -4.7112 C.3       1 <0>        -0.1114
     15 C12         5.9948   -5.0335   -4.9830 C.3       1 <0>        -0.0801
     16 C13         5.3307   -3.6552   -4.9713 C.3       1 <0>        -0.1145
     17 C14         7.0727   -5.0894   -3.8986 C.3       1 <0>        -0.1114
     18 C15         6.4332   -4.8430   -2.5307 C.3       1 <0>        -0.0828
     19 C16         5.3800   -5.9190   -2.2589 C.3       1 <0>        -0.1089
     20 C17         5.7691   -3.4648   -2.5190 C.3       1 <0>        -0.1218
     21 H1         -0.5289    1.8773    0.9072 H         1 <0>         0.0641
     22 H2         -0.5459    1.8868   -0.8726 H         1 <0>         0.0621
     23 H3          1.4019    3.1452    0.0056 H         1 <0>         0.0671
     24 H4          1.9439    1.6943    0.8826 H         1 <0>         0.0656
     25 H5          1.6057    1.9230   -2.1423 H         1 <0>         0.0667
     26 H6          3.1554    1.9392   -1.2670 H         1 <0>         0.0677
     27 H7          2.6808   -0.3290   -0.3846 H         1 <0>         0.0878
     28 H8          0.1910   -0.1364   -2.1398 H         1 <0>         0.0608
     29 H9          0.7330   -1.5874   -1.2628 H         1 <0>         0.0674
     30 H10         0.5293   -0.3651    0.8851 H         1 <0>         0.0646
     31 H11        -1.0205   -0.3814    0.0098 H         1 <0>         0.0643
     32 H12         2.8723    0.1206   -3.2636 H         1 <0>         0.3932
     33 H13         4.0882   -1.5281   -4.3828 H         1 <0>         0.3930
     34 H14         3.1824   -4.3093   -2.3570 H         1 <0>         0.0874
     35 H15         2.8700   -4.4450   -4.1041 H         1 <0>         0.0567
     36 H16         3.5518   -6.6296   -3.1496 H         1 <0>         0.0713
     37 H17         5.4148   -7.0914   -4.7195 H         1 <0>         0.0646
     38 H18         4.1737   -6.0696   -5.4837 H         1 <0>         0.0619
     39 H19         6.4504   -5.2090   -5.9576 H         1 <0>         0.0745
     40 H20         4.5628   -3.6153   -5.7439 H         1 <0>         0.0673
     41 H21         6.0810   -2.8886   -5.1650 H         1 <0>         0.0673
     42 H22         7.5459   -6.0713   -3.9070 H         1 <0>         0.0646
     43 H23         7.8231   -4.3228   -4.0923 H         1 <0>         0.0619
     44 H24         7.2012   -4.8829   -1.7581 H         1 <0>         0.0714
     45 H25         4.9244   -5.7435   -1.2843 H         1 <0>         0.0649
     46 H26         5.8532   -6.9009   -2.2672 H         1 <0>         0.0619
     47 H27         6.5194   -2.6982   -2.7126 H         1 <0>         0.0568
     48 H28         5.3135   -3.2893   -1.5444 H         1 <0>         0.0874
@<TRIPOS>BOND
     1    1    6 1
     2    1    2 1
     3    1   21 1
     4    1   22 1
     5    2    3 1
     6    2   23 1
     7    2   24 1
     8    3    4 1
     9    3   25 1
    10    3   26 1
    11    4    5 1
    12    4    7 1
    13    4   27 1
    14    5    6 1
    15    5   28 1
    16    5   29 1
    17    6   30 1
    18    6   31 1
    19    7    8 am
    20    7   32 1
    21    8    9 2
    22    8   10 am
    23   10   11 1
    24   10   33 1
    25   11   16 1
    26   11   20 1
    27   11   12 1
    28   12   13 1
    29   12   34 1
    30   12   35 1
    31   13   19 1
    32   13   14 1
    33   13   36 1
    34   14   15 1
    35   14   37 1
    36   14   38 1
    37   15   16 1
    38   15   17 1
    39   15   39 1
    40   16   40 1
    41   16   41 1
    42   17   18 1
    43   17   42 1
    44   17   43 1
    45   18   19 1
    46   18   20 1
    47   18   44 1
    48   19   45 1
    49   19   46 1
    50   20   47 1
    51   20   48 1
@<TRIPOS>MOLECULE
ZINC28710524
   49    52     0     0     0
SMALL
USER_CHARGES

@<TRIPOS>ATOM
      1 C1         -0.0187    1.5258    0.0104 C.3       1 <0>        -0.1259
      2 C2          1.4167    2.0553   -0.0004 C.3       1 <0>        -0.1130
      3 C3          2.1328    1.5619   -1.2592 C.3       1 <0>         0.1030
      4 C4          2.1536    0.0321   -1.2676 C.3       1 <0>        -0.1486
      5 C5          0.7182   -0.4975   -1.2568 C.3       1 <0>        -0.1296
      6 C6          0.0021   -0.0041    0.0020 C.3       1 <0>         0.1634
      7 N1          0.7106   -0.4894    1.1889 N.am      1 <0>        -0.7414
      8 C7          0.4461   -1.7177    1.6763 C.2       1 <0>         0.7063
      9 O1         -0.3806   -2.4231    1.1310 O.2       1 <0>        -0.5835
     10 N2          1.0980   -2.1642    2.7682 N.am      1 <0>        -0.7427
     11 C8          0.8104   -3.4994    3.2981 C.3       1 <0>         0.2035
     12 C9          1.1181   -4.5496    2.2288 C.3       1 <0>        -0.1213
     13 C10         0.8178   -5.9440    2.7821 C.3       1 <0>        -0.0828
     14 C11         1.6868   -6.2016    4.0148 C.3       1 <0>        -0.1114
     15 C12         1.3791   -5.1514    5.0841 C.3       1 <0>        -0.0800
     16 C13         1.6794   -3.7570    4.5307 C.3       1 <0>        -0.1148
     17 C14        -0.0978   -5.2382    5.4741 C.3       1 <0>        -0.1114
     18 C15        -0.9668   -4.9806    4.2414 C.3       1 <0>        -0.0828
     19 C16        -0.6591   -6.0308    3.1721 C.3       1 <0>        -0.1088
     20 C17        -0.6665   -3.5862    3.6881 C.3       1 <0>        -0.1217
     21 O2          3.4735    2.0566   -1.2694 O.3       1 <0>        -0.5696
     22 H1         -0.5289    1.8773    0.9072 H         1 <0>         0.0772
     23 H2         -0.5459    1.8868   -0.8726 H         1 <0>         0.0828
     24 H3          1.4019    3.1452    0.0056 H         1 <0>         0.0741
     25 H4          1.9439    1.6943    0.8826 H         1 <0>         0.0665
     26 H5          1.6057    1.9230   -2.1423 H         1 <0>         0.0564
     27 H6          2.6638   -0.3194   -2.1644 H         1 <0>         0.0637
     28 H7          2.6808   -0.3290   -0.3846 H         1 <0>         0.0694
     29 H8          0.1910   -0.1364   -2.1398 H         1 <0>         0.0728
     30 H9          0.7330   -1.5874   -1.2628 H         1 <0>         0.0731
     31 H10        -1.0205   -0.3814    0.0098 H         1 <0>         0.0922
     32 H11         1.3702    0.0734    1.6239 H         1 <0>         0.3936
     33 H12         1.7575   -1.6015    3.2032 H         1 <0>         0.3930
     34 H13         0.4990   -4.3661    1.3506 H         1 <0>         0.0873
     35 H14         2.1703   -4.4878    1.9509 H         1 <0>         0.0565
     36 H15         1.0370   -6.6922    2.0203 H         1 <0>         0.0711
     37 H16         1.4728   -7.1950    4.4090 H         1 <0>         0.0646
     38 H17         2.7389   -6.1398    3.7369 H         1 <0>         0.0618
     39 H18         1.9982   -5.3349    5.9623 H         1 <0>         0.0745
     40 H19         2.7316   -3.6952    4.2529 H         1 <0>         0.0673
     41 H20         1.4602   -3.0088    5.2925 H         1 <0>         0.0675
     42 H21        -0.3118   -6.2316    5.8683 H         1 <0>         0.0646
     43 H22        -0.3170   -4.4900    6.2359 H         1 <0>         0.0619
     44 H23        -2.0190   -5.0425    4.5193 H         1 <0>         0.0713
     45 H24        -1.2782   -5.8473    2.2939 H         1 <0>         0.0648
     46 H25        -0.8731   -7.0242    3.5663 H         1 <0>         0.0619
     47 H26        -0.8857   -2.8380    4.4499 H         1 <0>         0.0569
     48 H27        -1.2856   -3.4027    2.8099 H         1 <0>         0.0875
     49 H28         3.9880    1.7824   -2.0409 H         1 <0>         0.3792
@<TRIPOS>BOND
     1    1    6 1
     2    1    2 1
     3    1   22 1
     4    1   23 1
     5    2    3 1
     6    2   24 1
     7    2   25 1
     8    3    4 1
     9    3   21 1
    10    3   26 1
    11    4    5 1
    12    4   27 1
    13    4   28 1
    14    5    6 1
    15    5   29 1
    16    5   30 1
    17    6    7 1
    18    6   31 1
    19    7    8 am
    20    7   32 1
    21    8    9 2
    22    8   10 am
    23   10   11 1
    24   10   33 1
    25   11   16 1
    26   11   20 1
    27   11   12 1
    28   12   13 1
    29   12   34 1
    30   12   35 1
    31   13   19 1
    32   13   14 1
    33   13   36 1
    34   14   15 1
    35   14   37 1
    36   14   38 1
    37   15   16 1
    38   15   17 1
    39   15   39 1
    40   16   40 1
    41   16   41 1
    42   17   18 1
    43   17   42 1
    44   17   43 1
    45   18   19 1
    46   18   20 1
    47   18   44 1
    48   19   45 1
    49   19   46 1
    50   20   47 1
    51   20   48 1
    52   21   49 1
@<TRIPOS>MOLECULE
ZINC02882943
   42    44     0     0     0
SMALL
USER_CHARGES

@<TRIPOS>ATOM
      1 C1         -0.0187    1.5258    0.0104 C.3       1 <0>        -0.1115
      2 C2          1.4167    2.0553   -0.0004 C.3       1 <0>        -0.0828
      3 C3          2.1567    1.5485    1.2391 C.3       1 <0>        -0.1092
      4 C4          2.1775    0.0187    1.2307 C.3       1 <0>        -0.0828
      5 C5          0.7421   -0.5109    1.2415 C.3       1 <0>        -0.1115
      6 C6          0.0021   -0.0041    0.0020 C.3       1 <0>        -0.0802
      7 C7          0.7182   -0.4975   -1.2568 C.3       1 <0>        -0.1146
      8 C8          2.1536    0.0321   -1.2676 C.3       1 <0>         0.2024
      9 C9          2.1328    1.5619   -1.2592 C.3       1 <0>        -0.1223
     10 C10         2.8936   -0.4747   -0.0281 C.3       1 <0>        -0.1223
     11 N1          2.8393   -0.4404   -2.4730 N.am      1 <0>        -0.7415
     12 C11         4.1230   -0.0961   -2.6967 C.2       1 <0>         0.7059
     13 O1          4.7120    0.6066   -1.8981 O.2       1 <0>        -0.5829
     14 N2          4.7539   -0.5307   -3.8055 N.am      1 <0>        -0.7486
     15 C12         6.1492   -0.1565   -4.0487 C.3       1 <0>         0.1420
     16 C13         6.6214   -0.7762   -5.3655 C.3       1 <0>        -0.1335
     17 C14         8.0787   -0.3853   -5.6195 C.3       1 <0>         0.0791
     18 O2          8.5196   -0.9641   -6.8494 O.3       1 <0>        -0.5754
     19 H1         -0.5289    1.8773    0.9072 H         1 <0>         0.0648
     20 H2         -0.5459    1.8868   -0.8726 H         1 <0>         0.0621
     21 H3          1.4019    3.1452    0.0056 H         1 <0>         0.0717
     22 H4          3.1793    1.9258    1.2314 H         1 <0>         0.0649
     23 H5          1.6465    1.9000    2.1359 H         1 <0>         0.0622
     24 H6          2.7046   -0.3424    2.1137 H         1 <0>         0.0717
     25 H7          0.7568   -1.6008    1.2355 H         1 <0>         0.0621
     26 H8          0.2319   -0.1594    2.1383 H         1 <0>         0.0648
     27 H9         -1.0205   -0.3814    0.0098 H         1 <0>         0.0749
     28 H10         0.7330   -1.5874   -1.2628 H         1 <0>         0.0678
     29 H11         0.1910   -0.1364   -2.1398 H         1 <0>         0.0678
     30 H12         1.6057    1.9230   -2.1423 H         1 <0>         0.0575
     31 H13         3.1554    1.9392   -1.2670 H         1 <0>         0.0872
     32 H14         3.9162   -0.0975   -0.0359 H         1 <0>         0.0872
     33 H15         2.9084   -1.5646   -0.0341 H         1 <0>         0.0575
     34 H16         2.3694   -1.0010   -3.1100 H         1 <0>         0.3940
     35 H17         4.2840   -1.0913   -4.4426 H         1 <0>         0.3962
     36 H18         6.2292    0.9289   -4.1086 H         1 <0>         0.0684
     37 H19         6.7711   -0.5221   -3.2316 H         1 <0>         0.0684
     38 H20         6.5414   -1.8616   -5.3056 H         1 <0>         0.0767
     39 H21         5.9995   -0.4106   -6.1827 H         1 <0>         0.0767
     40 H22         8.1586    0.7001   -5.6794 H         1 <0>         0.0504
     41 H23         8.7006   -0.7509   -4.8023 H         1 <0>         0.0504
     42 H24         9.4371   -0.7575   -7.0746 H         1 <0>         0.3843
@<TRIPOS>BOND
     1    1    6 1
     2    1    2 1
     3    1   19 1
     4    1   20 1
     5    2    9 1
     6    2    3 1
     7    2   21 1
     8    3    4 1
     9    3   22 1
    10    3   23 1
    11    4   10 1
    12    4    5 1
    13    4   24 1
    14    5    6 1
    15    5   25 1
    16    5   26 1
    17    6    7 1
    18    6   27 1
    19    7    8 1
    20    7   28 1
    21    7   29 1
    22    8    9 1
    23    8   10 1
    24    8   11 1
    25    9   30 1
    26    9   31 1
    27   10   32 1
    28   10   33 1
    29   11   12 am
    30   11   34 1
    31   12   13 2
    32   12   14 am
    33   14   15 1
    34   14   35 1
    35   15   16 1
    36   15   36 1
    37   15   37 1
    38   16   17 1
    39   16   38 1
    40   16   39 1
    41   17   18 1
    42   17   40 1
    43   17   41 1
    44   18   42 1
@<TRIPOS>MOLECULE
ZINC12416741
   28    29     0     0     0
SMALL
USER_CHARGES

@<TRIPOS>ATOM
      1 C1          0.0097    1.3775    0.6732 C.ar      1 <0>        -0.1351
      2 C2          0.2637    0.2182    1.3829 C.ar      1 <0>        -0.0994
      3 C3          1.4548   -0.4570    1.2021 C.ar      1 <0>        -0.1204
      4 C4          2.3979    0.0294    0.3063 C.ar      1 <0>         0.1603
      5 C5          2.1398    1.1939   -0.4050 C.ar      1 <0>        -0.1467
      6 C6          0.9467    1.8645   -0.2196 C.ar      1 <0>        -0.0997
      7 N1          3.6059   -0.6522    0.1210 N.am      1 <0>        -0.6820
      8 C7          3.6434   -1.9959    0.2188 C.2       1 <0>         0.7035
      9 O1          2.6135   -2.6231    0.3741 O.2       1 <0>        -0.5516
     10 N2          4.8226   -2.6443    0.1444 N.am      1 <0>        -0.6819
     11 C8          4.8525   -4.0433    0.1369 C.ar      1 <0>         0.1605
     12 C9          3.8237   -4.7580   -0.4624 C.ar      1 <0>        -0.1206
     13 C10         3.8564   -6.1388   -0.4686 C.ar      1 <0>        -0.0993
     14 C11         4.9121   -6.8095    0.1211 C.ar      1 <0>        -0.1352
     15 C12         5.9379   -6.1007    0.7190 C.ar      1 <0>        -0.0996
     16 C13         5.9140   -4.7198    0.7235 C.ar      1 <0>        -0.1469
     17 H1         -0.9244    1.9013    0.8131 H         1 <0>         0.1242
     18 H2         -0.4700   -0.1593    2.0797 H         1 <0>         0.1263
     19 H3          1.6527   -1.3622    1.7570 H         1 <0>         0.1355
     20 H4          2.8714    1.5749   -1.1021 H         1 <0>         0.1251
     21 H5          0.7453    2.7700   -0.7726 H         1 <0>         0.1272
     22 H6          4.4163   -0.1575   -0.0777 H         1 <0>         0.4087
     23 H7          5.6505   -2.1412    0.0961 H         1 <0>         0.4087
     24 H8          2.9986   -4.2348   -0.9227 H         1 <0>         0.1355
     25 H9          3.0563   -6.6952   -0.9341 H         1 <0>         0.1264
     26 H10         4.9354   -7.8892    0.1149 H         1 <0>         0.1242
     27 H11         6.7610   -6.6274    1.1789 H         1 <0>         0.1272
     28 H12         6.7179   -4.1667    1.1864 H         1 <0>         0.1251
@<TRIPOS>BOND
     1    1    6 ar
     2    1    2 ar
     3    1   17 1
     4    2    3 ar
     5    2   18 1
     6    3    4 ar
     7    3   19 1
     8    4    5 ar
     9    4    7 1
    10    5    6 ar
    11    5   20 1
    12    6   21 1
    13    7    8 am
    14    7   22 1
    15    8    9 2
    16    8   10 am
    17   10   11 1
    18   10   23 1
    19   11   16 ar
    20   11   12 ar
    21   12   13 ar
    22   12   24 1
    23   13   14 ar
    24   13   25 1
    25   14   15 ar
    26   14   26 1
    27   15   16 ar
    28   15   27 1
    29   16   28 1
@<TRIPOS>MOLECULE
ZINC00065313
   34    35     0     0     0
SMALL
USER_CHARGES

@<TRIPOS>ATOM
      1 C1         -0.0153    1.3805    0.0311 C.ar      1 <0>        -0.1379
      2 C2          0.1397    0.2186    0.7646 C.ar      1 <0>        -0.1000
      3 C3          1.3441   -0.4572    0.7442 C.ar      1 <0>        -0.1212
      4 C4          2.3999    0.0314   -0.0139 C.ar      1 <0>         0.1646
      5 C5          2.2411    1.1985   -0.7495 C.ar      1 <0>        -0.1498
      6 C6          1.0342    1.8696   -0.7249 C.ar      1 <0>        -0.0999
      7 N1          3.6217   -0.6508   -0.0363 N.am      1 <0>        -0.6880
      8 C7          3.6448   -1.9950    0.0580 C.2       1 <0>         0.7034
      9 O1          2.6030   -2.6219    0.0652 O.2       1 <0>        -0.5695
     10 N2          4.8227   -2.6444    0.1444 N.am      1 <0>        -0.7382
     11 C8          4.8478   -4.1055    0.2469 C.3       1 <0>         0.1629
     12 C9          4.7810   -4.7164   -1.1542 C.3       1 <0>        -0.1305
     13 C10         4.8073   -6.2424   -1.0472 C.3       1 <0>        -0.1177
     14 C11         6.1011   -6.6832   -0.3597 C.3       1 <0>        -0.1230
     15 C12         6.1678   -6.0724    1.0415 C.3       1 <0>        -0.1162
     16 C13         6.1416   -4.5464    0.9344 C.3       1 <0>        -0.1264
     17 H1         -0.9595    1.9047    0.0451 H         1 <0>         0.1231
     18 H2         -0.6817   -0.1607    1.3543 H         1 <0>         0.1253
     19 H3          1.4646   -1.3645    1.3176 H         1 <0>         0.1349
     20 H4          3.0605    1.5812   -1.3398 H         1 <0>         0.1239
     21 H5          0.9101    2.7774   -1.2967 H         1 <0>         0.1260
     22 H6          4.4519   -0.1561   -0.1198 H         1 <0>         0.4063
     23 H7          5.6538   -2.1442    0.1387 H         1 <0>         0.3967
     24 H8          3.9923   -4.4435    0.8317 H         1 <0>         0.0901
     25 H9          3.8593   -4.4023   -1.6440 H         1 <0>         0.0680
     26 H10         5.6366   -4.3784   -1.7390 H         1 <0>         0.0627
     27 H11         3.9518   -6.5803   -0.4624 H         1 <0>         0.0652
     28 H12         4.7597   -6.6775   -2.0454 H         1 <0>         0.0656
     29 H13         6.1198   -7.7704   -0.2834 H         1 <0>         0.0650
     30 H14         6.9566   -6.3453   -0.9445 H         1 <0>         0.0627
     31 H15         5.3123   -6.4104    1.6263 H         1 <0>         0.0662
     32 H16         7.0896   -6.3865    1.5312 H         1 <0>         0.0684
     33 H17         6.9971   -4.2085    0.3496 H         1 <0>         0.0682
     34 H18         6.1892   -4.1112    1.9326 H         1 <0>         0.0692
@<TRIPOS>BOND
     1    1    6 ar
     2    1    2 ar
     3    1   17 1
     4    2    3 ar
     5    2   18 1
     6    3    4 ar
     7    3   19 1
     8    4    5 ar
     9    4    7 1
    10    5    6 ar
    11    5   20 1
    12    6   21 1
    13    7    8 am
    14    7   22 1
    15    8    9 2
    16    8   10 am
    17   10   11 1
    18   10   23 1
    19   11   16 1
    20   11   12 1
    21   11   24 1
    22   12   13 1
    23   12   25 1
    24   12   26 1
    25   13   14 1
    26   13   27 1
    27   13   28 1
    28   14   15 1
    29   14   29 1
    30   14   30 1
    31   15   16 1
    32   15   31 1
    33   15   32 1
    34   16   33 1
    35   16   34 1
@<TRIPOS>MOLECULE
ZINC36330662
   60    63     0     0     0
SMALL
USER_CHARGES

@<TRIPOS>ATOM
      1 C1         -0.0187    1.5258    0.0104 C.3       1 <0>        -0.1590
      2 C2          0.0021   -0.0041    0.0020 C.3       1 <0>        -0.1216
      3 C3          0.7182   -0.4975   -1.2568 C.3       1 <0>        -0.1495
      4 C4          0.7390   -2.0273   -1.2652 C.3       1 <0>        -0.0109
      5 N1          1.4265   -2.5011   -2.4738 N.4       1 <0>        -0.3847
      6 C5          2.8336   -2.0855   -2.4291 C.3       1 <0>        -0.0056
      7 C6          3.5349   -2.5060   -3.7225 C.3       1 <0>        -0.1556
      8 C7          3.4550   -4.0283   -3.8684 C.3       1 <0>         0.1570
      9 C8          1.9853   -4.4577   -3.8391 C.3       1 <0>        -0.1611
     10 C9          1.3414   -3.9649   -2.5414 C.3       1 <0>        -0.0023
     11 N2          4.0576   -4.4308   -5.1416 N.am      1 <0>        -0.7476
     12 C10         4.5604   -5.6728   -5.2865 C.2       1 <0>         0.7076
     13 O1          4.5138   -6.4594   -4.3604 O.2       1 <0>        -0.5777
     14 N3          5.1148   -6.0431   -6.4578 N.am      1 <0>        -0.7345
     15 C11         5.6613   -7.3932   -6.6152 C.3       1 <0>         0.2007
     16 C12         4.5515   -8.4220   -6.3900 C.3       1 <0>        -0.1191
     17 C13         5.1222   -9.8321   -6.5544 C.3       1 <0>        -0.0832
     18 C14         5.6870   -9.9921   -7.9674 C.3       1 <0>        -0.1133
     19 C15         6.7968   -8.9632   -8.1926 C.3       1 <0>        -0.0809
     20 C16         6.2260   -7.5532   -8.0282 C.3       1 <0>        -0.1150
     21 C17         7.9125   -9.1843   -7.1693 C.3       1 <0>        -0.1134
     22 C18         7.3478   -9.0243   -5.7564 C.3       1 <0>        -0.0833
     23 C19         6.2380  -10.0532   -5.5312 C.3       1 <0>        -0.1098
     24 C20         6.7770   -7.6143   -5.5920 C.3       1 <0>        -0.1201
     25 H1          1.0039    1.9031    0.0027 H         1 <0>         0.0589
     26 H2         -0.5459    1.8868   -0.8726 H         1 <0>         0.0591
     27 H3         -0.5289    1.8773    0.9072 H         1 <0>         0.0671
     28 H4          0.5293   -0.3651    0.8851 H         1 <0>         0.0734
     29 H5         -1.0205   -0.3814    0.0098 H         1 <0>         0.0735
     30 H6          0.1910   -0.1364   -2.1398 H         1 <0>         0.0863
     31 H7          1.7408   -0.1202   -1.2645 H         1 <0>         0.0865
     32 H8          1.2661   -2.3884   -0.3821 H         1 <0>         0.1306
     33 H9         -0.2836   -2.4046   -1.2575 H         1 <0>         0.1317
     34 H10         2.8888   -1.0022   -2.3221 H         1 <0>         0.1370
     35 H11         3.3251   -2.5592   -1.5793 H         1 <0>         0.1329
     36 H12         3.0444   -2.0326   -4.5730 H         1 <0>         0.0933
     37 H13         4.5799   -2.1981   -3.6866 H         1 <0>         0.1189
     38 H14         3.9896   -4.5020   -3.0450 H         1 <0>         0.1056
     39 H15         1.4626   -4.0248   -4.6920 H         1 <0>         0.0884
     40 H16         1.9227   -5.5448   -3.8865 H         1 <0>         0.1182
     41 H17         1.8647   -4.3985   -1.6892 H         1 <0>         0.1320
     42 H18         0.2950   -4.2690   -2.5172 H         1 <0>         0.1335
     43 H19         4.0948   -3.8033   -5.8804 H         1 <0>         0.4001
     44 H20         5.1520   -5.4156   -7.1966 H         1 <0>         0.3961
     45 H21         4.1492   -8.3080   -5.3834 H         1 <0>         0.0842
     46 H22         3.7566   -8.2645   -7.1190 H         1 <0>         0.0573
     47 H23         4.3316  -10.5650   -6.3940 H         1 <0>         0.0732
     48 H24         6.0936  -10.9966   -8.0845 H         1 <0>         0.0679
     49 H25         4.8921   -9.8346   -8.6964 H         1 <0>         0.0630
     50 H26         7.1991   -9.0772   -9.1992 H         1 <0>         0.0779
     51 H27         5.4311   -7.3957   -8.7572 H         1 <0>         0.0685
     52 H28         7.0166   -6.8202   -8.1886 H         1 <0>         0.0689
     53 H29         8.3191  -10.1888   -7.2865 H         1 <0>         0.0679
     54 H30         8.7031   -8.4513   -7.3298 H         1 <0>         0.0633
     55 H31         8.1427   -9.1818   -5.0274 H         1 <0>         0.0736
     56 H32         5.8357   -9.9391   -4.5246 H         1 <0>         0.0638
     57 H33         6.6446  -11.0577   -5.6483 H         1 <0>         0.0653
     58 H34         7.5677   -6.8813   -5.7524 H         1 <0>         0.0580
     59 H35         6.3747   -7.5003   -4.5854 H         1 <0>         0.0847
     60 H36         0.9857   -2.1016   -3.2888 H         1 <0>         0.4221
@<TRIPOS>BOND
     1    1    2 1
     2    1   25 1
     3    1   26 1
     4    1   27 1
     5    2    3 1
     6    2   28 1
     7    2   29 1
     8    3    4 1
     9    3   30 1
    10    3   31 1
    11    4    5 1
    12    4   32 1
    13    4   33 1
    14    5   10 1
    15    5    6 1
    16    5   60 1
    17    6    7 1
    18    6   34 1
    19    6   35 1
    20    7    8 1
    21    7   36 1
    22    7   37 1
    23    8    9 1
    24    8   11 1
    25    8   38 1
    26    9   10 1
    27    9   39 1
    28    9   40 1
    29   10   41 1
    30   10   42 1
    31   11   12 am
    32   11   43 1
    33   12   13 2
    34   12   14 am
    35   14   15 1
    36   14   44 1
    37   15   20 1
    38   15   24 1
    39   15   16 1
    40   16   17 1
    41   16   45 1
    42   16   46 1
    43   17   23 1
    44   17   18 1
    45   17   47 1
    46   18   19 1
    47   18   48 1
    48   18   49 1
    49   19   20 1
    50   19   21 1
    51   19   50 1
    52   20   51 1
    53   20   52 1
    54   21   22 1
    55   21   53 1
    56   21   54 1
    57   22   23 1
    58   22   24 1
    59   22   55 1
    60   23   56 1
    61   23   57 1
    62   24   58 1
    63   24   59 1
@<TRIPOS>MOLECULE
ZINC05041294
   61    65     0     0     0
SMALL
USER_CHARGES
3-(1-adamantyl)-1-(1-benzyl-4-piperidyl)-urea
@<TRIPOS>ATOM
      1 C1         -0.2536   11.8972   -7.6055 C.ar      1 <0>        -0.0839
      2 C2         -1.0451   10.7812   -7.8028 C.ar      1 <0>        -0.1134
      3 C3         -2.0605   10.4878   -6.9119 C.ar      1 <0>        -0.0965
      4 C4         -2.2847   11.3105   -5.8239 C.ar      1 <0>        -0.1636
      5 C5         -1.4968   12.4297   -5.6297 C.ar      1 <0>        -0.0945
      6 C6         -0.4778   12.7200   -6.5175 C.ar      1 <0>        -0.1136
      7 C7         -3.3920   10.9909   -4.8529 C.3       1 <0>         0.0490
      8 C8         -3.8498    9.9896   -2.6969 C.3       1 <0>         0.0040
      9 C9         -3.2216    9.2094   -1.5399 C.3       1 <0>        -0.1572
     10 C10        -2.7847    7.8293   -2.0390 C.3       1 <0>         0.1574
     11 C11        -1.8034    8.0029   -3.2015 C.3       1 <0>        -0.1599
     12 C12        -2.4726    8.8181   -4.3103 C.3       1 <0>        -0.0025
     13 N1         -2.1300    7.0997   -0.9504 N.am      1 <0>        -0.7476
     14 C13        -2.1118    5.7520   -0.9578 C.2       1 <0>         0.7077
     15 O1         -2.6386    5.1419   -1.8680 O.2       1 <0>        -0.5776
     16 N2         -1.5095    5.0807    0.0438 N.am      1 <0>        -0.7348
     17 C14        -1.4896    3.6159    0.0357 C.3       1 <0>         0.2009
     18 C15        -0.7734    3.1225   -1.2231 C.3       1 <0>        -0.1190
     19 C16        -0.7527    1.5927   -1.2315 C.3       1 <0>        -0.0832
     20 C17        -0.0127    1.0858    0.0080 C.3       1 <0>        -0.1132
     21 C18        -0.7288    1.5792    1.2668 C.3       1 <0>        -0.0808
     22 C19        -0.7496    3.1091    1.2752 C.3       1 <0>        -0.1151
     23 C20        -2.1642    1.0497    1.2777 C.3       1 <0>        -0.1134
     24 C21        -2.9042    1.5565    0.0381 C.3       1 <0>        -0.0833
     25 C22        -2.1881    1.0631   -1.2207 C.3       1 <0>        -0.1097
     26 C23        -2.9250    3.0863    0.0466 C.3       1 <0>        -0.1200
     27 H1          0.5402   12.1261   -8.3011 H         1 <0>         0.1358
     28 H2         -0.8700   10.1384   -8.6528 H         1 <0>         0.1362
     29 H3         -2.6790    9.6158   -7.0660 H         1 <0>         0.1315
     30 H4         -1.6748   13.0749   -4.7821 H         1 <0>         0.1309
     31 H5          0.1409   13.5917   -6.3632 H         1 <0>         0.1359
     32 H6         -4.1964   10.4742   -5.3764 H         1 <0>         0.1375
     33 H7         -3.7746   11.9156   -4.4209 H         1 <0>         0.1357
     34 H8         -4.7253    9.4536   -3.0634 H         1 <0>         0.1350
     35 H9         -4.1490   10.9781   -2.3483 H         1 <0>         0.1345
     36 H10        -3.9531    9.0924   -0.7403 H         1 <0>         0.1192
     37 H11        -2.3542    9.7517   -1.1638 H         1 <0>         0.0929
     38 H12        -3.6576    7.2715   -2.3781 H         1 <0>         0.1056
     39 H13        -0.9136    8.5263   -2.8515 H         1 <0>         0.0871
     40 H14        -1.5216    7.0239   -3.5891 H         1 <0>         0.1169
     41 H15        -3.3545    8.2875   -4.6693 H         1 <0>         0.1333
     42 H16        -1.7716    8.9556   -5.1336 H         1 <0>         0.1313
     43 H17        -1.7097    7.5864   -0.2242 H         1 <0>         0.4000
     44 H18        -1.0891    5.5675    0.7699 H         1 <0>         0.3961
     45 H19         0.2491    3.4998   -1.2308 H         1 <0>         0.0571
     46 H20        -1.3006    3.4836   -2.1062 H         1 <0>         0.0843
     47 H21        -0.2425    1.2411   -2.1283 H         1 <0>         0.0731
     48 H22         0.0021   -0.0041    0.0020 H         1 <0>         0.0678
     49 H23         1.0099    1.4631    0.0003 H         1 <0>         0.0629
     50 H24        -0.2017    1.2182    2.1499 H         1 <0>         0.0778
     51 H25        -1.2598    3.4606    2.1720 H         1 <0>         0.0688
     52 H26         0.2730    3.4864    1.2675 H         1 <0>         0.0684
     53 H27        -2.6744    1.4012    2.1745 H         1 <0>         0.0633
     54 H28        -2.1494   -0.0402    1.2717 H         1 <0>         0.0677
     55 H29        -3.9268    1.1792    0.0459 H         1 <0>         0.0736
     56 H30        -2.7153    1.4241   -2.1037 H         1 <0>         0.0638
     57 H31        -2.1733   -0.0268   -1.2266 H         1 <0>         0.0651
     58 H32        -3.4522    3.4474   -0.8365 H         1 <0>         0.0848
     59 H33        -3.4352    3.4378    0.9434 H         1 <0>         0.0580
     60 N3         -2.8470   10.1432   -3.7724 N.4       1 <0>        -0.3940
     61 H34        -2.0097   10.5940   -3.3852 H         1 <0>         0.4256
@<TRIPOS>BOND
     1    1    6 ar
     2    1    2 ar
     3    1   27 1
     4    2    3 ar
     5    2   28 1
     6    3    4 ar
     7    3   29 1
     8    4    5 ar
     9    4    7 1
    10    5    6 ar
    11    5   30 1
    12    6   31 1
    13    7   32 1
    14    7   33 1
    15    7   60 1
    16    8    9 1
    17    8   34 1
    18    8   35 1
    19    8   60 1
    20    9   10 1
    21    9   36 1
    22    9   37 1
    23   10   11 1
    24   10   13 1
    25   10   38 1
    26   11   12 1
    27   11   39 1
    28   11   40 1
    29   12   41 1
    30   12   42 1
    31   12   60 1
    32   13   14 am
    33   13   43 1
    34   14   15 2
    35   14   16 am
    36   16   17 1
    37   16   44 1
    38   17   22 1
    39   17   26 1
    40   17   18 1
    41   18   19 1
    42   18   45 1
    43   18   46 1
    44   19   25 1
    45   19   20 1
    46   19   47 1
    47   20   21 1
    48   20   48 1
    49   20   49 1
    50   21   22 1
    51   21   23 1
    52   21   50 1
    53   22   51 1
    54   22   52 1
    55   23   24 1
    56   23   53 1
    57   23   54 1
    58   24   25 1
    59   24   26 1
    60   24   55 1
    61   25   56 1
    62   25   57 1
    63   26   58 1
    64   26   59 1
    65   60   61 1
@<TRIPOS>MOLECULE
ZINC01643992
   39    41     0     0     0
SMALL
USER_CHARGES
1-(1-adamantyl)-3-(2-hydroxyethyl)urea
@<TRIPOS>ATOM
      1 C1         -0.0127    1.0858    0.0080 C.3       1 <0>        -0.1114
      2 C2         -0.7288    1.5792    1.2668 C.3       1 <0>        -0.0829
      3 C3         -0.7496    3.1091    1.2752 C.3       1 <0>        -0.1091
      4 C4         -1.4896    3.6159    0.0357 C.3       1 <0>        -0.0828
      5 C5         -0.7734    3.1225   -1.2231 C.3       1 <0>        -0.1113
      6 C6         -0.7527    1.5927   -1.2315 C.3       1 <0>        -0.0802
      7 C7         -2.1881    1.0631   -1.2207 C.3       1 <0>        -0.1146
      8 C8         -2.9042    1.5565    0.0381 C.3       1 <0>         0.2027
      9 C9         -2.1642    1.0497    1.2777 C.3       1 <0>        -0.1224
     10 C10        -2.9250    3.0863    0.0466 C.3       1 <0>        -0.1221
     11 N1         -4.2786    1.0494    0.0485 N.am      1 <0>        -0.7417
     12 C11        -5.1031    1.3582    1.0690 C.2       1 <0>         0.7053
     13 O1         -4.7063    2.0577    1.9809 O.2       1 <0>        -0.5852
     14 N2         -6.3676    0.8917    1.0785 N.am      1 <0>        -0.7434
     15 C12        -7.2638    1.2274    2.1877 C.3       1 <0>         0.1391
     16 C13        -8.6290    0.5769    1.9551 C.3       1 <0>         0.0626
     17 O2         -8.4923   -0.8449    1.9965 O.3       1 <0>        -0.5719
     18 H1          0.0021   -0.0041    0.0020 H         1 <0>         0.0621
     19 H2          1.0099    1.4631    0.0003 H         1 <0>         0.0646
     20 H3         -0.2017    1.2182    2.1499 H         1 <0>         0.0716
     21 H4         -1.2598    3.4606    2.1720 H         1 <0>         0.0649
     22 H5          0.2730    3.4864    1.2675 H         1 <0>         0.0620
     23 H6         -1.5044    4.7058    0.0417 H         1 <0>         0.0715
     24 H7          0.2491    3.4998   -1.2308 H         1 <0>         0.0646
     25 H8         -1.3006    3.4836   -2.1062 H         1 <0>         0.0619
     26 H9         -0.2425    1.2411   -2.1283 H         1 <0>         0.0746
     27 H10        -2.7153    1.4241   -2.1037 H         1 <0>         0.0675
     28 H11        -2.1733   -0.0268   -1.2266 H         1 <0>         0.0678
     29 H12        -2.6744    1.4012    2.1745 H         1 <0>         0.0873
     30 H13        -2.1494   -0.0402    1.2717 H         1 <0>         0.0575
     31 H14        -3.4522    3.4474   -0.8365 H         1 <0>         0.0571
     32 H15        -3.4352    3.4378    0.9434 H         1 <0>         0.0873
     33 H16        -4.5952    0.4914   -0.6790 H         1 <0>         0.3937
     34 H17        -6.6842    0.3337    0.3510 H         1 <0>         0.3975
     35 H18        -6.8400    0.8586    3.1217 H         1 <0>         0.0735
     36 H19        -7.3819    2.3095    2.2447 H         1 <0>         0.0807
     37 H20        -9.3218    0.8982    2.7329 H         1 <0>         0.0653
     38 H21        -9.0129    0.8768    0.9800 H         1 <0>         0.0530
     39 H22        -9.3206   -1.3239    1.8564 H         1 <0>         0.3831
@<TRIPOS>BOND
     1    1    6 1
     2    1    2 1
     3    1   18 1
     4    1   19 1
     5    2    9 1
     6    2    3 1
     7    2   20 1
     8    3    4 1
     9    3   21 1
    10    3   22 1
    11    4   10 1
    12    4    5 1
    13    4   23 1
    14    5    6 1
    15    5   24 1
    16    5   25 1
    17    6    7 1
    18    6   26 1
    19    7    8 1
    20    7   27 1
    21    7   28 1
    22    8    9 1
    23    8   10 1
    24    8   11 1
    25    9   29 1
    26    9   30 1
    27   10   31 1
    28   10   32 1
    29   11   12 am
    30   11   33 1
    31   12   13 2
    32   12   14 am
    33   14   15 1
    34   14   34 1
    35   15   16 1
    36   15   35 1
    37   15   36 1
    38   16   17 1
    39   16   37 1
    40   16   38 1
    41   17   39 1
@<TRIPOS>MOLECULE
ZINC36330562
   52    55     0     0     0
SMALL
USER_CHARGES

@<TRIPOS>ATOM
      1 C1         -0.0184    1.5028    0.0103 C.3       1 <0>        -0.1752
      2 C2          0.0021   -0.0041    0.0020 C.2       1 <0>         0.5124
      3 O1          1.0605   -0.5961   -0.0113 O.2       1 <0>        -0.5440
      4 N1         -1.1558   -0.6938    0.0094 N.am      1 <0>        -0.6173
      5 C3         -2.4459    0.0093    0.0193 C.3       1 <0>         0.1110
      6 C4         -3.2826   -0.5121    1.1918 C.3       1 <0>        -0.1438
      7 C5         -3.3975   -2.0350    1.0938 C.3       1 <0>         0.1657
      8 C6         -2.0032   -2.6601    1.1798 C.3       1 <0>        -0.1431
      9 C7         -1.1521   -2.1630    0.0014 C.3       1 <0>         0.1128
     10 N2         -4.2248   -2.5339    2.1952 N.am      1 <0>        -0.7454
     11 C8         -4.8813   -3.7041    2.0684 C.2       1 <0>         0.7066
     12 O2         -4.7870   -4.3458    1.0399 O.2       1 <0>        -0.5813
     13 N3         -5.6423   -4.1631    3.0816 N.am      1 <0>        -0.7418
     14 C9         -6.3560   -5.4351    2.9438 C.3       1 <0>         0.2030
     15 C10        -5.3491   -6.5607    2.6984 C.3       1 <0>        -0.1217
     16 C11        -6.0944   -7.8892    2.5545 C.3       1 <0>        -0.0829
     17 C12        -6.8777   -8.1761    3.8371 C.3       1 <0>        -0.1116
     18 C13        -7.8845   -7.0504    4.0824 C.3       1 <0>        -0.0801
     19 C14        -7.1393   -5.7220    4.2263 C.3       1 <0>        -0.1145
     20 C15        -8.8533   -6.9663    2.9012 C.3       1 <0>        -0.1115
     21 C16        -8.0700   -6.6794    1.6186 C.3       1 <0>        -0.0828
     22 C17        -7.0632   -7.8050    1.3733 C.3       1 <0>        -0.1090
     23 C18        -7.3247   -5.3510    1.7625 C.3       1 <0>        -0.1214
     24 H1          1.0042    1.8801    0.0026 H         1 <0>         0.0929
     25 H2         -0.5455    1.8639   -0.8728 H         1 <0>         0.0889
     26 H3         -0.5286    1.8543    0.9071 H         1 <0>         0.0882
     27 H4         -2.2778    1.0797    0.1379 H         1 <0>         0.0937
     28 H5         -2.9716   -0.1786   -0.9169 H         1 <0>         0.0757
     29 H6         -2.7996   -0.2434    2.1313 H         1 <0>         0.0739
     30 H7         -4.2778   -0.0690    1.1540 H         1 <0>         0.0847
     31 H8         -3.8581   -2.3040    0.1432 H         1 <0>         0.0918
     32 H9         -1.5323   -2.3712    2.1194 H         1 <0>         0.0671
     33 H10        -2.0878   -3.7458    1.1334 H         1 <0>         0.0822
     34 H11        -1.5745   -2.5244   -0.9361 H         1 <0>         0.0717
     35 H12        -0.1300   -2.5264    0.1083 H         1 <0>         0.0958
     36 H13        -4.3000   -2.0220    3.0157 H         1 <0>         0.3943
     37 H14        -5.7176   -3.6512    3.9021 H         1 <0>         0.3934
     38 H15        -4.7911   -6.3563    1.7847 H         1 <0>         0.0874
     39 H16        -4.6590   -6.6206    3.5400 H         1 <0>         0.0569
     40 H17        -5.3772   -8.6911    2.3797 H         1 <0>         0.0716
     41 H18        -7.4087   -9.1225    3.7345 H         1 <0>         0.0648
     42 H19        -6.1876   -8.2360    4.6786 H         1 <0>         0.0620
     43 H20        -8.4426   -7.2548    4.9961 H         1 <0>         0.0747
     44 H21        -6.4491   -5.7819    5.0679 H         1 <0>         0.0674
     45 H22        -7.8565   -4.9201    4.4011 H         1 <0>         0.0674
     46 H23        -9.3843   -7.9127    2.7986 H         1 <0>         0.0648
     47 H24        -9.5706   -6.1644    3.0759 H         1 <0>         0.0619
     48 H25        -8.7602   -6.6195    0.7771 H         1 <0>         0.0715
     49 H26        -6.5052   -7.6006    0.4595 H         1 <0>         0.0649
     50 H27        -7.5942   -8.7514    1.2707 H         1 <0>         0.0621
     51 H28        -8.0420   -4.5490    1.9373 H         1 <0>         0.0569
     52 H29        -6.7667   -5.1465    0.8488 H         1 <0>         0.0874
@<TRIPOS>BOND
     1    1    2 1
     2    1   24 1
     3    1   25 1
     4    1   26 1
     5    2    3 2
     6    2    4 am
     7    4    9 1
     8    4    5 1
     9    5    6 1
    10    5   27 1
    11    5   28 1
    12    6    7 1
    13    6   29 1
    14    6   30 1
    15    7    8 1
    16    7   10 1
    17    7   31 1
    18    8    9 1
    19    8   32 1
    20    8   33 1
    21    9   34 1
    22    9   35 1
    23   10   11 am
    24   10   36 1
    25   11   12 2
    26   11   13 am
    27   13   14 1
    28   13   37 1
    29   14   19 1
    30   14   23 1
    31   14   15 1
    32   15   16 1
    33   15   38 1
    34   15   39 1
    35   16   22 1
    36   16   17 1
    37   16   40 1
    38   17   18 1
    39   17   41 1
    40   17   42 1
    41   18   19 1
    42   18   20 1
    43   18   43 1
    44   19   44 1
    45   19   45 1
    46   20   21 1
    47   20   46 1
    48   20   47 1
    49   21   22 1
    50   21   23 1
    51   21   48 1
    52   22   49 1
    53   22   50 1
    54   23   51 1
    55   23   52 1
@<TRIPOS>MOLECULE
ZINC05676460
   46    49     0     0     0
SMALL
USER_CHARGES
3-(1-adamantyl)-1-(2-methoxyphenyl)-urea
@<TRIPOS>ATOM
      1 C1         -6.3853   -4.0579    1.5086 C.3       1 <0>         0.0298
      2 O1         -5.2017   -3.4283    1.0140 O.3       1 <0>        -0.3226
      3 C2         -4.2823   -4.2289    0.4116 C.ar      1 <0>         0.0915
      4 C3         -4.5144   -5.5901    0.2987 C.ar      1 <0>        -0.1872
      5 C4         -3.5791   -6.4027   -0.3147 C.ar      1 <0>        -0.1023
      6 C5         -2.4103   -5.8608   -0.8167 C.ar      1 <0>        -0.1330
      7 C6         -2.1734   -4.5031   -0.7124 C.ar      1 <0>        -0.0965
      8 C7         -3.1050   -3.6825   -0.0939 C.ar      1 <0>         0.1427
      9 N1         -2.8650   -2.3059    0.0170 N.am      1 <0>        -0.6775
     10 C8         -1.6008   -1.8390    0.0029 C.2       1 <0>         0.7067
     11 O2         -0.6657   -2.6162   -0.0027 O.2       1 <0>        -0.5669
     12 N2         -1.3731   -0.5107   -0.0051 N.am      1 <0>        -0.7360
     13 C9          0.0011   -0.0031   -0.0205 C.3       1 <0>         0.2022
     14 C10        -0.0202    1.5267   -0.0270 C.3       1 <0>        -0.1149
     15 C11         1.4149    2.0567   -0.0431 C.3       1 <0>        -0.0798
     16 H1          1.3997    3.1466   -0.0477 H         1 <0>         0.0752
     17 C12         2.1552    1.5623    1.2013 C.3       1 <0>        -0.1118
     18 C13         2.1765    0.0325    1.2078 C.3       1 <0>        -0.0824
     19 H2          2.7039   -0.3198    2.0943 H         1 <0>         0.0720
     20 C14         0.7414   -0.4976    1.2239 C.3       1 <0>        -0.1231
     21 C15         2.8928   -0.4729   -0.0461 C.3       1 <0>        -0.1092
     22 C16         2.1526    0.0215   -1.2905 C.3       1 <0>        -0.0824
     23 H3          2.6629   -0.3385   -2.1839 H         1 <0>         0.0723
     24 C17         2.1312    1.5514   -1.2970 C.3       1 <0>        -0.1117
     25 C18         0.7174   -0.5085   -1.2745 C.3       1 <0>        -0.1226
     26 H4         -7.0324   -3.3082    1.9641 H         1 <0>         0.1002
     27 H5         -6.9117   -4.5401    0.6849 H         1 <0>         0.0561
     28 H6         -6.1147   -4.8056    2.2542 H         1 <0>         0.0561
     29 H7         -5.4264   -6.0165    0.6898 H         1 <0>         0.1309
     30 H8         -3.7621   -7.4634   -0.4025 H         1 <0>         0.1254
     31 H9         -1.6827   -6.4993   -1.2955 H         1 <0>         0.1272
     32 H10        -1.2615   -4.0819   -1.1090 H         1 <0>         0.1548
     33 H11        -3.6088   -1.6894    0.1040 H         1 <0>         0.4093
     34 H12        -2.1190    0.1093   -0.0007 H         1 <0>         0.3959
     35 H13        -0.5476    1.8789   -0.9135 H         1 <0>         0.0686
     36 H14        -0.5306    1.8867    0.8664 H         1 <0>         0.0684
     37 H15         1.6448    1.9223    2.0947 H         1 <0>         0.0622
     38 H16         3.1776    1.9399    1.1899 H         1 <0>         0.0651
     39 H17         0.2311   -0.1375    2.1172 H         1 <0>         0.0581
     40 H18         0.7566   -1.5875    1.2285 H         1 <0>         0.0881
     41 H19         3.9153   -0.0953   -0.0576 H         1 <0>         0.0624
     42 H20         2.9081   -1.5628   -0.0415 H         1 <0>         0.0654
     43 H21         1.6039    1.9036   -2.1835 H         1 <0>         0.0623
     44 H22         3.1537    1.9290   -1.3085 H         1 <0>         0.0651
     45 H23         0.7327   -1.5984   -1.2698 H         1 <0>         0.0876
     46 H24         0.1901   -0.1563   -2.1610 H         1 <0>         0.0586
@<TRIPOS>BOND
     1    1    2 1
     2    1   26 1
     3    1   27 1
     4    1   28 1
     5    2    3 1
     6    3    8 ar
     7    3    4 ar
     8    4    5 ar
     9    4   29 1
    10    5    6 ar
    11    5   30 1
    12    6    7 ar
    13    6   31 1
    14    7    8 ar
    15    7   32 1
    16    8    9 1
    17    9   10 am
    18    9   33 1
    19   10   11 2
    20   10   12 am
    21   12   13 1
    22   12   34 1
    23   13   20 1
    24   13   25 1
    25   13   14 1
    26   14   15 1
    27   14   35 1
    28   14   36 1
    29   15   16 1
    30   15   24 1
    31   15   17 1
    32   17   18 1
    33   17   37 1
    34   17   38 1
    35   18   19 1
    36   18   20 1
    37   18   21 1
    38   20   39 1
    39   20   40 1
    40   21   22 1
    41   21   41 1
    42   21   42 1
    43   22   23 1
    44   22   24 1
    45   22   25 1
    46   24   43 1
    47   24   44 1
    48   25   45 1
    49   25   46 1
@<TRIPOS>MOLECULE
ZINC01131413
   56    58     0     0     0
SMALL
USER_CHARGES

@<TRIPOS>ATOM
      1 C1          0.9188    1.3599   -0.0668 C.3       1 <0>        -0.1254
      2 C2          0.4518   -0.0726   -0.0348 C.ar      1 <0>        -0.0183
      3 C3          0.1748   -0.6824    1.1744 C.ar      1 <0>        -0.1545
      4 C4         -0.2535   -1.9964    1.2038 C.ar      1 <0>         0.0286
      5 C5         -0.4052   -2.7004    0.0239 C.ar      1 <0>        -0.6937
      6 C6         -0.1291   -2.0903   -1.1854 C.ar      1 <0>         0.0293
      7 C7          0.2951   -0.7750   -1.2151 C.ar      1 <0>        -0.1543
      8 C8         -0.2940   -2.8580   -2.4717 C.3       1 <0>        -0.1422
      9 S1         -0.9501   -4.3757    0.0614 S.o2      1 <0>         2.6888
     10 O1         -1.6616   -4.5441    1.2798 O.2       1 <0>        -0.9529
     11 O2         -1.5358   -4.6407   -1.2058 O.2       1 <0>        -0.9513
     12 N1          0.4009   -5.3277    0.1667 N.pl3     1 <0>        -0.9988
     13 C9          1.0789   -5.8019   -1.0474 C.3       1 <0>         0.1141
     14 C10         1.2153   -7.3260   -0.9726 C.3       1 <0>        -0.1118
     15 C11         1.9204   -7.7077    0.3310 C.3       1 <0>        -0.1042
     16 C12         1.0823   -7.2386    1.5225 C.3       1 <0>        -0.1238
     17 C13         0.9477   -5.7090    1.4760 C.3       1 <0>         0.1162
     18 C14         2.0867   -9.2042    0.3923 C.2       1 <0>         0.5201
     19 O3          1.6813   -9.8971   -0.5169 O.2       1 <0>        -0.5310
     20 N2          2.6859   -9.7726    1.4573 N.am      1 <0>        -0.7254
     21 C15         2.8476  -11.2274    1.5169 C.3       1 <0>         0.1583
     22 C16         3.5419  -11.6036    2.8004 C.ar      1 <0>        -0.0989
     23 C17         4.8970  -11.8770    2.7986 C.ar      1 <0>        -0.0742
     24 C18         5.5344  -12.2220    3.9753 C.ar      1 <0>        -0.1062
     25 C19         4.8165  -12.2935    5.1562 C.ar      1 <0>        -0.0169
     26 C20         3.4608  -12.0197    5.1587 C.ar      1 <0>        -0.1040
     27 C21         2.8242  -11.6696    3.9812 C.ar      1 <0>        -0.0116
     28 Cl1         1.1238  -11.3198    3.9844 Cl        1 <0>        -0.0437
     29 Cl2         5.6172  -12.7275    6.6341 Cl        1 <0>        -0.0505
     30 C22        -0.5545   -2.6615    2.5221 C.3       1 <0>        -0.1412
     31 H1          0.0555    2.0220   -0.1335 H         1 <0>         0.0800
     32 H2          1.4765    1.5806    0.8432 H         1 <0>         0.0729
     33 H3          1.5620    1.5131   -0.9334 H         1 <0>         0.0730
     34 H4          0.2934   -0.1324    2.0963 H         1 <0>         0.1313
     35 H5          0.5073   -0.2972   -2.1601 H         1 <0>         0.1315
     36 H6         -1.3366   -2.8184   -2.7873 H         1 <0>         0.0964
     37 H7          0.3361   -2.4147   -3.2428 H         1 <0>         0.0744
     38 H8         -0.0009   -3.8962   -2.3154 H         1 <0>         0.0806
     39 H9          0.4910   -5.5303   -1.9241 H         1 <0>         0.1002
     40 H10         2.0683   -5.3494   -1.1138 H         1 <0>         0.0739
     41 H11         0.2253   -7.7814   -0.9976 H         1 <0>         0.0794
     42 H12         1.8011   -7.6809   -1.8205 H         1 <0>         0.0873
     43 H13         2.9004   -7.2318    0.3666 H         1 <0>         0.1024
     44 H14         0.0936   -7.6949    1.4740 H         1 <0>         0.0790
     45 H15         1.5735   -7.5314    2.4505 H         1 <0>         0.0817
     46 H16         1.9266   -5.2490    1.6112 H         1 <0>         0.0758
     47 H17         0.2731   -5.3760    2.2648 H         1 <0>         0.1001
     48 H18         3.0101   -9.2184    2.1844 H         1 <0>         0.4017
     49 H19         1.8678  -11.7037    1.4807 H         1 <0>         0.0860
     50 H20         3.4455  -11.5616    0.6689 H         1 <0>         0.0841
     51 H21         5.4577  -11.8213    1.8773 H         1 <0>         0.1459
     52 H22         6.5929  -12.4362    3.9732 H         1 <0>         0.1442
     53 H23         2.9001  -12.0754    6.0800 H         1 <0>         0.1476
     54 H24        -1.6239   -2.6001    2.7243 H         1 <0>         0.0960
     55 H25        -0.2525   -3.7079    2.4785 H         1 <0>         0.0801
     56 H26        -0.0050   -2.1576    3.3172 H         1 <0>         0.0740
@<TRIPOS>BOND
     1    1    2 1
     2    1   31 1
     3    1   32 1
     4    1   33 1
     5    2    7 ar
     6    2    3 ar
     7    3    4 ar
     8    3   34 1
     9    4    5 ar
    10    4   30 1
    11    5    6 ar
    12    5    9 1
    13    6    7 ar
    14    6    8 1
    15    7   35 1
    16    8   36 1
    17    8   37 1
    18    8   38 1
    19    9   10 2
    20    9   11 2
    21    9   12 1
    22   12   17 1
    23   12   13 1
    24   13   14 1
    25   13   39 1
    26   13   40 1
    27   14   15 1
    28   14   41 1
    29   14   42 1
    30   15   16 1
    31   15   18 1
    32   15   43 1
    33   16   17 1
    34   16   44 1
    35   16   45 1
    36   17   46 1
    37   17   47 1
    38   18   19 2
    39   18   20 am
    40   20   21 1
    41   20   48 1
    42   21   22 1
    43   21   49 1
    44   21   50 1
    45   22   27 ar
    46   22   23 ar
    47   23   24 ar
    48   23   51 1
    49   24   25 ar
    50   24   52 1
    51   25   26 ar
    52   25   29 1
    53   26   27 ar
    54   26   53 1
    55   27   28 1
    56   30   54 1
    57   30   55 1
    58   30   56 1
@<TRIPOS>MOLECULE
ZINC14387783
   59    61     0     0     0
SMALL
USER_CHARGES

@<TRIPOS>ATOM
      1 C1          0.9188    1.3599   -0.0668 C.3       1 <0>        -0.1255
      2 C2          0.4518   -0.0726   -0.0348 C.ar      1 <0>        -0.0182
      3 C3          0.1748   -0.6824    1.1744 C.ar      1 <0>        -0.1545
      4 C4         -0.2535   -1.9964    1.2038 C.ar      1 <0>         0.0284
      5 C5         -0.4052   -2.7004    0.0239 C.ar      1 <0>        -0.6938
      6 C6         -0.1291   -2.0903   -1.1854 C.ar      1 <0>         0.0294
      7 C7          0.2951   -0.7750   -1.2151 C.ar      1 <0>        -0.1542
      8 C8         -0.2940   -2.8580   -2.4717 C.3       1 <0>        -0.1422
      9 S1         -0.9501   -4.3757    0.0614 S.o2      1 <0>         2.6890
     10 O1         -1.6616   -4.5441    1.2798 O.2       1 <0>        -0.9530
     11 O2         -1.5358   -4.6407   -1.2058 O.2       1 <0>        -0.9512
     12 N1          0.4009   -5.3277    0.1667 N.pl3     1 <0>        -0.9988
     13 C9          1.0789   -5.8019   -1.0474 C.3       1 <0>         0.1138
     14 C10         1.2153   -7.3260   -0.9726 C.3       1 <0>        -0.1117
     15 C11         1.9204   -7.7077    0.3310 C.3       1 <0>        -0.1057
     16 C12         1.0823   -7.2386    1.5225 C.3       1 <0>        -0.1235
     17 C13         0.9477   -5.7090    1.4760 C.3       1 <0>         0.1159
     18 C14         2.0867   -9.2042    0.3923 C.2       1 <0>         0.5204
     19 O3          1.6813   -9.8971   -0.5169 O.2       1 <0>        -0.5310
     20 N2          2.6859   -9.7726    1.4573 N.am      1 <0>        -0.7271
     21 C15         2.8476  -11.2274    1.5169 C.3       1 <0>         0.1830
     22 H1          3.0316  -11.6139    0.5144 H         1 <0>         0.0998
     23 C16         1.5736  -11.8595    2.0812 C.3       1 <0>        -0.1595
     24 C17         4.0142  -11.5671    2.4082 C.ar      1 <0>        -0.0887
     25 C18         4.2175  -10.8612    3.5793 C.ar      1 <0>        -0.1027
     26 C19         5.2874  -11.1723    4.3972 C.ar      1 <0>        -0.1052
     27 C20         6.1549  -12.1904    4.0437 C.ar      1 <0>        -0.0338
     28 C21         5.9509  -12.8966    2.8716 C.ar      1 <0>        -0.1047
     29 C22         4.8774  -12.5883    2.0573 C.ar      1 <0>        -0.0939
     30 Cl1         7.4992  -12.5814    5.0703 Cl        1 <0>        -0.0658
     31 C23        -0.5545   -2.6615    2.5221 C.3       1 <0>        -0.1411
     32 H2          0.0555    2.0220   -0.1335 H         1 <0>         0.0801
     33 H3          1.4765    1.5806    0.8432 H         1 <0>         0.0730
     34 H4          1.5620    1.5131   -0.9334 H         1 <0>         0.0730
     35 H5          0.2934   -0.1324    2.0963 H         1 <0>         0.1314
     36 H6          0.5073   -0.2972   -2.1601 H         1 <0>         0.1316
     37 H7         -1.3366   -2.8184   -2.7873 H         1 <0>         0.0964
     38 H8          0.3361   -2.4147   -3.2428 H         1 <0>         0.0745
     39 H9         -0.0009   -3.8962   -2.3154 H         1 <0>         0.0806
     40 H10         0.4910   -5.5303   -1.9241 H         1 <0>         0.1004
     41 H11         2.0683   -5.3494   -1.1138 H         1 <0>         0.0739
     42 H12         0.2253   -7.7814   -0.9976 H         1 <0>         0.0795
     43 H13         1.8011   -7.6809   -1.8205 H         1 <0>         0.0872
     44 H14         2.9004   -7.2318    0.3666 H         1 <0>         0.1023
     45 H15         0.0936   -7.6949    1.4740 H         1 <0>         0.0793
     46 H16         1.5735   -7.5314    2.4505 H         1 <0>         0.0810
     47 H17         1.9266   -5.2490    1.6112 H         1 <0>         0.0758
     48 H18         0.2731   -5.3760    2.2648 H         1 <0>         0.1004
     49 H19         3.0101   -9.2184    2.1844 H         1 <0>         0.3995
     50 H20         0.7298  -11.6138    1.4365 H         1 <0>         0.0678
     51 H21         1.6939  -12.9419    2.1255 H         1 <0>         0.0694
     52 H22         1.3896  -11.4730    3.0836 H         1 <0>         0.0603
     53 H23         3.5405  -10.0662    3.8549 H         1 <0>         0.1303
     54 H24         5.4463  -10.6205    5.3119 H         1 <0>         0.1362
     55 H25         6.6279  -13.6913    2.5950 H         1 <0>         0.1369
     56 H26         4.7154  -13.1426    1.1447 H         1 <0>         0.1357
     57 H27        -1.6239   -2.6001    2.7243 H         1 <0>         0.0960
     58 H28        -0.2525   -3.7079    2.4785 H         1 <0>         0.0799
     59 H29        -0.0050   -2.1576    3.3172 H         1 <0>         0.0740
@<TRIPOS>BOND
     1    1    2 1
     2    1   32 1
     3    1   33 1
     4    1   34 1
     5    2    7 ar
     6    2    3 ar
     7    3    4 ar
     8    3   35 1
     9    4    5 ar
    10    4   31 1
    11    5    6 ar
    12    5    9 1
    13    6    7 ar
    14    6    8 1
    15    7   36 1
    16    8   37 1
    17    8   38 1
    18    8   39 1
    19    9   10 2
    20    9   11 2
    21    9   12 1
    22   12   17 1
    23   12   13 1
    24   13   14 1
    25   13   40 1
    26   13   41 1
    27   14   15 1
    28   14   42 1
    29   14   43 1
    30   15   16 1
    31   15   18 1
    32   15   44 1
    33   16   17 1
    34   16   45 1
    35   16   46 1
    36   17   47 1
    37   17   48 1
    38   18   19 2
    39   18   20 am
    40   20   21 1
    41   20   49 1
    42   21   22 1
    43   21   23 1
    44   21   24 1
    45   23   50 1
    46   23   51 1
    47   23   52 1
    48   24   29 ar
    49   24   25 ar
    50   25   26 ar
    51   25   53 1
    52   26   27 ar
    53   26   54 1
    54   27   28 ar
    55   27   30 1
    56   28   29 ar
    57   28   55 1
    58   29   56 1
    59   31   57 1
    60   31   58 1
    61   31   59 1
@<TRIPOS>MOLECULE
ZINC14387786
   59    61     0     0     0
SMALL
USER_CHARGES

@<TRIPOS>ATOM
      1 C1          0.9188    1.3599   -0.0668 C.3       1 <0>        -0.1255
      2 C2          0.4518   -0.0726   -0.0348 C.ar      1 <0>        -0.0183
      3 C3          0.1748   -0.6824    1.1744 C.ar      1 <0>        -0.1544
      4 C4         -0.2535   -1.9964    1.2038 C.ar      1 <0>         0.0285
      5 C5         -0.4052   -2.7004    0.0239 C.ar      1 <0>        -0.6937
      6 C6         -0.1291   -2.0903   -1.1854 C.ar      1 <0>         0.0293
      7 C7          0.2951   -0.7750   -1.2151 C.ar      1 <0>        -0.1542
      8 C8         -0.2940   -2.8580   -2.4717 C.3       1 <0>        -0.1422
      9 S1         -0.9501   -4.3757    0.0614 S.o2      1 <0>         2.6889
     10 O1         -1.6616   -4.5441    1.2798 O.2       1 <0>        -0.9529
     11 O2         -1.5358   -4.6407   -1.2058 O.2       1 <0>        -0.9512
     12 N1          0.4009   -5.3277    0.1667 N.pl3     1 <0>        -0.9988
     13 C9          1.0789   -5.8019   -1.0474 C.3       1 <0>         0.1140
     14 C10         1.2153   -7.3260   -0.9726 C.3       1 <0>        -0.1118
     15 C11         1.9204   -7.7077    0.3310 C.3       1 <0>        -0.1054
     16 C12         1.0823   -7.2386    1.5225 C.3       1 <0>        -0.1238
     17 C13         0.9477   -5.7090    1.4760 C.3       1 <0>         0.1161
     18 C14         2.0867   -9.2042    0.3923 C.2       1 <0>         0.5204
     19 O3          1.6813   -9.8971   -0.5169 O.2       1 <0>        -0.5310
     20 N2          2.6859   -9.7726    1.4573 N.am      1 <0>        -0.7271
     21 C15         2.8476  -11.2274    1.5169 C.3       1 <0>         0.1828
     22 H1          1.9867  -11.7080    1.0521 H         1 <0>         0.0999
     23 C16         4.1210  -11.6300    0.7705 C.3       1 <0>        -0.1590
     24 C17         2.9498  -11.6630    2.9559 C.ar      1 <0>        -0.0887
     25 C18         3.6711  -10.9036    3.8581 C.ar      1 <0>        -0.1029
     26 C19         3.7652  -11.3025    5.1781 C.ar      1 <0>        -0.1051
     27 C20         3.1373  -12.4622    5.5963 C.ar      1 <0>        -0.0336
     28 C21         2.4156  -13.2219    4.6930 C.ar      1 <0>        -0.1044
     29 C22         2.3175  -12.8189    3.3745 C.ar      1 <0>        -0.0937
     30 Cl1         3.2556  -12.9643    7.2539 Cl        1 <0>        -0.0657
     31 C23        -0.5545   -2.6615    2.5221 C.3       1 <0>        -0.1412
     32 H2          0.0555    2.0220   -0.1335 H         1 <0>         0.0800
     33 H3          1.4765    1.5806    0.8432 H         1 <0>         0.0730
     34 H4          1.5620    1.5131   -0.9334 H         1 <0>         0.0730
     35 H5          0.2934   -0.1324    2.0963 H         1 <0>         0.1313
     36 H6          0.5073   -0.2972   -2.1601 H         1 <0>         0.1315
     37 H7         -1.3366   -2.8184   -2.7873 H         1 <0>         0.0964
     38 H8          0.3361   -2.4147   -3.2428 H         1 <0>         0.0744
     39 H9         -0.0009   -3.8962   -2.3154 H         1 <0>         0.0806
     40 H10         0.4910   -5.5303   -1.9241 H         1 <0>         0.1003
     41 H11         2.0683   -5.3494   -1.1138 H         1 <0>         0.0739
     42 H12         0.2253   -7.7814   -0.9976 H         1 <0>         0.0794
     43 H13         1.8011   -7.6809   -1.8205 H         1 <0>         0.0872
     44 H14         2.9004   -7.2318    0.3666 H         1 <0>         0.1023
     45 H15         0.0936   -7.6949    1.4740 H         1 <0>         0.0790
     46 H16         1.5735   -7.5314    2.4505 H         1 <0>         0.0813
     47 H17         1.9266   -5.2490    1.6112 H         1 <0>         0.0758
     48 H18         0.2731   -5.3760    2.2648 H         1 <0>         0.1003
     49 H19         3.0101   -9.2184    2.1844 H         1 <0>         0.3995
     50 H20         4.2413  -12.7125    0.8148 H         1 <0>         0.0694
     51 H21         4.0471  -11.3150   -0.2704 H         1 <0>         0.0675
     52 H22         4.9819  -11.1495    1.2353 H         1 <0>         0.0598
     53 H23         4.1615   -9.9985    3.5314 H         1 <0>         0.1300
     54 H24         4.3291  -10.7093    5.8827 H         1 <0>         0.1361
     55 H25         1.9255  -14.1275    5.0188 H         1 <0>         0.1370
     56 H26         1.7501  -13.4093    2.6703 H         1 <0>         0.1357
     57 H27        -1.6239   -2.6001    2.7243 H         1 <0>         0.0960
     58 H28        -0.2525   -3.7079    2.4785 H         1 <0>         0.0800
     59 H29        -0.0050   -2.1576    3.3172 H         1 <0>         0.0740
@<TRIPOS>BOND
     1    1    2 1
     2    1   32 1
     3    1   33 1
     4    1   34 1
     5    2    7 ar
     6    2    3 ar
     7    3    4 ar
     8    3   35 1
     9    4    5 ar
    10    4   31 1
    11    5    6 ar
    12    5    9 1
    13    6    7 ar
    14    6    8 1
    15    7   36 1
    16    8   37 1
    17    8   38 1
    18    8   39 1
    19    9   10 2
    20    9   11 2
    21    9   12 1
    22   12   17 1
    23   12   13 1
    24   13   14 1
    25   13   40 1
    26   13   41 1
    27   14   15 1
    28   14   42 1
    29   14   43 1
    30   15   16 1
    31   15   18 1
    32   15   44 1
    33   16   17 1
    34   16   45 1
    35   16   46 1
    36   17   47 1
    37   17   48 1
    38   18   19 2
    39   18   20 am
    40   20   21 1
    41   20   49 1
    42   21   22 1
    43   21   23 1
    44   21   24 1
    45   23   50 1
    46   23   51 1
    47   23   52 1
    48   24   29 ar
    49   24   25 ar
    50   25   26 ar
    51   25   53 1
    52   26   27 ar
    53   26   54 1
    54   27   28 ar
    55   27   30 1
    56   28   29 ar
    57   28   55 1
    58   29   56 1
    59   31   57 1
    60   31   58 1
    61   31   59 1
