@<TRIPOS>MOLECULE
ZINC27645646
   67    69     0     0     0
SMALL
USER_CHARGES

@<TRIPOS>ATOM
      1 C1         -0.0187    1.5258    0.0104 C.3       1 <0>        -0.1111
      2 C2          1.4167    2.0553   -0.0004 C.3       1 <0>        -0.0828
      3 C3          2.1567    1.5485    1.2391 C.3       1 <0>        -0.1089
      4 C4          2.1775    0.0187    1.2307 C.3       1 <0>        -0.0828
      5 C5          0.7421   -0.5109    1.2415 C.3       1 <0>        -0.1111
      6 C6          0.0021   -0.0041    0.0020 C.3       1 <0>        -0.0800
      7 C7          0.7182   -0.4975   -1.2568 C.3       1 <0>        -0.1146
      8 C8          2.1536    0.0321   -1.2676 C.3       1 <0>         0.2031
      9 C9          2.1328    1.5619   -1.2592 C.3       1 <0>        -0.1225
     10 C10         2.8936   -0.4747   -0.0281 C.3       1 <0>        -0.1225
     11 N1          2.8393   -0.4404   -2.4730 N.am      1 <0>        -0.7432
     12 C11         4.1230   -0.0961   -2.6967 C.2       1 <0>         0.7046
     13 O1          4.7120    0.6066   -1.8981 O.2       1 <0>        -0.5840
     14 N2          4.7539   -0.5307   -3.8055 N.am      1 <0>        -0.7488
     15 C12         6.1492   -0.1565   -4.0487 C.3       1 <0>         0.1378
     16 C13         6.6214   -0.7762   -5.3655 C.3       1 <0>        -0.1312
     17 C14         8.0787   -0.3853   -5.6195 C.3       1 <0>        -0.1166
     18 C15         8.5508   -1.0050   -6.9363 C.3       1 <0>        -0.1189
     19 C16        10.0081   -0.6141   -7.1903 C.3       1 <0>        -0.1205
     20 C17        10.4802   -1.2338   -8.5071 C.3       1 <0>        -0.1203
     21 C18        11.9375   -0.8429   -8.7610 C.3       1 <0>        -0.1195
     22 C19        12.4097   -1.4626  -10.0779 C.3       1 <0>        -0.1192
     23 C20        13.8670   -1.0718  -10.3318 C.3       1 <0>        -0.1207
     24 C21        14.3391   -1.6914  -11.6486 C.3       1 <0>        -0.0935
     25 C22        15.7964   -1.3006  -11.9026 C.3       1 <0>        -0.1840
     26 C23        16.2614   -1.9109  -13.1996 C.2       1 <0>         0.4872
     27 O2         15.4981   -2.5950  -13.8597 O.co2     1 <0>        -0.7001
     28 O3         17.4011   -1.7205  -13.5889 O.co2     1 <0>        -0.7101
     29 H1         -0.5289    1.8773    0.9072 H         1 <0>         0.0639
     30 H2         -0.5459    1.8868   -0.8726 H         1 <0>         0.0618
     31 H3          1.4019    3.1452    0.0056 H         1 <0>         0.0712
     32 H4          3.1793    1.9258    1.2314 H         1 <0>         0.0653
     33 H5          1.6465    1.9000    2.1359 H         1 <0>         0.0614
     34 H6          2.7046   -0.3424    2.1137 H         1 <0>         0.0712
     35 H7          0.7568   -1.6008    1.2355 H         1 <0>         0.0618
     36 H8          0.2319   -0.1594    2.1383 H         1 <0>         0.0639
     37 H9         -1.0205   -0.3814    0.0098 H         1 <0>         0.0740
     38 H10         0.7330   -1.5874   -1.2628 H         1 <0>         0.0675
     39 H11         0.1910   -0.1364   -2.1398 H         1 <0>         0.0675
     40 H12         1.6057    1.9230   -2.1423 H         1 <0>         0.0572
     41 H13         3.1554    1.9392   -1.2670 H         1 <0>         0.0878
     42 H14         3.9162   -0.0975   -0.0359 H         1 <0>         0.0878
     43 H15         2.9084   -1.5646   -0.0341 H         1 <0>         0.0572
     44 H16         2.3694   -1.0010   -3.1100 H         1 <0>         0.3933
     45 H17         4.2840   -1.0913   -4.4426 H         1 <0>         0.3946
     46 H18         6.2292    0.9289   -4.1086 H         1 <0>         0.0654
     47 H19         6.7711   -0.5221   -3.2316 H         1 <0>         0.0654
     48 H20         6.5414   -1.8616   -5.3056 H         1 <0>         0.0681
     49 H21         5.9995   -0.4106   -6.1827 H         1 <0>         0.0681
     50 H22         8.1586    0.7001   -5.6794 H         1 <0>         0.0653
     51 H23         8.7006   -0.7509   -4.8023 H         1 <0>         0.0653
     52 H24         8.4709   -2.0904   -6.8764 H         1 <0>         0.0613
     53 H25         7.9289   -0.6394   -7.7534 H         1 <0>         0.0613
     54 H26        10.0880    0.4713   -7.2502 H         1 <0>         0.0607
     55 H27        10.6300   -0.9797   -6.3731 H         1 <0>         0.0606
     56 H28        10.4003   -2.3192   -8.4472 H         1 <0>         0.0600
     57 H29         9.8583   -0.8682   -9.3242 H         1 <0>         0.0600
     58 H30        12.0175    0.2425   -8.8210 H         1 <0>         0.0586
     59 H31        12.5594   -1.2085   -7.9439 H         1 <0>         0.0586
     60 H32        12.3297   -2.5480  -10.0179 H         1 <0>         0.0592
     61 H33        11.7878   -1.0970  -10.8950 H         1 <0>         0.0592
     62 H34        13.9469    0.0137  -10.3917 H         1 <0>         0.0537
     63 H35        14.4888   -1.4373   -9.5147 H         1 <0>         0.0537
     64 H36        14.2592   -2.7768  -11.5887 H         1 <0>         0.0570
     65 H37        13.7172   -1.3258  -12.4658 H         1 <0>         0.0570
     66 H38        15.8763   -0.2152  -11.9625 H         1 <0>         0.0540
     67 H39        16.4183   -1.6661  -11.0854 H         1 <0>         0.0540
@<TRIPOS>BOND
     1    1    6 1
     2    1    2 1
     3    1   29 1
     4    1   30 1
     5    2    9 1
     6    2    3 1
     7    2   31 1
     8    3    4 1
     9    3   32 1
    10    3   33 1
    11    4   10 1
    12    4    5 1
    13    4   34 1
    14    5    6 1
    15    5   35 1
    16    5   36 1
    17    6    7 1
    18    6   37 1
    19    7    8 1
    20    7   38 1
    21    7   39 1
    22    8    9 1
    23    8   10 1
    24    8   11 1
    25    9   40 1
    26    9   41 1
    27   10   42 1
    28   10   43 1
    29   11   12 am
    30   11   44 1
    31   12   13 2
    32   12   14 am
    33   14   15 1
    34   14   45 1
    35   15   16 1
    36   15   46 1
    37   15   47 1
    38   16   17 1
    39   16   48 1
    40   16   49 1
    41   17   18 1
    42   17   50 1
    43   17   51 1
    44   18   19 1
    45   18   52 1
    46   18   53 1
    47   19   20 1
    48   19   54 1
    49   19   55 1
    50   20   21 1
    51   20   56 1
    52   20   57 1
    53   21   22 1
    54   21   58 1
    55   21   59 1
    56   22   23 1
    57   22   60 1
    58   22   61 1
    59   23   24 1
    60   23   62 1
    61   23   63 1
    62   24   25 1
    63   24   64 1
    64   24   65 1
    65   25   26 1
    66   25   66 1
    67   25   67 1
    68   26   27 2
    69   26   28 1
@<TRIPOS>MOLECULE
ZINC36330562
   52    55     0     0     0
SMALL
USER_CHARGES

@<TRIPOS>ATOM
      1 C1         -0.0184    1.5028    0.0103 C.3       1 <0>        -0.1752
      2 C2          0.0021   -0.0041    0.0020 C.2       1 <0>         0.5124
      3 O1          1.0605   -0.5961   -0.0113 O.2       1 <0>        -0.5440
      4 N1         -1.1558   -0.6938    0.0094 N.am      1 <0>        -0.6173
      5 C3         -2.4459    0.0093    0.0193 C.3       1 <0>         0.1110
      6 C4         -3.2826   -0.5121    1.1918 C.3       1 <0>        -0.1438
      7 C5         -3.3975   -2.0350    1.0938 C.3       1 <0>         0.1657
      8 C6         -2.0032   -2.6601    1.1798 C.3       1 <0>        -0.1431
      9 C7         -1.1521   -2.1630    0.0014 C.3       1 <0>         0.1128
     10 N2         -4.2248   -2.5339    2.1952 N.am      1 <0>        -0.7454
     11 C8         -4.8813   -3.7041    2.0684 C.2       1 <0>         0.7066
     12 O2         -4.7870   -4.3458    1.0399 O.2       1 <0>        -0.5813
     13 N3         -5.6423   -4.1631    3.0816 N.am      1 <0>        -0.7418
     14 C9         -6.3560   -5.4351    2.9438 C.3       1 <0>         0.2030
     15 C10        -5.3491   -6.5607    2.6984 C.3       1 <0>        -0.1217
     16 C11        -6.0944   -7.8892    2.5545 C.3       1 <0>        -0.0829
     17 C12        -6.8777   -8.1761    3.8371 C.3       1 <0>        -0.1116
     18 C13        -7.8845   -7.0504    4.0824 C.3       1 <0>        -0.0801
     19 C14        -7.1393   -5.7220    4.2263 C.3       1 <0>        -0.1145
     20 C15        -8.8533   -6.9663    2.9012 C.3       1 <0>        -0.1115
     21 C16        -8.0700   -6.6794    1.6186 C.3       1 <0>        -0.0828
     22 C17        -7.0632   -7.8050    1.3733 C.3       1 <0>        -0.1090
     23 C18        -7.3247   -5.3510    1.7625 C.3       1 <0>        -0.1214
     24 H1          1.0042    1.8801    0.0026 H         1 <0>         0.0929
     25 H2         -0.5455    1.8639   -0.8728 H         1 <0>         0.0889
     26 H3         -0.5286    1.8543    0.9071 H         1 <0>         0.0882
     27 H4         -2.2778    1.0797    0.1379 H         1 <0>         0.0937
     28 H5         -2.9716   -0.1786   -0.9169 H         1 <0>         0.0757
     29 H6         -2.7996   -0.2434    2.1313 H         1 <0>         0.0739
     30 H7         -4.2778   -0.0690    1.1540 H         1 <0>         0.0847
     31 H8         -3.8581   -2.3040    0.1432 H         1 <0>         0.0918
     32 H9         -1.5323   -2.3712    2.1194 H         1 <0>         0.0671
     33 H10        -2.0878   -3.7458    1.1334 H         1 <0>         0.0822
     34 H11        -1.5745   -2.5244   -0.9361 H         1 <0>         0.0717
     35 H12        -0.1300   -2.5264    0.1083 H         1 <0>         0.0958
     36 H13        -4.3000   -2.0220    3.0157 H         1 <0>         0.3943
     37 H14        -5.7176   -3.6512    3.9021 H         1 <0>         0.3934
     38 H15        -4.7911   -6.3563    1.7847 H         1 <0>         0.0874
     39 H16        -4.6590   -6.6206    3.5400 H         1 <0>         0.0569
     40 H17        -5.3772   -8.6911    2.3797 H         1 <0>         0.0716
     41 H18        -7.4087   -9.1225    3.7345 H         1 <0>         0.0648
     42 H19        -6.1876   -8.2360    4.6786 H         1 <0>         0.0620
     43 H20        -8.4426   -7.2548    4.9961 H         1 <0>         0.0747
     44 H21        -6.4491   -5.7819    5.0679 H         1 <0>         0.0674
     45 H22        -7.8565   -4.9201    4.4011 H         1 <0>         0.0674
     46 H23        -9.3843   -7.9127    2.7986 H         1 <0>         0.0648
     47 H24        -9.5706   -6.1644    3.0759 H         1 <0>         0.0619
     48 H25        -8.7602   -6.6195    0.7771 H         1 <0>         0.0715
     49 H26        -6.5052   -7.6006    0.4595 H         1 <0>         0.0649
     50 H27        -7.5942   -8.7514    1.2707 H         1 <0>         0.0621
     51 H28        -8.0420   -4.5490    1.9373 H         1 <0>         0.0569
     52 H29        -6.7667   -5.1465    0.8488 H         1 <0>         0.0874
@<TRIPOS>BOND
     1    1    2 1
     2    1   24 1
     3    1   25 1
     4    1   26 1
     5    2    3 2
     6    2    4 am
     7    4    9 1
     8    4    5 1
     9    5    6 1
    10    5   27 1
    11    5   28 1
    12    6    7 1
    13    6   29 1
    14    6   30 1
    15    7    8 1
    16    7   10 1
    17    7   31 1
    18    8    9 1
    19    8   32 1
    20    8   33 1
    21    9   34 1
    22    9   35 1
    23   10   11 am
    24   10   36 1
    25   11   12 2
    26   11   13 am
    27   13   14 1
    28   13   37 1
    29   14   19 1
    30   14   23 1
    31   14   15 1
    32   15   16 1
    33   15   38 1
    34   15   39 1
    35   16   22 1
    36   16   17 1
    37   16   40 1
    38   17   18 1
    39   17   41 1
    40   17   42 1
    41   18   19 1
    42   18   20 1
    43   18   43 1
    44   19   44 1
    45   19   45 1
    46   20   21 1
    47   20   46 1
    48   20   47 1
    49   21   22 1
    50   21   23 1
    51   21   48 1
    52   22   49 1
    53   22   50 1
    54   23   51 1
    55   23   52 1
@<TRIPOS>MOLECULE
ZINC40429742
   47    50     0     0     0
SMALL
USER_CHARGES

@<TRIPOS>ATOM
      1 C1         -0.5638    0.1178    0.0143 C.ar      1 <0>        -0.1511
      2 C2          0.5557    0.8645   -0.3041 C.ar      1 <0>        -0.0871
      3 C3          1.8025    0.2737   -0.2964 C.ar      1 <0>        -0.1491
      4 C4          1.9379   -1.0714    0.0324 C.ar      1 <0>         0.1343
      5 C5          0.8163   -1.8154    0.3530 C.ar      1 <0>        -0.1602
      6 C6         -0.4331   -1.2173    0.3418 C.ar      1 <0>        -0.0852
      7 C7          0.9185   -3.2731    0.7243 C.3       1 <0>        -0.0795
      8 C8          2.2686   -3.8293    0.2643 C.3       1 <0>        -0.1472
      9 C9          3.3664   -2.8569    0.7111 C.3       1 <0>         0.1215
     10 O1          3.1817   -1.6184    0.0263 O.3       1 <0>        -0.3034
     11 C10         3.2639   -2.6322    2.2204 C.3       1 <0>        -0.1566
     12 C11         4.3397   -1.6337    2.6590 C.3       1 <0>         0.1172
     13 N1          5.6497   -2.1220    2.2071 N.am      1 <0>        -0.6020
     14 C12         5.8296   -2.4510    0.7865 C.3       1 <0>         0.0969
     15 C13         4.7373   -3.4401    0.3671 C.3       1 <0>        -0.1197
     16 C14         6.6673   -2.2651    3.0791 C.2       1 <0>         0.5593
     17 O2          6.5275   -1.9243    4.2375 O.2       1 <0>        -0.5242
     18 C15         7.9536   -2.8366    2.6268 C.ar      1 <0>        -0.0927
     19 C16         8.5871   -2.3263    1.4926 C.ar      1 <0>        -0.0942
     20 C17         9.7875   -2.8637    1.0762 C.ar      1 <0>        -0.0722
     21 C18        10.3633   -3.9066    1.7799 C.ar      1 <0>        -0.1644
     22 C19         9.7403   -4.4174    2.9048 C.ar      1 <0>        -0.0701
     23 C20         8.5427   -3.8849    3.3355 C.ar      1 <0>        -0.0711
     24 C21        11.6745   -4.4891    1.3189 C.3       1 <0>         0.5074
     25 F1         12.7299   -3.8027    1.9290 F         1 <0>        -0.1731
     26 F2         11.7330   -5.8420    1.6703 F         1 <0>        -0.1745
     27 F3         11.7777   -4.3633   -0.0706 F         1 <0>        -0.1746
     28 H1         -1.5399    0.5800    0.0113 H         1 <0>         0.1239
     29 H2          0.4542    1.9091   -0.5590 H         1 <0>         0.1283
     30 H3          2.6762    0.8571   -0.5468 H         1 <0>         0.1287
     31 H4         -1.3091   -1.7979    0.5907 H         1 <0>         0.1236
     32 H5          0.8322   -3.3788    1.8057 H         1 <0>         0.0796
     33 H6          0.1142   -3.8277    0.2410 H         1 <0>         0.0826
     34 H7          2.4368   -4.8066    0.7167 H         1 <0>         0.0852
     35 H8          2.2778   -3.9201   -0.8219 H         1 <0>         0.0798
     36 H9          2.2783   -2.2347    2.4628 H         1 <0>         0.0874
     37 H10         3.4126   -3.5787    2.7401 H         1 <0>         0.0839
     38 H11         4.1387   -0.6600    2.2122 H         1 <0>         0.0759
     39 H12         4.3369   -1.5471    3.7456 H         1 <0>         0.0970
     40 H13         5.7498   -1.5433    0.1883 H         1 <0>         0.0841
     41 H14         6.8096   -2.9043    0.6377 H         1 <0>         0.0970
     42 H15         4.8757   -4.3816    0.8986 H         1 <0>         0.0896
     43 H16         4.7987   -3.6158   -0.7069 H         1 <0>         0.0907
     44 H17         8.1384   -1.5127    0.9420 H         1 <0>         0.1437
     45 H18        10.2787   -2.4698    0.1987 H         1 <0>         0.1452
     46 H19        10.1948   -5.2317    3.4495 H         1 <0>         0.1453
     47 H20         8.0599   -4.2812    4.2165 H         1 <0>         0.1438
@<TRIPOS>BOND
     1    1    6 ar
     2    1    2 ar
     3    1   28 1
     4    2    3 ar
     5    2   29 1
     6    3    4 ar
     7    3   30 1
     8    4   10 1
     9    4    5 ar
    10    5    6 ar
    11    5    7 1
    12    6   31 1
    13    7    8 1
    14    7   32 1
    15    7   33 1
    16    8    9 1
    17    8   34 1
    18    8   35 1
    19    9   15 1
    20    9   10 1
    21    9   11 1
    22   11   12 1
    23   11   36 1
    24   11   37 1
    25   12   13 1
    26   12   38 1
    27   12   39 1
    28   13   14 1
    29   13   16 am
    30   14   15 1
    31   14   40 1
    32   14   41 1
    33   15   42 1
    34   15   43 1
    35   16   17 2
    36   16   18 1
    37   18   23 ar
    38   18   19 ar
    39   19   20 ar
    40   19   44 1
    41   20   21 ar
    42   20   45 1
    43   21   22 ar
    44   21   24 1
    45   22   23 ar
    46   22   46 1
    47   23   47 1
    48   24   25 1
    49   24   26 1
    50   24   27 1
@<TRIPOS>MOLECULE
ZINC43019356
   48    51     0     0     0
SMALL
USER_CHARGES

@<TRIPOS>ATOM
      1 C1         -0.0301    1.3771    2.1634 C.ar      1 <0>        -0.0749
      2 C2          1.0400    2.0664    1.6117 C.ar      1 <0>        -0.1470
      3 C3          2.0712    1.3580    1.0218 C.ar      1 <0>         0.1043
      4 N1          2.0486    0.0418    0.9775 N.ar      1 <0>        -0.4392
      5 C4          1.0444   -0.6543    1.4930 C.ar      1 <0>         0.1768
      6 C5         -0.0268   -0.0063    2.1027 C.ar      1 <0>        -0.1264
      7 C6          1.0622   -2.1371    1.4191 C.2       1 <0>         0.3046
      8 N2          2.0342   -2.8832    0.8648 N.2       1 <0>        -0.5098
      9 C7          1.7399   -4.1478    0.9685 C.2       1 <0>         0.2945
     10 O1          0.5622   -4.2593    1.5964 O.3       1 <0>        -0.0923
     11 N3          0.1366   -2.9365    1.8879 N.2       1 <0>        -0.3246
     12 C8          2.5820   -5.2921    0.4663 C.3       1 <0>        -0.0020
     13 C9          1.7848   -6.0995   -0.5608 C.3       1 <0>        -0.1339
     14 C10         2.6558   -7.2411   -1.0945 C.3       1 <0>         0.1316
     15 N4          3.1494   -8.0305    0.0421 N.am      1 <0>        -0.6255
     16 C11         3.8515   -7.3380    1.1314 C.3       1 <0>         0.1128
     17 C12         2.9670   -6.1954    1.6401 C.3       1 <0>        -0.1339
     18 C13         2.9614   -9.3644    0.0850 C.2       1 <0>         0.7099
     19 O2          2.2969   -9.9125   -0.7731 O.2       1 <0>        -0.5622
     20 N5          3.5099  -10.0906    1.0791 N.am      1 <0>        -0.6868
     21 C14         3.4088  -11.4863    1.0639 C.ar      1 <0>         0.1998
     22 C15         3.4109  -12.1710   -0.1443 C.ar      1 <0>        -0.1230
     23 C16         3.3115  -13.5485   -0.1559 C.ar      1 <0>        -0.0471
     24 C17         3.2099  -14.2459    1.0338 C.ar      1 <0>        -0.2030
     25 C18         3.2070  -13.5670    2.2385 C.ar      1 <0>        -0.0467
     26 C19         3.3119  -12.1900    2.2571 C.ar      1 <0>        -0.1509
     27 C20         3.1015  -15.7489    1.0174 C.3       1 <0>         0.5100
     28 F1          4.3823  -16.3093    1.0687 F         1 <0>        -0.1770
     29 F2          2.3613  -16.1752    2.1253 F         1 <0>        -0.1776
     30 F3          2.4604  -16.1574   -0.1570 F         1 <0>        -0.1767
     31 H1         -0.8452    1.9073    2.6334 H         1 <0>         0.1474
     32 H2          1.0675    3.1456    1.6423 H         1 <0>         0.1463
     33 H3          2.9059    1.8912    0.5913 H         1 <0>         0.1690
     34 H4         -0.8436   -0.5747    2.5223 H         1 <0>         0.1453
     35 H5          3.4850   -4.9004   -0.0019 H         1 <0>         0.1269
     36 H6          0.8942   -6.5124   -0.0870 H         1 <0>         0.0831
     37 H7          1.4909   -5.4500   -1.3853 H         1 <0>         0.0906
     38 H8          2.0624   -7.8773   -1.7510 H         1 <0>         0.1072
     39 H9          3.5001   -6.8288   -1.6471 H         1 <0>         0.0794
     40 H10         4.0468   -8.0383    1.9435 H         1 <0>         0.0850
     41 H11         4.7932   -6.9337    0.7602 H         1 <0>         0.0855
     42 H12         3.5146   -5.6142    2.3821 H         1 <0>         0.0908
     43 H13         2.0653   -6.6074    2.0932 H         1 <0>         0.0837
     44 H14         3.9747   -9.6459    1.8051 H         1 <0>         0.4094
     45 H15         3.4899  -11.6268   -1.0738 H         1 <0>         0.1481
     46 H16         3.3127  -14.0815   -1.0952 H         1 <0>         0.1400
     47 H17         3.1271  -14.1145    3.1660 H         1 <0>         0.1408
     48 H18         3.3144  -11.6607    3.1985 H         1 <0>         0.1378
@<TRIPOS>BOND
     1    1    6 ar
     2    1    2 ar
     3    1   31 1
     4    2    3 ar
     5    2   32 1
     6    3    4 ar
     7    3   33 1
     8    4    5 ar
     9    5    6 ar
    10    5    7 1
    11    6   34 1
    12    7   11 2
    13    7    8 1
    14    8    9 2
    15    9   10 1
    16    9   12 1
    17   10   11 1
    18   12   17 1
    19   12   13 1
    20   12   35 1
    21   13   14 1
    22   13   36 1
    23   13   37 1
    24   14   15 1
    25   14   38 1
    26   14   39 1
    27   15   16 1
    28   15   18 am
    29   16   17 1
    30   16   40 1
    31   16   41 1
    32   17   42 1
    33   17   43 1
    34   18   19 2
    35   18   20 am
    36   20   21 1
    37   20   44 1
    38   21   26 ar
    39   21   22 ar
    40   22   23 ar
    41   22   45 1
    42   23   24 ar
    43   23   46 1
    44   24   25 ar
    45   24   27 1
    46   25   26 ar
    47   25   47 1
    48   26   48 1
    49   27   28 1
    50   27   29 1
    51   27   30 1
@<TRIPOS>MOLECULE
ZINC00995229
   45    47     0     0     0
SMALL
USER_CHARGES
N-(3,3-diphenylpropyl)benzamide
@<TRIPOS>ATOM
      1 C1         -0.9676    1.2384   -0.7183 C.ar      1 <0>        -0.1217
      2 C2         -1.9256    2.2081   -0.9481 C.ar      1 <0>        -0.1179
      3 C3         -1.6369    3.5372   -0.7008 C.ar      1 <0>        -0.1139
      4 C4         -0.3869    3.8976   -0.2334 C.ar      1 <0>        -0.0727
      5 C5          0.5730    2.9285   -0.0091 C.ar      1 <0>        -0.1133
      6 C6          0.2826    1.5989   -0.2513 C.ar      1 <0>        -0.1171
      7 C7         -0.0705    5.3471    0.0311 C.3       1 <0>        -0.0032
      8 C8         -0.4167    6.1786   -1.2056 C.3       1 <0>        -0.1223
      9 C9          0.0193    7.6283   -0.9839 C.3       1 <0>         0.1197
     10 N1         -0.3122    8.4245   -2.1681 N.am      1 <0>        -0.7269
     11 C10        -0.0185    9.7395   -2.1999 C.2       1 <0>         0.5580
     12 O1          0.5214   10.2648   -1.2459 O.2       1 <0>        -0.5335
     13 C11        -0.3530   10.5430   -3.3950 C.ar      1 <0>        -0.1372
     14 C12        -0.9677    9.9416   -4.4943 C.ar      1 <0>        -0.0876
     15 C13        -1.2820   10.6982   -5.6044 C.ar      1 <0>        -0.1274
     16 C14        -0.9791   12.0479   -5.6337 C.ar      1 <0>        -0.0932
     17 C15        -0.3646   12.6490   -4.5495 C.ar      1 <0>        -0.1267
     18 C16        -0.0502   11.9051   -3.4311 C.ar      1 <0>        -0.0599
     19 C17        -0.8810    5.8320    1.2054 C.ar      1 <0>        -0.0745
     20 C18        -0.2517    6.1574    2.3924 C.ar      1 <0>        -0.1129
     21 C19        -0.9946    6.6067    3.4681 C.ar      1 <0>        -0.1159
     22 C20        -2.3680    6.7212    3.3599 C.ar      1 <0>        -0.1213
     23 C21        -2.9979    6.3904    2.1747 C.ar      1 <0>        -0.1176
     24 C22        -2.2544    5.9460    1.0974 C.ar      1 <0>        -0.1141
     25 H1         -1.1943    0.1996   -0.9078 H         1 <0>         0.1213
     26 H2         -2.9009    1.9269   -1.3171 H         1 <0>         0.1217
     27 H3         -2.3868    4.2943   -0.8764 H         1 <0>         0.1212
     28 H4          1.5497    3.2101    0.3558 H         1 <0>         0.1218
     29 H5          1.0325    0.8417   -0.0760 H         1 <0>         0.1224
     30 H6          0.9912    5.4523    0.2542 H         1 <0>         0.0910
     31 H7          0.1021    5.7719   -2.0737 H         1 <0>         0.0778
     32 H8         -1.4927    6.1449   -1.3766 H         1 <0>         0.0752
     33 H9         -0.4994    8.0350   -0.1158 H         1 <0>         0.0738
     34 H10         1.0953    7.6620   -0.8129 H         1 <0>         0.0701
     35 H11        -0.7430    8.0053   -2.9294 H         1 <0>         0.3996
     36 H12        -1.2006    8.8872   -4.4745 H         1 <0>         0.1248
     37 H13        -1.7617   10.2350   -6.4539 H         1 <0>         0.1298
     38 H14        -1.2231   12.6348   -6.5068 H         1 <0>         0.1285
     39 H15        -0.1309   13.7030   -4.5787 H         1 <0>         0.1312
     40 H16         0.4294   12.3754   -2.5855 H         1 <0>         0.1364
     41 H17         0.8209    6.0641    2.4782 H         1 <0>         0.1216
     42 H18        -0.5025    6.8649    4.3941 H         1 <0>         0.1223
     43 H19        -2.9488    7.0687    4.2015 H         1 <0>         0.1210
     44 H20        -4.0709    6.4794    2.0904 H         1 <0>         0.1211
     45 H21        -2.7466    5.6875    0.1715 H         1 <0>         0.1204
@<TRIPOS>BOND
     1    1    6 ar
     2    1    2 ar
     3    1   25 1
     4    2    3 ar
     5    2   26 1
     6    3    4 ar
     7    3   27 1
     8    4    5 ar
     9    4    7 1
    10    5    6 ar
    11    5   28 1
    12    6   29 1
    13    7    8 1
    14    7   19 1
    15    7   30 1
    16    8    9 1
    17    8   31 1
    18    8   32 1
    19    9   10 1
    20    9   33 1
    21    9   34 1
    22   10   11 am
    23   10   35 1
    24   11   12 2
    25   11   13 1
    26   13   18 ar
    27   13   14 ar
    28   14   15 ar
    29   14   36 1
    30   15   16 ar
    31   15   37 1
    32   16   17 ar
    33   16   38 1
    34   17   18 ar
    35   17   39 1
    36   18   40 1
    37   19   24 ar
    38   19   20 ar
    39   20   21 ar
    40   20   41 1
    41   21   22 ar
    42   21   42 1
    43   22   23 ar
    44   22   43 1
    45   23   24 ar
    46   23   44 1
    47   24   45 1
@<TRIPOS>MOLECULE
ZINC04401896
   44    46     0     0     0
SMALL
USER_CHARGES
N-(3,3-diphenylpropyl)pyridine-3-carboxamide
@<TRIPOS>ATOM
      1 C1          3.6008   12.6799    0.0881 C.ar      1 <0>        -0.1215
      2 C2          2.6644   11.7911    0.5821 C.ar      1 <0>        -0.1177
      3 C3          2.9193   10.4327    0.5556 C.ar      1 <0>        -0.1138
      4 C4          4.1109    9.9632    0.0356 C.ar      1 <0>        -0.0732
      5 C5          5.0498   10.8523   -0.4532 C.ar      1 <0>        -0.1132
      6 C6          4.7926   12.2103   -0.4316 C.ar      1 <0>        -0.1172
      7 C7          4.3891    8.4823    0.0072 C.3       1 <0>        -0.0029
      8 C8          3.2175    7.7560   -0.6567 C.3       1 <0>        -0.1232
      9 C9          3.5530    6.2699   -0.7983 C.3       1 <0>         0.1197
     10 N1          2.4312    5.5745   -1.4339 N.am      1 <0>        -0.7250
     11 C10         2.5026    4.2480   -1.6618 C.2       1 <0>         0.5639
     12 O1          3.4979    3.6288   -1.3400 O.2       1 <0>        -0.5301
     13 C11         1.3706    3.5462   -2.3033 C.ar      1 <0>        -0.1901
     14 C12         1.4323    2.1685   -2.5456 C.ar      1 <0>        -0.0160
     15 C13         0.3459    1.5593   -3.1481 C.ar      1 <0>        -0.1773
     16 C14        -0.7537    2.3245   -3.4939 C.ar      1 <0>         0.1235
     17 N2         -0.7863    3.6202   -3.2478 N.ar      1 <0>        -0.4867
     18 C15         0.2225    4.2454   -2.6771 C.ar      1 <0>         0.1342
     19 C16         4.5604    7.9763    1.4163 C.ar      1 <0>        -0.0749
     20 C17         3.4817    7.9598    2.2807 C.ar      1 <0>        -0.1141
     21 C18         3.6377    7.4911    3.5718 C.ar      1 <0>        -0.1176
     22 C19         4.8746    7.0482    4.0016 C.ar      1 <0>        -0.1212
     23 C20         5.9546    7.0700    3.1389 C.ar      1 <0>        -0.1160
     24 C21         5.7974    7.5338    1.8463 C.ar      1 <0>        -0.1129
     25 H1          3.4015   13.7411    0.1084 H         1 <0>         0.1214
     26 H2          1.7334   12.1580    0.9884 H         1 <0>         0.1218
     27 H3          2.1877    9.7384    0.9416 H         1 <0>         0.1213
     28 H4          5.9827   10.4856   -0.8554 H         1 <0>         0.1218
     29 H5          5.5244   12.9047   -0.8172 H         1 <0>         0.1224
     30 H6          5.3010    8.2947   -0.5596 H         1 <0>         0.0911
     31 H7          3.0370    8.1833   -1.6430 H         1 <0>         0.0788
     32 H8          2.3243    7.8699   -0.0424 H         1 <0>         0.0760
     33 H9          3.7335    5.8426    0.1881 H         1 <0>         0.0750
     34 H10         4.4462    6.1560   -1.4125 H         1 <0>         0.0714
     35 H11         1.6370    6.0686   -1.6908 H         1 <0>         0.4001
     36 H12         2.3056    1.5961   -2.2696 H         1 <0>         0.1485
     37 H13         0.3579    0.4985   -3.3504 H         1 <0>         0.1455
     38 H14        -1.6011    1.8525   -3.9687 H         1 <0>         0.1638
     39 H15         0.1605    5.3084   -2.4966 H         1 <0>         0.1573
     40 H16         2.5163    8.3097    1.9462 H         1 <0>         0.1207
     41 H17         2.7941    7.4744    4.2459 H         1 <0>         0.1212
     42 H18         4.9974    6.6855    5.0114 H         1 <0>         0.1210
     43 H19         6.9211    6.7243    3.4748 H         1 <0>         0.1223
     44 H20         6.6411    7.5508    1.1723 H         1 <0>         0.1217
@<TRIPOS>BOND
     1    1    6 ar
     2    1    2 ar
     3    1   25 1
     4    2    3 ar
     5    2   26 1
     6    3    4 ar
     7    3   27 1
     8    4    5 ar
     9    4    7 1
    10    5    6 ar
    11    5   28 1
    12    6   29 1
    13    7    8 1
    14    7   19 1
    15    7   30 1
    16    8    9 1
    17    8   31 1
    18    8   32 1
    19    9   10 1
    20    9   33 1
    21    9   34 1
    22   10   11 am
    23   10   35 1
    24   11   12 2
    25   11   13 1
    26   13   18 ar
    27   13   14 ar
    28   14   15 ar
    29   14   36 1
    30   15   16 ar
    31   15   37 1
    32   16   17 ar
    33   16   38 1
    34   17   18 ar
    35   18   39 1
    36   19   24 ar
    37   19   20 ar
    38   20   21 ar
    39   20   40 1
    40   21   22 ar
    41   21   41 1
    42   22   23 ar
    43   22   42 1
    44   23   24 ar
    45   23   43 1
    46   24   44 1
@<TRIPOS>MOLECULE
ZINC02736778
   34    35     0     0     0
SMALL
USER_CHARGES
N-(3-phenylpropyl)pyridine-3-carboxamide
@<TRIPOS>ATOM
      1 C1          3.3615   12.6285    0.0391 C.ar      1 <0>        -0.1237
      2 C2          3.5389   11.9511    1.2311 C.ar      1 <0>        -0.1181
      3 C3          3.8711   10.6093    1.2207 C.ar      1 <0>        -0.1172
      4 C4          4.0264    9.9450    0.0185 C.ar      1 <0>        -0.0841
      5 C5          3.8547   10.6237   -1.1735 C.ar      1 <0>        -0.1172
      6 C6          3.5173   11.9642   -1.1631 C.ar      1 <0>        -0.1181
      7 C7          4.3891    8.4823    0.0072 C.3       1 <0>        -0.0776
      8 C8          3.1118    7.6401    0.0144 C.3       1 <0>        -0.1264
      9 C9          3.4799    6.1551    0.0029 C.3       1 <0>         0.1179
     10 N1          2.2569    5.3487    0.0098 N.am      1 <0>        -0.7259
     11 C10         2.3367    4.0033    0.0018 C.2       1 <0>         0.5640
     12 O1          3.4235    3.4591   -0.0112 O.2       1 <0>        -0.5312
     13 C11         1.1025    3.1895    0.0087 C.ar      1 <0>        -0.1909
     14 C12         1.1718    1.7910    0.0005 C.ar      1 <0>        -0.0158
     15 C13        -0.0126    1.0758    0.0080 C.ar      1 <0>        -0.1773
     16 C14        -1.2159    1.7585    0.0173 C.ar      1 <0>         0.1238
     17 N2         -1.2505    3.0773    0.0311 N.ar      1 <0>        -0.4869
     18 C15        -0.1510    3.8021    0.0240 C.ar      1 <0>         0.1345
     19 H1          3.1016   13.6767    0.0472 H         1 <0>         0.1214
     20 H2          3.4175   12.4702    2.1703 H         1 <0>         0.1220
     21 H3          4.0097   10.0802    2.1519 H         1 <0>         0.1214
     22 H4          3.9803   10.1057   -2.1128 H         1 <0>         0.1214
     23 H5          3.3791   12.4935   -2.0943 H         1 <0>         0.1220
     24 H6          4.9834    8.2485    0.8905 H         1 <0>         0.0773
     25 H7          4.9671    8.2582   -0.8893 H         1 <0>         0.0773
     26 H8          2.5174    7.8739   -0.8689 H         1 <0>         0.0729
     27 H9          2.5338    7.8643    0.9109 H         1 <0>         0.0729
     28 H10         4.0743    5.9213    0.8863 H         1 <0>         0.0723
     29 H11         4.0579    5.9310   -0.8936 H         1 <0>         0.0723
     30 H12         1.3896    5.7830    0.0201 H         1 <0>         0.4009
     31 H13         2.1251    1.2838   -0.0117 H         1 <0>         0.1487
     32 H14         0.0021   -0.0041    0.0020 H         1 <0>         0.1457
     33 H15        -2.1419    1.2028    0.0183 H         1 <0>         0.1640
     34 H16        -0.2202    4.8798    0.0305 H         1 <0>         0.1574
@<TRIPOS>BOND
     1    1    6 ar
     2    1    2 ar
     3    1   19 1
     4    2    3 ar
     5    2   20 1
     6    3    4 ar
     7    3   21 1
     8    4    5 ar
     9    4    7 1
    10    5    6 ar
    11    5   22 1
    12    6   23 1
    13    7    8 1
    14    7   24 1
    15    7   25 1
    16    8    9 1
    17    8   26 1
    18    8   27 1
    19    9   10 1
    20    9   28 1
    21    9   29 1
    22   10   11 am
    23   10   30 1
    24   11   12 2
    25   11   13 1
    26   13   18 ar
    27   13   14 ar
    28   14   15 ar
    29   14   31 1
    30   15   16 ar
    31   15   32 1
    32   16   17 ar
    33   16   33 1
    34   17   18 ar
    35   18   34 1
@<TRIPOS>MOLECULE
ZINC16695657
   45    47     0     0     0
SMALL
USER_CHARGES
N-(3,3-diphenylpropyl)-6-oxo-1H-pyridine-3-carboxamide
@<TRIPOS>ATOM
      1 C1         -4.5557    3.4516   -3.6467 C.ar      1 <0>        -0.1215
      2 C2         -3.7130    2.3560   -3.6288 C.ar      1 <0>        -0.1177
      3 C3         -3.4598    1.6981   -2.4397 C.ar      1 <0>        -0.1140
      4 C4         -4.0498    2.1355   -1.2686 C.ar      1 <0>        -0.0742
      5 C5         -4.8970    3.2276   -1.2875 C.ar      1 <0>        -0.1132
      6 C6         -5.1460    3.8888   -2.4757 C.ar      1 <0>        -0.1161
      7 C7         -3.7742    1.4180    0.0277 C.3       1 <0>        -0.0040
      8 C8         -2.2628    1.2969    0.2322 C.3       1 <0>        -0.1217
      9 C9         -1.6581    2.6916    0.4051 C.3       1 <0>         0.1233
     10 N1         -0.2109    2.5757    0.6009 N.am      1 <0>        -0.7363
     11 C10         0.5371    3.6839    0.7703 C.2       1 <0>         0.5784
     12 O1          0.0101    4.7798    0.7655 O.2       1 <0>        -0.5485
     13 C11         1.9946    3.5675    0.9613 C.2       1 <0>        -0.2627
     14 C12         2.6140    2.2942    0.9678 C.2       1 <0>         0.0027
     15 C13         3.9597    2.2164    1.1461 C.2       1 <0>        -0.2425
     16 C14         4.7054    3.3976    1.3195 C.2       1 <0>         0.5176
     17 O2          5.9128    3.3331    1.4794 O.2       1 <0>        -0.5405
     18 N2          4.0964    4.5972    1.3099 N.am      1 <0>        -0.6114
     19 H1          4.6865    5.5147    1.4509 H         1 <0>         0.4516
     20 C15         2.7664    4.6991    1.1295 C.2       1 <0>         0.2191
     21 C16        -4.3865    0.0418   -0.0199 C.ar      1 <0>        -0.0731
     22 C17        -3.8791   -0.9110   -0.8833 C.ar      1 <0>        -0.1139
     23 C18        -4.4377   -2.1749   -0.9234 C.ar      1 <0>        -0.1179
     24 C19        -5.5102   -2.4827   -0.1074 C.ar      1 <0>        -0.1218
     25 C20        -6.0213   -1.5281    0.7519 C.ar      1 <0>        -0.1171
     26 C21        -5.4593   -0.2659    0.7958 C.ar      1 <0>        -0.1136
     27 H2         -4.7532    3.9659   -4.5756 H         1 <0>         0.1208
     28 H3         -3.2520    2.0143   -4.5438 H         1 <0>         0.1209
     29 H4         -2.8014    0.8421   -2.4257 H         1 <0>         0.1206
     30 H5         -5.3614    3.5667   -0.3732 H         1 <0>         0.1214
     31 H6         -5.8047    4.7445   -2.4897 H         1 <0>         0.1220
     32 H7         -4.2269    1.9842    0.8550 H         1 <0>         0.0912
     33 H8         -2.0614    0.6959    1.1313 H         1 <0>         0.0784
     34 H9         -1.8122    0.8080   -0.6441 H         1 <0>         0.0760
     35 H10        -1.8595    3.2926   -0.4940 H         1 <0>         0.0725
     36 H11        -2.1086    3.1805    1.2814 H         1 <0>         0.0683
     37 H12         0.2653    1.5841    0.6097 H         1 <0>         0.4179
     38 H13         2.0262    1.3982    0.8336 H         1 <0>         0.1365
     39 H14         4.4528    1.2556    1.1541 H         1 <0>         0.1545
     40 H15         2.2995    5.6729    1.1208 H         1 <0>         0.1802
     41 H16        -3.0438   -0.6692   -1.5238 H         1 <0>         0.1213
     42 H17        -4.0386   -2.9206   -1.5951 H         1 <0>         0.1216
     43 H18        -5.9490   -3.4690   -0.1415 H         1 <0>         0.1212
     44 H19        -6.8594   -1.7685    1.3892 H         1 <0>         0.1222
     45 H20        -5.8586    0.4799    1.4672 H         1 <0>         0.1216
@<TRIPOS>BOND
     1    1    6 ar
     2    1    2 ar
     3    1   27 1
     4    2    3 ar
     5    2   28 1
     6    3    4 ar
     7    3   29 1
     8    4    5 ar
     9    4    7 1
    10    5    6 ar
    11    5   30 1
    12    6   31 1
    13    7    8 1
    14    7   21 1
    15    7   32 1
    16    8    9 1
    17    8   33 1
    18    8   34 1
    19    9   10 1
    20    9   35 1
    21    9   36 1
    22   10   11 am
    23   10   37 1
    24   11   12 2
    25   11   13 1
    26   13   20 2
    27   13   14 1
    28   14   15 2
    29   14   38 1
    30   15   16 1
    31   15   39 1
    32   16   17 2
    33   16   18 am
    34   18   19 1
    35   18   20 1
    36   20   40 1
    37   21   26 ar
    38   21   22 ar
    39   22   23 ar
    40   22   41 1
    41   23   24 ar
    42   23   42 1
    43   24   25 ar
    44   24   43 1
    45   25   26 ar
    46   25   44 1
    47   26   45 1
@<TRIPOS>MOLECULE
ZINC15303951
   29    30     0     0     0
SMALL
USER_CHARGES

@<TRIPOS>ATOM
      1 C1         -0.0167    1.3792    0.0096 C.ar      1 <0>        -0.1057
      2 C2          1.1708    2.0869    0.0021 C.ar      1 <0>        -0.0732
      3 C3          2.3773    1.4131   -0.0135 C.ar      1 <0>        -0.1006
      4 C4          2.3974    0.0294   -0.0212 C.ar      1 <0>        -0.0128
      5 C5          1.2096   -0.6792   -0.0132 C.ar      1 <0>        -0.1038
      6 C6          0.0021   -0.0041    0.0020 C.ar      1 <0>        -0.0166
      7 Cl1        -1.4893   -0.8926    0.0121 Cl        1 <0>        -0.0499
      8 Cl2         3.9130   -0.8168   -0.0414 Cl        1 <0>        -0.0442
      9 C7          3.6714    2.1853   -0.0227 C.3       1 <0>         0.1615
     10 N1          4.2874    2.1218    1.3049 N.am      1 <0>        -0.7207
     11 C8          5.4603    2.7449    1.5341 C.2       1 <0>         0.5820
     12 O1          6.0073    3.3598    0.6388 O.2       1 <0>        -0.5408
     13 C9          6.0804    2.6810    2.8704 C.2       1 <0>        -0.2585
     14 C10         5.4511    1.9618    3.9153 C.2       1 <0>         0.0017
     15 C11         6.0452    1.9195    5.1377 C.2       1 <0>        -0.2373
     16 C12         7.2674    2.5885    5.3378 C.2       1 <0>         0.5160
     17 O2          7.8042    2.5537    6.4324 O.2       1 <0>        -0.5352
     18 N2          7.8481    3.2658    4.3307 N.am      1 <0>        -0.5975
     19 H1          8.6907    3.7209    4.4849 H         1 <0>         0.4236
     20 C13         7.2812    3.3170    3.1110 C.2       1 <0>         0.2186
     21 H2         -0.9592    1.9062    0.0260 H         1 <0>         0.1448
     22 H3          1.1557    3.1667    0.0080 H         1 <0>         0.1471
     23 H4          1.2248   -1.7590   -0.0191 H         1 <0>         0.1478
     24 H5          4.3484    1.7512   -0.7585 H         1 <0>         0.0884
     25 H6          3.4721    3.2252   -0.2815 H         1 <0>         0.0872
     26 H7          3.8511    1.6314    2.0191 H         1 <0>         0.4012
     27 H8          4.5131    1.4546    3.7440 H         1 <0>         0.1369
     28 H9          5.5826    1.3771    5.9490 H         1 <0>         0.1566
     29 H10         7.7675    3.8629    2.3161 H         1 <0>         0.1834
@<TRIPOS>BOND
     1    1    6 ar
     2    1    2 ar
     3    1   21 1
     4    2    3 ar
     5    2   22 1
     6    3    4 ar
     7    3    9 1
     8    4    5 ar
     9    4    8 1
    10    5    6 ar
    11    5   23 1
    12    6    7 1
    13    9   10 1
    14    9   24 1
    15    9   25 1
    16   10   11 am
    17   10   26 1
    18   11   12 2
    19   11   13 1
    20   13   20 2
    21   13   14 1
    22   14   15 2
    23   14   27 1
    24   15   16 1
    25   15   28 1
    26   16   17 2
    27   16   18 am
    28   18   19 1
    29   18   20 1
    30   20   29 1
@<TRIPOS>MOLECULE
ZINC05509004
   44    46     0     0     0
SMALL
USER_CHARGES
N-(3,3-diphenylpropyl)pyridine-4-carboxamide
@<TRIPOS>ATOM
      1 C1         -8.1740    5.8339   -3.5832 C.ar      1 <0>        -0.1210
      2 C2         -7.3596    4.7170   -3.5680 C.ar      1 <0>        -0.1176
      3 C3         -7.1180    4.0538   -2.3795 C.ar      1 <0>        -0.1143
      4 C4         -7.6912    4.5073   -1.2061 C.ar      1 <0>        -0.0753
      5 C5         -8.5102    5.6208   -1.2222 C.ar      1 <0>        -0.1129
      6 C6         -8.7476    6.2871   -2.4099 C.ar      1 <0>        -0.1158
      7 C7         -7.4282    3.7840    0.0896 C.3       1 <0>        -0.0028
      8 C8         -5.9195    3.6243    0.2874 C.3       1 <0>        -0.1227
      9 C9         -5.2784    5.0032    0.4562 C.3       1 <0>         0.1189
     10 N1         -3.8338    4.8503    0.6455 N.am      1 <0>        -0.7225
     11 C10        -3.0575    5.9388    0.8159 C.2       1 <0>         0.5577
     12 O1         -3.5559    7.0471    0.8125 O.2       1 <0>        -0.5242
     13 C11        -1.5966    5.7842    1.0074 C.ar      1 <0>        -0.0886
     14 C12        -1.0022    4.5187    1.0090 C.ar      1 <0>        -0.1441
     15 C13         0.3631    4.4202    1.1956 C.ar      1 <0>         0.0982
     16 N2          1.1032    5.4984    1.3604 N.ar      1 <0>        -0.4682
     17 C14         0.5839    6.7100    1.3606 C.ar      1 <0>         0.0995
     18 C15        -0.7733    6.9000    1.1859 C.ar      1 <0>        -0.1155
     19 C16        -8.0759    2.4240    0.0462 C.ar      1 <0>        -0.0734
     20 C17        -7.5970    1.4577   -0.8186 C.ar      1 <0>        -0.1140
     21 C18        -8.1881    0.2086   -0.8550 C.ar      1 <0>        -0.1178
     22 C19        -9.2644   -0.0709   -0.0338 C.ar      1 <0>        -0.1213
     23 C20        -9.7468    0.8972    0.8269 C.ar      1 <0>        -0.1170
     24 C21        -9.1525    2.1446    0.8670 C.ar      1 <0>        -0.1131
     25 H1         -8.3625    6.3522   -4.5117 H         1 <0>         0.1213
     26 H2         -6.9118    4.3628   -4.4847 H         1 <0>         0.1212
     27 H3         -6.4817    3.1812   -2.3676 H         1 <0>         0.1205
     28 H4         -8.9616    5.9724   -0.3062 H         1 <0>         0.1218
     29 H5         -9.3841    7.1594   -2.4218 H         1 <0>         0.1225
     30 H6         -7.8443    4.3584    0.9172 H         1 <0>         0.0912
     31 H7         -5.4895    3.1278   -0.5826 H         1 <0>         0.0759
     32 H8         -5.7312    3.0246    1.1779 H         1 <0>         0.0785
     33 H9         -5.7084    5.4997    1.3261 H         1 <0>         0.0720
     34 H10        -5.4667    5.6029   -0.4344 H         1 <0>         0.0757
     35 H11        -3.4360    3.9657    0.6483 H         1 <0>         0.4010
     36 H12        -1.6018    3.6312    0.8701 H         1 <0>         0.1383
     37 H13         0.8310    3.4469    1.2020 H         1 <0>         0.1637
     38 H14         1.2281    7.5656    1.4988 H         1 <0>         0.1658
     39 H15        -1.1919    7.8956    1.1867 H         1 <0>         0.1494
     40 H16        -6.7587    1.6774   -1.4631 H         1 <0>         0.1211
     41 H17        -7.8113   -0.5477   -1.5277 H         1 <0>         0.1219
     42 H18        -9.7285   -1.0456   -0.0649 H         1 <0>         0.1215
     43 H19       -10.5879    0.6790    1.4682 H         1 <0>         0.1226
     44 H20        -9.5294    2.9010    1.5394 H         1 <0>         0.1218
@<TRIPOS>BOND
     1    1    6 ar
     2    1    2 ar
     3    1   25 1
     4    2    3 ar
     5    2   26 1
     6    3    4 ar
     7    3   27 1
     8    4    5 ar
     9    4    7 1
    10    5    6 ar
    11    5   28 1
    12    6   29 1
    13    7    8 1
    14    7   19 1
    15    7   30 1
    16    8    9 1
    17    8   31 1
    18    8   32 1
    19    9   10 1
    20    9   33 1
    21    9   34 1
    22   10   11 am
    23   10   35 1
    24   11   12 2
    25   11   13 1
    26   13   18 ar
    27   13   14 ar
    28   14   15 ar
    29   14   36 1
    30   15   16 ar
    31   15   37 1
    32   16   17 ar
    33   17   18 ar
    34   17   38 1
    35   18   39 1
    36   19   24 ar
    37   19   20 ar
    38   20   21 ar
    39   20   40 1
    40   21   22 ar
    41   21   41 1
    42   22   23 ar
    43   22   42 1
    44   23   24 ar
    45   23   43 1
    46   24   44 1
