@<TRIPOS>MOLECULE
ZINC00027320
   18    19     0     0     0
SMALL
USER_CHARGES
4-phenyl-2H-triazole
@<TRIPOS>ATOM
      1 C1          3.1683    6.4087    0.0038 C.ar      1 <0>        -0.1115
      2 C2          3.7303    5.1449   -0.0074 C.ar      1 <0>        -0.1196
      3 C3          2.9209    4.0269   -0.0050 C.ar      1 <0>        -0.0931
      4 C4          1.5357    4.1731    0.0091 C.ar      1 <0>        -0.0105
      5 C5          0.9748    5.4482    0.0155 C.ar      1 <0>        -0.0983
      6 C6          1.7935    6.5595    0.0183 C.ar      1 <0>        -0.1181
      7 C7          0.6600    2.9741    0.0112 C.2       1 <0>         0.0440
      8 C8         -0.7466    2.9482    0.0242 C.2       1 <0>        -0.0078
      9 N1         -1.0804    1.6790    0.0158 N.2       1 <0>        -0.2811
     10 N2         -0.0111    0.9658    0.0074 N.pl3     1 <0>        -0.2474
     11 H1          0.0025   -0.0341    0.0058 H         1 <0>         0.4789
     12 N3          1.0389    1.7081    0.0013 N.2       1 <0>        -0.2741
     13 H2          3.8053    7.2809    0.0015 H         1 <0>         0.1252
     14 H3          4.8044    5.0327   -0.0184 H         1 <0>         0.1267
     15 H4          3.3607    3.0406   -0.0138 H         1 <0>         0.1289
     16 H5         -0.0986    5.5670    0.0224 H         1 <0>         0.1280
     17 H6          1.3598    7.5485    0.0274 H         1 <0>         0.1284
     18 H7         -1.4138    3.7974    0.0347 H         1 <0>         0.2013
@<TRIPOS>BOND
     1    1    6 ar
     2    1    2 ar
     3    1   13 1
     4    2    3 ar
     5    2   14 1
     6    3    4 ar
     7    3   15 1
     8    4    5 ar
     9    4    7 1
    10    5    6 ar
    11    5   16 1
    12    6   17 1
    13    7   12 2
    14    7    8 1
    15    8    9 2
    16    8   18 1
    17    9   10 1
    18   10   11 1
    19   10   12 1
@<TRIPOS>MOLECULE
ZINC00165587
   20    21     0     0     0
SMALL
USER_CHARGES

@<TRIPOS>ATOM
      1 C1         -0.0164    1.3571    0.0095 C.ar      1 <0>        -0.1126
      2 C2          1.1686    2.0905    0.0021 C.ar      1 <0>        -0.1126
      3 C3          2.3785    1.4666   -0.0132 C.ar      1 <0>        -0.1007
      4 C4          2.4367    0.0633   -0.0212 C.ar      1 <0>        -0.0636
      5 C5          1.2319   -0.6823   -0.0132 C.ar      1 <0>        -0.0636
      6 C6          0.0021   -0.0041    0.0020 C.ar      1 <0>        -0.1007
      7 C7          1.2907   -2.0902   -0.0208 C.ar      1 <0>         0.1106
      8 C8          2.5050   -2.7160   -0.0357 C.ar      1 <0>        -0.1294
      9 C9          3.6886   -1.9835   -0.0435 C.ar      1 <0>        -0.1294
     10 C10         3.6704   -0.6175   -0.0366 C.ar      1 <0>         0.1107
     11 O1          4.8362    0.0813   -0.0449 O.3       1 <0>        -0.4922
     12 O2          0.1452   -2.8219   -0.0129 O.3       1 <0>        -0.4922
     13 H1         -0.9633    1.8762    0.0259 H         1 <0>         0.1269
     14 H2          1.1265    3.1696    0.0083 H         1 <0>         0.1269
     15 H3          3.2888    2.0477   -0.0195 H         1 <0>         0.1334
     16 H4         -0.9241   -0.5595    0.0082 H         1 <0>         0.1334
     17 H5          2.5472   -3.7951   -0.0411 H         1 <0>         0.1352
     18 H6          4.6355   -2.5028   -0.0553 H         1 <0>         0.1352
     19 H7          5.1823    0.2794    0.8361 H         1 <0>         0.3924
     20 H8         -0.1952   -3.0292   -0.8939 H         1 <0>         0.3924
@<TRIPOS>BOND
     1    1    6 ar
     2    1    2 ar
     3    1   13 1
     4    2    3 ar
     5    2   14 1
     6    3    4 ar
     7    3   15 1
     8    4   10 ar
     9    4    5 ar
    10    5    6 ar
    11    5    7 ar
    12    6   16 1
    13    7    8 ar
    14    7   12 1
    15    8    9 ar
    16    8   17 1
    17    9   10 ar
    18    9   18 1
    19   10   11 1
    20   11   19 1
    21   12   20 1
@<TRIPOS>MOLECULE
ZINC00165587
   20    21     0     0     0
SMALL
USER_CHARGES

@<TRIPOS>ATOM
      1 C1         -0.0167    1.3797    0.0096 C.ar      1 <0>        -0.0996
      2 C2          1.1651    2.0998    0.0022 C.ar      1 <0>        -0.0996
      3 C3          2.3861    1.4485   -0.0132 C.ar      1 <0>        -0.0718
      4 C4          2.4254    0.0581   -0.0212 C.ar      1 <0>        -0.1278
      5 C5          1.2196   -0.6766   -0.0130 C.ar      1 <0>        -0.1279
      6 C6          0.0021   -0.0041    0.0020 C.ar      1 <0>        -0.0718
      7 C7          1.2721   -2.1506   -0.0197 C.2       1 <0>         0.3953
      8 O1          0.2977   -2.8064    0.2806 O.2       1 <0>        -0.4366
      9 C8          2.5683   -2.8265   -0.4101 C.3       1 <0>        -0.1579
     10 C9          3.7210   -2.1323    0.3286 C.3       1 <0>        -0.1579
     11 C10         3.7112   -0.6645   -0.0386 C.2       1 <0>         0.3953
     12 O2          4.7378   -0.0946   -0.3403 O.2       1 <0>        -0.4366
     13 H1         -0.9618    1.9021    0.0260 H         1 <0>         0.1373
     14 H2          1.1343    3.1793    0.0081 H         1 <0>         0.1373
     15 H3          3.3043    2.0172   -0.0193 H         1 <0>         0.1414
     16 H4         -0.9243   -0.5592    0.0074 H         1 <0>         0.1413
     17 H5          2.5326   -3.8785   -0.1267 H         1 <0>         0.1103
     18 H6          2.7175   -2.7389   -1.4862 H         1 <0>         0.1094
     19 H7          3.5851   -2.2416    1.4046 H         1 <0>         0.1095
     20 H8          4.6694   -2.5784    0.0291 H         1 <0>         0.1103
@<TRIPOS>BOND
     1    1    6 ar
     2    1    2 ar
     3    1   13 1
     4    2    3 ar
     5    2   14 1
     6    3    4 ar
     7    3   15 1
     8    4   11 1
     9    4    5 ar
    10    5    6 ar
    11    5    7 1
    12    6   16 1
    13    7    8 2
    14    7    9 1
    15    9   10 1
    16    9   17 1
    17    9   18 1
    18   10   11 1
    19   10   19 1
    20   10   20 1
    21   11   12 2
@<TRIPOS>MOLECULE
ZINC00120515
   20    21     0     0     0
SMALL
USER_CHARGES
5-aminoquinolin-8-ol
@<TRIPOS>ATOM
      1 C1          1.1207    5.9107    0.0209 C.ar      1 <0>        -0.1847
      2 C2         -0.0828    5.2625    0.0293 C.ar      1 <0>        -0.0499
      3 C3         -0.0795    3.8574    0.0226 C.ar      1 <0>        -0.1398
      4 C4         -1.2824    3.1208    0.0301 C.ar      1 <0>         0.2340
      5 C5         -1.2337    1.7434    0.0174 C.ar      1 <0>        -0.2054
      6 C6         -0.0126    1.0758    0.0080 C.ar      1 <0>        -0.0720
      7 C7          1.1671    1.7630    0.0004 C.ar      1 <0>         0.0658
      8 C8          1.1605    3.1723    0.0075 C.ar      1 <0>         0.1426
      9 N1          2.3029    3.8662   -0.0001 N.ar      1 <0>        -0.4667
     10 C9          2.3041    5.1775    0.0061 C.ar      1 <0>         0.1372
     11 O1          2.3476    1.0881   -0.0145 O.3       1 <0>        -0.4809
     12 N2         -2.5118    3.7813    0.0446 N.pl3     1 <0>        -0.8668
     13 H1          1.1534    6.9902    0.0253 H         1 <0>         0.1390
     14 H2         -1.0106    5.8151    0.0412 H         1 <0>         0.1334
     15 H3         -2.1528    1.1762    0.0191 H         1 <0>         0.1301
     16 H4          0.0021   -0.0041    0.0020 H         1 <0>         0.1359
     17 H5          3.2479    5.7025   -0.0001 H         1 <0>         0.1612
     18 H6          2.6806    0.8977   -0.9022 H         1 <0>         0.3835
     19 H7         -2.5414    4.7509    0.0494 H         1 <0>         0.3987
     20 H8         -3.3366    3.2708    0.0497 H         1 <0>         0.4049
@<TRIPOS>BOND
     1    1   10 ar
     2    1    2 ar
     3    1   13 1
     4    2    3 ar
     5    2   14 1
     6    3    8 ar
     7    3    4 ar
     8    4    5 ar
     9    4   12 1
    10    5    6 ar
    11    5   15 1
    12    6    7 ar
    13    6   16 1
    14    7    8 ar
    15    7   11 1
    16    8    9 ar
    17    9   10 ar
    18   10   17 1
    19   11   18 1
    20   12   19 1
    21   12   20 1
@<TRIPOS>MOLECULE
ZINC45319649
   25    26     0     0     0
SMALL
USER_CHARGES

@<TRIPOS>ATOM
      1 C1         -0.0966    1.2918   -0.7847 C.ar      1 <0>        -0.1135
      2 C2          1.0560    2.0534   -0.7989 C.ar      1 <0>        -0.1094
      3 C3          2.2059    1.5822   -0.1893 C.ar      1 <0>         0.0929
      4 C4          2.2037    0.3457    0.4371 C.ar      1 <0>        -0.0379
      5 C5          1.0527   -0.4189    0.4539 C.ar      1 <0>        -0.0999
      6 C6         -0.1017    0.0527   -0.1579 C.ar      1 <0>         0.1643
      7 N1         -1.2680   -0.7194   -0.1422 N.pl3     1 <0>        -0.6710
      8 C7         -1.1832   -2.1018   -0.1034 C.2       1 <0>         0.4304
      9 N2         -2.1374   -2.7967    0.4421 N.2       1 <0>        -0.3616
     10 O1         -3.3194   -2.1530    0.8823 O.3       1 <0>        -0.3858
     11 C8         -0.0058   -2.7880   -0.6830 C.2       1 <0>         0.0911
     12 C9          0.1778   -4.2406   -0.7884 C.2       1 <0>         0.3596
     13 N3          1.3320   -4.4680   -1.3526 N.2       1 <0>        -0.3472
     14 O2          1.9349   -3.2172   -1.6322 O.3       1 <0>         0.0474
     15 N4          1.0467   -2.2042   -1.1943 N.2       1 <0>        -0.2130
     16 N5         -0.7227   -5.2074   -0.3603 N.pl3     1 <0>        -0.8039
     17 Cl1         3.6476   -0.2429    1.2003 Cl        1 <0>        -0.0383
     18 F1          3.3321    2.3283   -0.2052 F         1 <0>        -0.1240
     19 H1         -0.9945    1.6620   -1.2570 H         1 <0>         0.1446
     20 H2          1.0599    3.0171   -1.2864 H         1 <0>         0.1527
     21 H3          1.0510   -1.3825    0.9416 H         1 <0>         0.1326
     22 H4         -2.1361   -0.2870   -0.1585 H         1 <0>         0.4291
     23 H5         -3.9380   -2.7376    1.3412 H         1 <0>         0.4146
     24 H6         -1.5603   -4.9419    0.0506 H         1 <0>         0.4272
     25 H7         -0.5141   -6.1480   -0.4723 H         1 <0>         0.4191
@<TRIPOS>BOND
     1    1    6 ar
     2    1    2 ar
     3    1   19 1
     4    2    3 ar
     5    2   20 1
     6    3    4 ar
     7    3   18 1
     8    4    5 ar
     9    4   17 1
    10    5    6 ar
    11    5   21 1
    12    6    7 1
    13    7    8 1
    14    7   22 1
    15    8    9 2
    16    8   11 1
    17    9   10 1
    18   10   23 1
    19   11   15 2
    20   11   12 1
    21   12   13 2
    22   12   16 1
    23   13   14 1
    24   14   15 1
    25   16   24 1
    26   16   25 1
