@<TRIPOS>MOLECULE
ZINC15521877
   44    46     0     0     0
SMALL
USER_CHARGES

@<TRIPOS>ATOM
      1 C1         -0.0178    1.4608    0.0101 C.3       1 <0>         0.0436
      2 N1          0.0021   -0.0041    0.0020 N.pl3     1 <0>        -0.3301
      3 C2          0.0078   -0.7506   -1.0634 C.cat     1 <0>         0.3595
      4 N2          0.0272   -2.0675   -0.7055 N.pl3     1 <0>        -0.4177
      5 C3          0.0336   -2.1218    0.6620 C.2       1 <0>         0.4142
      6 C4          0.0233   -0.7937    1.1033 C.2       1 <0>        -0.1804
      7 C5          0.0330   -0.5428    2.4954 C.2       1 <0>         0.6062
      8 O1          0.0211    0.5983    2.9246 O.2       1 <0>        -0.4945
      9 N3          0.0553   -1.5993    3.3378 N.am      1 <0>        -0.6483
     10 H1          0.0620   -1.4521    4.2965 H         1 <0>         0.4331
     11 C6          0.0679   -2.8709    2.8469 C.2       1 <0>         0.6861
     12 N4          0.0504   -3.1173    1.5560 N.2       1 <0>        -0.5605
     13 N5          0.0905   -3.9243    3.7261 N.pl3     1 <0>        -0.7949
     14 C7          0.0382   -3.2134   -1.6182 C.3       1 <0>         0.2919
     15 H2          0.6471   -4.0188   -1.2075 H         1 <0>         0.1482
     16 C8         -1.4022   -3.7073   -1.8787 C.3       1 <0>         0.0360
     17 H3         -2.1182   -2.9033   -1.7086 H         1 <0>         0.0848
     18 C9         -1.3943   -4.1192   -3.3678 C.3       1 <0>         0.0490
     19 H4         -2.1064   -3.5188   -3.9339 H         1 <0>         0.1003
     20 C10         0.0499   -3.8254   -3.8309 C.3       1 <0>         0.0878
     21 H5          0.6611   -4.7252   -3.7614 H         1 <0>         0.1134
     22 O2          0.5356   -2.8182   -2.9152 O.3       1 <0>        -0.3329
     23 C11         0.0513   -3.2912   -5.2646 C.3       1 <0>         0.1389
     24 O3          1.3989   -3.1363   -5.7140 O.3       1 <0>        -0.7592
     25 P1          1.7769   -2.5930   -7.1816 P.3       1 <0>         2.2728
     26 O4          1.0753   -3.4622   -8.2490 O.2       1 <0>        -1.1093
     27 O5          1.3109   -1.1268   -7.3238 O.3       1 <0>        -1.1230
     28 O6          3.3716   -2.6718   -7.3888 O.3       1 <0>        -1.0887
     29 P2          4.3381   -2.5842   -8.6734 P.3       1 <0>         2.2046
     30 O7          3.6889   -3.3605   -9.8694 O.2       1 <0>        -1.1885
     31 O8          4.5403   -1.0830   -9.0734 O.3       1 <0>        -1.2004
     32 O9          5.7258   -3.2239   -8.3274 O.3       1 <0>        -1.2001
     33 O10        -1.6936   -5.5098   -3.5043 O.3       1 <0>        -0.5251
     34 O11        -1.7046   -4.8297   -1.0475 O.3       1 <0>        -0.5317
     35 H6          1.0048    1.8381    0.0023 H         1 <0>         0.1183
     36 H7         -0.5450    1.8219   -0.8730 H         1 <0>         0.1250
     37 H8         -0.5280    1.8123    0.9069 H         1 <0>         0.1211
     38 H9         -0.0014   -0.3833   -2.0790 H         1 <0>         0.2793
     39 H10         0.0973   -3.7583    4.6818 H         1 <0>         0.4251
     40 H11         0.0998   -4.8348    3.3919 H         1 <0>         0.4406
     41 H12        -0.4700   -3.9939   -5.9147 H         1 <0>         0.0833
     42 H13        -0.4545   -2.3261   -5.2932 H         1 <0>         0.0584
     43 H14        -2.5674   -5.7584   -3.1729 H         1 <0>         0.3766
     44 H15        -2.5973   -5.1806   -1.1700 H         1 <0>         0.3872
@<TRIPOS>BOND
     1    1    2 1
     2    1   35 1
     3    1   36 1
     4    1   37 1
     5    2    6 1
     6    2    3 2
     7    3    4 1
     8    3   38 1
     9    4    5 1
    10    4   14 1
    11    5   12 1
    12    5    6 2
    13    6    7 1
    14    7    8 2
    15    7    9 am
    16    9   10 1
    17    9   11 1
    18   11   12 2
    19   11   13 1
    20   13   39 1
    21   13   40 1
    22   14   15 1
    23   14   22 1
    24   14   16 1
    25   16   17 1
    26   16   18 1
    27   16   34 1
    28   18   19 1
    29   18   20 1
    30   18   33 1
    31   20   21 1
    32   20   22 1
    33   20   23 1
    34   23   24 1
    35   23   41 1
    36   23   42 1
    37   24   25 1
    38   25   26 2
    39   25   27 1
    40   25   28 1
    41   28   29 1
    42   29   30 2
    43   29   31 1
    44   29   32 1
    45   33   43 1
    46   34   44 1
@<TRIPOS>MOLECULE
ZINC15521877
   45    47     0     0     0
SMALL
USER_CHARGES

@<TRIPOS>ATOM
      1 C1         -0.0178    1.4608    0.0101 C.3       1 <0>         0.0426
      2 N1          0.0021   -0.0041    0.0020 N.pl3     1 <0>        -0.3271
      3 C2          0.0078   -0.7506   -1.0634 C.cat     1 <0>         0.3535
      4 N2          0.0272   -2.0675   -0.7055 N.pl3     1 <0>        -0.4203
      5 C3          0.0336   -2.1218    0.6620 C.2       1 <0>         0.4162
      6 C4          0.0233   -0.7937    1.1033 C.2       1 <0>        -0.1805
      7 C5          0.0330   -0.5428    2.4954 C.2       1 <0>         0.6053
      8 O1          0.0211    0.5983    2.9246 O.2       1 <0>        -0.4912
      9 N3          0.0553   -1.5993    3.3378 N.am      1 <0>        -0.6480
     10 H1          0.0620   -1.4521    4.2965 H         1 <0>         0.4348
     11 C6          0.0679   -2.8709    2.8469 C.2       1 <0>         0.6891
     12 N4          0.0504   -3.1173    1.5560 N.2       1 <0>        -0.5634
     13 N5          0.0905   -3.9243    3.7261 N.pl3     1 <0>        -0.7923
     14 C7          0.0382   -3.2134   -1.6182 C.3       1 <0>         0.2951
     15 H2          0.6471   -4.0188   -1.2075 H         1 <0>         0.1484
     16 C8         -1.4022   -3.7073   -1.8787 C.3       1 <0>         0.0355
     17 H3         -2.1182   -2.9033   -1.7086 H         1 <0>         0.0864
     18 C9         -1.3943   -4.1192   -3.3678 C.3       1 <0>         0.0487
     19 H4         -2.1064   -3.5188   -3.9339 H         1 <0>         0.1007
     20 C10         0.0499   -3.8254   -3.8309 C.3       1 <0>         0.0877
     21 H5          0.6611   -4.7252   -3.7614 H         1 <0>         0.1133
     22 O2          0.5356   -2.8182   -2.9152 O.3       1 <0>        -0.3374
     23 C11         0.0513   -3.2912   -5.2646 C.3       1 <0>         0.1401
     24 O3          1.3989   -3.1363   -5.7140 O.3       1 <0>        -0.7639
     25 P1          1.7769   -2.5930   -7.1816 P.3       1 <0>         2.2927
     26 O4          1.0753   -3.4622   -8.2490 O.2       1 <0>        -1.1018
     27 O5          1.3109   -1.1268   -7.3238 O.3       1 <0>        -1.1014
     28 O6          3.3716   -2.6718   -7.3888 O.3       1 <0>        -1.0890
     29 P2          4.3381   -2.5842   -8.6734 P.3       1 <0>         2.2739
     30 O7          3.8922   -1.4111   -9.5744 O.2       1 <0>        -1.1104
     31 O8          5.8543   -2.3424   -8.1887 O.3       1 <0>        -0.9106
     32 O9          4.2567   -3.9054   -9.4702 O.3       1 <0>        -1.1101
     33 O10        -1.6936   -5.5098   -3.5043 O.3       1 <0>        -0.5267
     34 O11        -1.7046   -4.8297   -1.0475 O.3       1 <0>        -0.5310
     35 H6          1.0048    1.8381    0.0023 H         1 <0>         0.1183
     36 H7         -0.5450    1.8219   -0.8730 H         1 <0>         0.1250
     37 H8         -0.5280    1.8123    0.9069 H         1 <0>         0.1229
     38 H9         -0.0014   -0.3833   -2.0790 H         1 <0>         0.2774
     39 H10         0.0973   -3.7583    4.6818 H         1 <0>         0.4267
     40 H11         0.0998   -4.8348    3.3919 H         1 <0>         0.4411
     41 H12        -0.4700   -3.9939   -5.9147 H         1 <0>         0.0878
     42 H13        -0.4545   -2.3261   -5.2932 H         1 <0>         0.0642
     43 H14        -2.5674   -5.7584   -3.1729 H         1 <0>         0.3806
     44 H15        -2.5973   -5.1806   -1.1700 H         1 <0>         0.3895
     45 H16         6.4931   -2.2793   -8.9119 H         1 <0>         0.4077
@<TRIPOS>BOND
     1    1    2 1
     2    1   35 1
     3    1   36 1
     4    1   37 1
     5    2    6 1
     6    2    3 2
     7    3    4 1
     8    3   38 1
     9    4    5 1
    10    4   14 1
    11    5   12 1
    12    5    6 2
    13    6    7 1
    14    7    8 2
    15    7    9 am
    16    9   10 1
    17    9   11 1
    18   11   12 2
    19   11   13 1
    20   13   39 1
    21   13   40 1
    22   14   15 1
    23   14   22 1
    24   14   16 1
    25   16   17 1
    26   16   18 1
    27   16   34 1
    28   18   19 1
    29   18   20 1
    30   18   33 1
    31   20   21 1
    32   20   22 1
    33   20   23 1
    34   23   24 1
    35   23   41 1
    36   23   42 1
    37   24   25 1
    38   25   26 2
    39   25   27 1
    40   25   28 1
    41   28   29 1
    42   29   30 2
    43   29   31 1
    44   29   32 1
    45   31   45 1
    46   33   43 1
    47   34   44 1
