@<TRIPOS>MOLECULE
ZINC00614127
   36    38     0     0     0
SMALL
USER_CHARGES

@<TRIPOS>ATOM
      1 C1          0.1493    1.4982   -0.1158 C.3       1 <0>        -0.1166
      2 C2          0.0823   -0.0062   -0.0583 C.ar      1 <0>        -0.0476
      3 C3         -0.0571   -0.7370   -1.2236 C.ar      1 <0>        -0.1055
      4 C4         -0.1185   -2.1168   -1.1708 C.ar      1 <0>        -0.0224
      5 C5         -0.0402   -2.7662    0.0472 C.ar      1 <0>        -0.5799
      6 C6          0.1001   -2.0356    1.2121 C.ar      1 <0>         0.0606
      7 C7          0.1659   -0.6556    1.1589 C.ar      1 <0>        -0.0883
      8 N1          0.1835   -2.7308    2.5162 N.pl3     1 <0>         0.0072
      9 O1         -0.3566   -2.2579    3.4890 O.2       1 <0>        -0.1833
     10 O2          0.7917   -3.7716    2.6086 O.3       1 <0>        -0.0555
     11 S1         -0.1197   -4.5251    0.1146 S.o2      1 <0>         2.5845
     12 O3         -1.0471   -4.8507    1.1408 O.2       1 <0>        -1.0103
     13 O4         -0.2751   -4.9762   -1.2239 O.2       1 <0>        -1.0167
     14 N2          1.3606   -5.0629    0.6264 N.2       1 <0>        -1.0082
     15 C8          1.5926   -6.4297    0.7747 C.ar      1 <0>         0.3287
     16 C9          0.5958   -7.3380    0.4914 C.ar      1 <0>        -0.3139
     17 C10         0.8145   -8.7047    0.6347 C.ar      1 <0>        -0.0214
     18 C11         2.0181   -9.1813    1.0584 C.ar      1 <0>        -0.2382
     19 C12         3.0592   -8.2878    1.3572 C.ar      1 <0>        -0.0428
     20 C13         2.8530   -6.8943    1.2109 C.ar      1 <0>         0.0981
     21 N3          3.8428   -6.0419    1.4893 N.ar      1 <0>        -0.4041
     22 C14         5.0148   -6.4670    1.8944 C.ar      1 <0>         0.0555
     23 C15         5.2866   -7.8242    2.0546 C.ar      1 <0>        -0.1633
     24 C16         4.3147   -8.7486    1.7977 C.ar      1 <0>        -0.1020
     25 H1          1.1874    1.8117   -0.2261 H         1 <0>         0.0817
     26 H2         -0.4305    1.8554   -0.9669 H         1 <0>         0.0767
     27 H3         -0.2605    1.9156    0.8039 H         1 <0>         0.0749
     28 H4         -0.1183   -0.2298   -2.1751 H         1 <0>         0.1454
     29 H5         -0.2281   -2.6877   -2.0810 H         1 <0>         0.1600
     30 H6          0.2792   -0.0850    2.0688 H         1 <0>         0.1490
     31 H7         -0.3675   -6.9846    0.1542 H         1 <0>         0.0995
     32 H8          0.0182   -9.3978    0.4070 H         1 <0>         0.1056
     33 H9          2.1714  -10.2450    1.1646 H         1 <0>         0.1087
     34 H10         5.7901   -5.7465    2.1093 H         1 <0>         0.1412
     35 H11         6.2621   -8.1442    2.3900 H         1 <0>         0.1193
     36 H12         4.5079   -9.8045    1.9165 H         1 <0>         0.1235
@<TRIPOS>BOND
     1    1    2 1
     2    1   25 1
     3    1   26 1
     4    1   27 1
     5    2    7 ar
     6    2    3 ar
     7    3    4 ar
     8    3   28 1
     9    4    5 ar
    10    4   29 1
    11    5    6 ar
    12    5   11 1
    13    6    7 ar
    14    6    8 1
    15    7   30 1
    16    8    9 2
    17    8   10 1
    18   11   12 2
    19   11   13 2
    20   11   14 1
    21   14   15 1
    22   15   20 ar
    23   15   16 ar
    24   16   17 ar
    25   16   31 1
    26   17   18 ar
    27   17   32 1
    28   18   19 ar
    29   18   33 1
    30   19   24 ar
    31   19   20 ar
    32   20   21 ar
    33   21   22 ar
    34   22   23 ar
    35   22   34 1
    36   23   24 ar
    37   23   35 1
    38   24   36 1
@<TRIPOS>MOLECULE
ZINC00614127
   37    39     0     0     0
SMALL
USER_CHARGES

@<TRIPOS>ATOM
      1 C1          0.1493    1.4982   -0.1158 C.3       1 <0>        -0.1230
      2 C2          0.0823   -0.0062   -0.0583 C.ar      1 <0>        -0.0342
      3 C3         -0.0570   -0.7371   -1.2236 C.ar      1 <0>        -0.1007
      4 C4         -0.1185   -2.1168   -1.1708 C.ar      1 <0>        -0.0171
      5 C5         -0.0401   -2.7662    0.0473 C.ar      1 <0>        -0.5980
      6 C6          0.1000   -2.0356    1.2121 C.ar      1 <0>         0.0552
      7 C7          0.1658   -0.6556    1.1589 C.ar      1 <0>        -0.0846
      8 N1          0.1834   -2.7308    2.5162 N.pl3     1 <0>         0.0142
      9 O1         -0.3568   -2.2578    3.4890 O.2       1 <0>        -0.1546
     10 O2          0.7915   -3.7716    2.6087 O.3       1 <0>        -0.0981
     11 S1         -0.1196   -4.5251    0.1147 S.o2      1 <0>         2.6272
     12 O3         -1.0471   -4.8507    1.1408 O.2       1 <0>        -0.9919
     13 O4         -0.2750   -4.9762   -1.2239 O.2       1 <0>        -0.9981
     14 N2          1.3606   -5.0629    0.6265 N.2       1 <0>        -1.0672
     15 C8          1.5927   -6.4296    0.7748 C.ar      1 <0>         0.2973
     16 C9          0.5959   -7.3380    0.4914 C.ar      1 <0>        -0.2483
     17 C10         0.8146   -8.7047    0.6348 C.ar      1 <0>        -0.0080
     18 C11         2.0182   -9.1812    1.0584 C.ar      1 <0>        -0.1966
     19 C12         3.0593   -8.2878    1.3572 C.ar      1 <0>        -0.0275
     20 C13         2.8531   -6.8942    1.2110 C.ar      1 <0>         0.0848
     21 N3          3.8429   -6.0419    1.4894 N.ar      1 <0>        -0.3942
     22 C14         5.0149   -6.4669    1.8945 C.ar      1 <0>         0.1370
     23 C15         5.2867   -7.8241    2.0547 C.ar      1 <0>        -0.1646
     24 C16         4.3148   -8.7485    1.7978 C.ar      1 <0>         0.0043
     25 H1          1.1874    1.8117   -0.2261 H         1 <0>         0.0859
     26 H2         -0.4305    1.8554   -0.9669 H         1 <0>         0.0819
     27 H3         -0.2606    1.9156    0.8039 H         1 <0>         0.0794
     28 H4         -0.1182   -0.2298   -2.1751 H         1 <0>         0.1514
     29 H5         -0.2280   -2.6877   -2.0810 H         1 <0>         0.1633
     30 H6          0.2791   -0.0849    2.0688 H         1 <0>         0.1537
     31 H7         -0.3674   -6.9846    0.1542 H         1 <0>         0.1208
     32 H8          0.0183   -9.3978    0.4071 H         1 <0>         0.1322
     33 H9          2.1715  -10.2450    1.1647 H         1 <0>         0.1395
     34 H10         5.7902   -5.7464    2.1094 H         1 <0>         0.1940
     35 H11         6.2621   -8.1441    2.3901 H         1 <0>         0.1695
     36 H12         4.5080   -9.8045    1.9166 H         1 <0>         0.1633
     37 H13         3.6916   -5.0890    1.3894 H         1 <0>         0.4517
@<TRIPOS>BOND
     1    1    2 1
     2    1   25 1
     3    1   26 1
     4    1   27 1
     5    2    7 ar
     6    2    3 ar
     7    3    4 ar
     8    3   28 1
     9    4    5 ar
    10    4   29 1
    11    5    6 ar
    12    5   11 1
    13    6    7 ar
    14    6    8 1
    15    7   30 1
    16    8    9 2
    17    8   10 1
    18   11   12 2
    19   11   13 2
    20   11   14 1
    21   14   15 1
    22   15   20 ar
    23   15   16 ar
    24   16   17 ar
    25   16   31 1
    26   17   18 ar
    27   17   32 1
    28   18   19 ar
    29   18   33 1
    30   19   24 ar
    31   19   20 ar
    32   20   21 ar
    33   21   22 ar
    34   21   37 1
    35   22   23 ar
    36   22   34 1
    37   23   24 ar
    38   23   35 1
    39   24   36 1
@<TRIPOS>MOLECULE
ZINC00758699
   34    36     0     0     0
SMALL
USER_CHARGES

@<TRIPOS>ATOM
      1 C1         -0.2967    1.0245   -0.0887 C.ar      1 <0>        -0.0149
      2 C2          0.1422    0.1027   -1.0217 C.ar      1 <0>        -0.1948
      3 C3          1.4338   -0.3868   -0.9600 C.ar      1 <0>         0.0241
      4 C4          2.2905    0.0440    0.0340 C.ar      1 <0>        -0.7515
      5 C5          1.8533    0.9700    0.9723 C.ar      1 <0>         0.3183
      6 C6          0.5546    1.4595    0.9077 C.ar      1 <0>        -0.2147
      7 N1          2.7170    1.4079    1.9788 N.pl3     1 <0>        -0.8639
      8 S1          3.9362   -0.5809    0.1121 S.o2      1 <0>         2.6909
      9 O1          4.0683   -1.5112   -0.9539 O.2       1 <0>        -0.9483
     10 O2          4.7919    0.5450    0.2511 O.2       1 <0>        -0.9523
     11 N2          4.0642   -1.4490    1.5165 N.pl3     1 <0>        -1.0433
     12 C7          3.2374   -2.5505    1.7330 C.ar      1 <0>         0.1843
     13 C8          2.8783   -3.3664    0.6820 C.ar      1 <0>        -0.1581
     14 C9          2.0541   -4.4691    0.8846 C.ar      1 <0>        -0.0828
     15 C10         1.5806   -4.7718    2.1253 C.ar      1 <0>        -0.1129
     16 C11         1.9238   -3.9648    3.2219 C.ar      1 <0>        -0.0834
     17 C12         2.7661   -2.8422    3.0320 C.ar      1 <0>         0.1142
     18 N3          3.0988   -2.0756    4.0738 N.ar      1 <0>        -0.4696
     19 C13         2.6647   -2.3412    5.2819 C.ar      1 <0>         0.1288
     20 C14         1.8375   -3.4324    5.5397 C.ar      1 <0>        -0.1704
     21 C15         1.4504   -4.2505    4.5169 C.ar      1 <0>        -0.0575
     22 H1         -1.3049    1.4080   -0.1422 H         1 <0>         0.1311
     23 H2         -0.5257   -0.2359   -1.8000 H         1 <0>         0.1313
     24 H3          1.7730   -1.1072   -1.6897 H         1 <0>         0.1427
     25 H4          0.2114    2.1796    1.6358 H         1 <0>         0.1304
     26 H5          3.6433    1.1199    1.9823 H         1 <0>         0.4009
     27 H6          2.3906    1.9999    2.6744 H         1 <0>         0.4095
     28 H7          4.7144   -1.1911    2.1885 H         1 <0>         0.4316
     29 H8          3.2407   -3.1469   -0.3114 H         1 <0>         0.1673
     30 H9          1.7857   -5.0940    0.0457 H         1 <0>         0.1374
     31 H10         0.9417   -5.6311    2.2654 H         1 <0>         0.1340
     32 H11         2.9561   -1.6976    6.0988 H         1 <0>         0.1604
     33 H12         1.4956   -3.6258    6.5457 H         1 <0>         0.1393
     34 H13         0.8097   -5.1008    4.6986 H         1 <0>         0.1419
@<TRIPOS>BOND
     1    1    6 ar
     2    1    2 ar
     3    1   22 1
     4    2    3 ar
     5    2   23 1
     6    3    4 ar
     7    3   24 1
     8    4    5 ar
     9    4    8 1
    10    5    6 ar
    11    5    7 1
    12    6   25 1
    13    7   26 1
    14    7   27 1
    15    8    9 2
    16    8   10 2
    17    8   11 1
    18   11   12 1
    19   11   28 1
    20   12   17 ar
    21   12   13 ar
    22   13   14 ar
    23   13   29 1
    24   14   15 ar
    25   14   30 1
    26   15   16 ar
    27   15   31 1
    28   16   21 ar
    29   16   17 ar
    30   17   18 ar
    31   18   19 ar
    32   19   20 ar
    33   19   32 1
    34   20   21 ar
    35   20   33 1
    36   21   34 1
@<TRIPOS>MOLECULE
ZINC13817924
   32    34     0     0     0
SMALL
USER_CHARGES

@<TRIPOS>ATOM
      1 C1         -0.0184    1.5028    0.0103 C.3       1 <0>        -0.1404
      2 C2          0.0021   -0.0041    0.0020 C.ar      1 <0>         0.1744
      3 C3          0.0054   -0.6759   -1.2186 C.ar      1 <0>        -0.1634
      4 C4          0.0244   -2.0412   -1.2447 C.ar      1 <0>         0.0103
      5 C5          0.0400   -2.7291   -0.0163 C.ar      1 <0>        -0.0343
      6 C6          0.0604   -4.1326    0.0336 C.ar      1 <0>        -0.1891
      7 C7          0.0756   -4.7692    1.2372 C.ar      1 <0>        -0.0121
      8 C8          0.0709   -4.0492    2.4285 C.ar      1 <0>        -0.2431
      9 C9          0.0506   -2.6716    2.4208 C.ar      1 <0>         0.2894
     10 C10         0.0355   -1.9833    1.1873 C.ar      1 <0>         0.0845
     11 N1          0.0217   -0.6485    1.1434 N.ar      1 <0>        -0.4025
     12 N2          0.0451   -1.9624    3.6212 N.2       1 <0>        -1.1020
     13 S1          0.0630   -2.7758    5.0636 S.o2      1 <0>         2.6678
     14 O1         -1.1719   -3.4733    5.1518 O.2       1 <0>        -0.9939
     15 O2          1.3185   -3.4368    5.1416 O.2       1 <0>        -0.9955
     16 C11         0.0505   -1.5657    6.3443 C.2       1 <0>        -0.6925
     17 C12        -1.0082   -0.9991    6.9726 C.2       1 <0>        -0.0269
     18 C13        -0.7778   -0.0596    7.9603 C.2       1 <0>        -0.1400
     19 C14         0.5015    0.2670    8.2709 C.2       1 <0>        -0.1592
     20 S2          1.4293   -0.7738    7.1560 S.3       1 <0>         0.2192
     21 Br1         1.1373    1.4993    9.5566 Br        1 <0>         0.0507
     22 H1          1.0042    1.8801    0.0026 H         1 <0>         0.1081
     23 H2         -0.5455    1.8639   -0.8728 H         1 <0>         0.1100
     24 H3         -0.5286    1.8543    0.9071 H         1 <0>         0.0916
     25 H4         -0.0073   -0.1176   -2.1430 H         1 <0>         0.1704
     26 H5          0.0269   -2.5783   -2.1817 H         1 <0>         0.1657
     27 H6          0.0637   -4.7061   -0.8815 H         1 <0>         0.1409
     28 H7          0.0913   -5.8486    1.2680 H         1 <0>         0.1343
     29 H8          0.0828   -4.5770    3.3706 H         1 <0>         0.1242
     30 H9         -2.0171   -1.2772    6.7054 H         1 <0>         0.1541
     31 H10        -1.6037    0.4073    8.4763 H         1 <0>         0.1507
     32 H11         0.0223   -0.1458    1.9730 H         1 <0>         0.4489
@<TRIPOS>BOND
     1    1    2 1
     2    1   22 1
     3    1   23 1
     4    1   24 1
     5    2   11 ar
     6    2    3 ar
     7    3    4 ar
     8    3   25 1
     9    4    5 ar
    10    4   26 1
    11    5   10 ar
    12    5    6 ar
    13    6    7 ar
    14    6   27 1
    15    7    8 ar
    16    7   28 1
    17    8    9 ar
    18    8   29 1
    19    9   10 ar
    20    9   12 1
    21   10   11 ar
    22   11   32 1
    23   12   13 1
    24   13   14 2
    25   13   15 2
    26   13   16 1
    27   16   20 1
    28   16   17 2
    29   17   18 1
    30   17   30 1
    31   18   19 2
    32   18   31 1
    33   19   20 1
    34   19   21 1
@<TRIPOS>MOLECULE
ZINC13817924
   31    33     0     0     0
SMALL
USER_CHARGES

@<TRIPOS>ATOM
      1 C1         -0.0184    1.5028    0.0103 C.3       1 <0>        -0.0919
      2 C2          0.0021   -0.0041    0.0020 C.ar      1 <0>         0.0835
      3 C3          0.0054   -0.6759   -1.2186 C.ar      1 <0>        -0.1585
      4 C4          0.0244   -2.0412   -1.2447 C.ar      1 <0>        -0.0971
      5 C5          0.0400   -2.7291   -0.0163 C.ar      1 <0>        -0.0486
      6 C6          0.0604   -4.1326    0.0336 C.ar      1 <0>        -0.2319
      7 C7          0.0756   -4.7692    1.2372 C.ar      1 <0>        -0.0244
      8 C8          0.0709   -4.0492    2.4285 C.ar      1 <0>        -0.3104
      9 C9          0.0506   -2.6716    2.4208 C.ar      1 <0>         0.3219
     10 C10         0.0355   -1.9833    1.1873 C.ar      1 <0>         0.1002
     11 N1          0.0217   -0.6485    1.1434 N.ar      1 <0>        -0.4080
     12 N2          0.0451   -1.9624    3.6212 N.2       1 <0>        -1.0437
     13 S1          0.0630   -2.7758    5.0636 S.o2      1 <0>         2.6272
     14 O1         -1.1719   -3.4733    5.1518 O.2       1 <0>        -1.0113
     15 O2          1.3185   -3.4368    5.1416 O.2       1 <0>        -1.0132
     16 C11         0.0505   -1.5657    6.3443 C.2       1 <0>        -0.6564
     17 C12        -1.0082   -0.9991    6.9726 C.2       1 <0>        -0.0446
     18 C13        -0.7778   -0.0596    7.9603 C.2       1 <0>        -0.1316
     19 C14         0.5015    0.2670    8.2709 C.2       1 <0>        -0.1745
     20 S2          1.4293   -0.7738    7.1560 S.3       1 <0>         0.2123
     21 Br1         1.1373    1.4993    9.5566 Br        1 <0>         0.0355
     22 H1          1.0042    1.8801    0.0026 H         1 <0>         0.0664
     23 H2         -0.5455    1.8639   -0.8728 H         1 <0>         0.0631
     24 H3         -0.5286    1.8543    0.9071 H         1 <0>         0.0710
     25 H4         -0.0073   -0.1176   -2.1430 H         1 <0>         0.1209
     26 H5          0.0269   -2.5783   -2.1817 H         1 <0>         0.1258
     27 H6          0.0637   -4.7061   -0.8815 H         1 <0>         0.1101
     28 H7          0.0913   -5.8486    1.2680 H         1 <0>         0.1076
     29 H8          0.0828   -4.5770    3.3706 H         1 <0>         0.1026
     30 H9         -2.0171   -1.2772    6.7054 H         1 <0>         0.1526
     31 H10        -1.6037    0.4073    8.4763 H         1 <0>         0.1453
@<TRIPOS>BOND
     1    1    2 1
     2    1   22 1
     3    1   23 1
     4    1   24 1
     5    2   11 ar
     6    2    3 ar
     7    3    4 ar
     8    3   25 1
     9    4    5 ar
    10    4   26 1
    11    5   10 ar
    12    5    6 ar
    13    6    7 ar
    14    6   27 1
    15    7    8 ar
    16    7   28 1
    17    8    9 ar
    18    8   29 1
    19    9   10 ar
    20    9   12 1
    21   10   11 ar
    22   12   13 1
    23   13   14 2
    24   13   15 2
    25   13   16 1
    26   16   20 1
    27   16   17 2
    28   17   18 1
    29   17   30 1
    30   18   19 2
    31   18   31 1
    32   19   20 1
    33   19   21 1
@<TRIPOS>MOLECULE
ZINC00353084
   28    30     0     0     0
SMALL
USER_CHARGES

@<TRIPOS>ATOM
      1 C1         -0.0168    1.3873    0.0097 C.ar      1 <0>        -0.0219
      2 C2          1.1414    2.1040    0.0025 C.ar      1 <0>        -0.2362
      3 C3          2.3772    1.4377   -0.0128 C.ar      1 <0>        -0.0437
      4 C4          3.5921    2.1497   -0.0200 C.ar      1 <0>        -0.1007
      5 C5          4.7567    1.4367   -0.0346 C.ar      1 <0>        -0.1635
      6 C6          4.7192    0.0439   -0.0418 C.ar      1 <0>         0.0569
      7 N1          3.5860   -0.6150   -0.0351 N.ar      1 <0>        -0.4086
      8 C7          2.4121    0.0220   -0.0208 C.ar      1 <0>         0.0933
      9 C8          1.1948   -0.6941   -0.0134 C.ar      1 <0>         0.3234
     10 C9          0.0021   -0.0041    0.0020 C.ar      1 <0>        -0.3120
     11 N2          1.1998   -2.0883   -0.0219 N.2       1 <0>        -1.0456
     12 S1         -0.2313   -2.9215   -0.0132 S.o2      1 <0>         2.6319
     13 O1         -0.8475   -2.6573    1.2398 O.2       1 <0>        -1.0160
     14 O2         -0.8714   -2.6423   -1.2508 O.2       1 <0>        -1.0163
     15 C10         0.1652   -4.6382   -0.0273 C.2       1 <0>        -0.6700
     16 C11         0.3620   -5.4775    1.0188 C.2       1 <0>        -0.0423
     17 C12         0.6665   -6.8021    0.7673 C.2       1 <0>        -0.1807
     18 C13         0.7594   -7.2227   -0.5179 C.2       1 <0>        -0.1677
     19 S2          0.4044   -5.7254   -1.4230 S.3       1 <0>         0.1428
     20 H1         -0.9637    1.9065    0.0260 H         1 <0>         0.1075
     21 H2          1.1092    3.1836    0.0081 H         1 <0>         0.1100
     22 H3          3.6025    3.2296   -0.0146 H         1 <0>         0.1247
     23 H4          5.7059    1.9519   -0.0408 H         1 <0>         0.1206
     24 H5          5.6479   -0.5072   -0.0537 H         1 <0>         0.1427
     25 H6         -0.9298   -0.5500    0.0080 H         1 <0>         0.1027
     26 H7          0.2824   -5.1165    2.0336 H         1 <0>         0.1431
     27 H8          0.8284   -7.4916    1.5827 H         1 <0>         0.1368
     28 H9          0.9855   -8.2087   -0.8962 H         1 <0>         0.1887
@<TRIPOS>BOND
     1    1   10 ar
     2    1    2 ar
     3    1   20 1
     4    2    3 ar
     5    2   21 1
     6    3    8 ar
     7    3    4 ar
     8    4    5 ar
     9    4   22 1
    10    5    6 ar
    11    5   23 1
    12    6    7 ar
    13    6   24 1
    14    7    8 ar
    15    8    9 ar
    16    9   10 ar
    17    9   11 1
    18   10   25 1
    19   11   12 1
    20   12   13 2
    21   12   14 2
    22   12   15 1
    23   15   19 1
    24   15   16 2
    25   16   17 1
    26   16   26 1
    27   17   18 2
    28   17   27 1
    29   18   19 1
    30   18   28 1
@<TRIPOS>MOLECULE
ZINC00353084
   29    31     0     0     0
SMALL
USER_CHARGES

@<TRIPOS>ATOM
      1 C1         -0.0168    1.3873    0.0097 C.ar      1 <0>        -0.0090
      2 C2          1.1414    2.1040    0.0025 C.ar      1 <0>        -0.1934
      3 C3          2.3772    1.4377   -0.0128 C.ar      1 <0>        -0.0293
      4 C4          3.5921    2.1497   -0.0200 C.ar      1 <0>         0.0068
      5 C5          4.7567    1.4367   -0.0346 C.ar      1 <0>        -0.1659
      6 C6          4.7192    0.0439   -0.0418 C.ar      1 <0>         0.1403
      7 N1          3.5860   -0.6150   -0.0351 N.ar      1 <0>        -0.3974
      8 C7          2.4121    0.0220   -0.0208 C.ar      1 <0>         0.0797
      9 C8          1.1948   -0.6941   -0.0134 C.ar      1 <0>         0.2909
     10 C9          0.0021   -0.0041    0.0020 C.ar      1 <0>        -0.2454
     11 N2          1.1998   -2.0883   -0.0219 N.2       1 <0>        -1.1013
     12 S1         -0.2313   -2.9215   -0.0132 S.o2      1 <0>         2.6710
     13 O1         -0.8475   -2.6573    1.2398 O.2       1 <0>        -0.9981
     14 O2         -0.8714   -2.6423   -1.2508 O.2       1 <0>        -0.9981
     15 C10         0.1652   -4.6382   -0.0273 C.2       1 <0>        -0.7055
     16 C11         0.3620   -5.4775    1.0188 C.2       1 <0>        -0.0247
     17 C12         0.6665   -6.8021    0.7673 C.2       1 <0>        -0.1878
     18 C13         0.7594   -7.2227   -0.5179 C.2       1 <0>        -0.1475
     19 S2          0.4044   -5.7254   -1.4230 S.3       1 <0>         0.1519
     20 H1         -0.9637    1.9065    0.0260 H         1 <0>         0.1342
     21 H2          1.1092    3.1836    0.0081 H         1 <0>         0.1408
     22 H3          3.6025    3.2296   -0.0146 H         1 <0>         0.1643
     23 H4          5.7059    1.9519   -0.0408 H         1 <0>         0.1705
     24 H5          5.6479   -0.5072   -0.0537 H         1 <0>         0.1956
     25 H6         -0.9298   -0.5500    0.0080 H         1 <0>         0.1242
     26 H7          0.2824   -5.1165    2.0336 H         1 <0>         0.1448
     27 H8          0.8284   -7.4916    1.5827 H         1 <0>         0.1426
     28 H9          0.9855   -8.2087   -0.8962 H         1 <0>         0.1943
     29 H10         3.6002   -1.5849   -0.0405 H         1 <0>         0.4516
@<TRIPOS>BOND
     1    1   10 ar
     2    1    2 ar
     3    1   20 1
     4    2    3 ar
     5    2   21 1
     6    3    8 ar
     7    3    4 ar
     8    4    5 ar
     9    4   22 1
    10    5    6 ar
    11    5   23 1
    12    6    7 ar
    13    6   24 1
    14    7    8 ar
    15    7   29 1
    16    8    9 ar
    17    9   10 ar
    18    9   11 1
    19   10   25 1
    20   11   12 1
    21   12   13 2
    22   12   14 2
    23   12   15 1
    24   15   19 1
    25   15   16 2
    26   16   17 1
    27   16   26 1
    28   17   18 2
    29   17   27 1
    30   18   19 1
    31   18   28 1
@<TRIPOS>MOLECULE
ZINC06858682
   28    30     0     0     0
SMALL
USER_CHARGES

@<TRIPOS>ATOM
      1 C1         -0.0168    1.3873    0.0097 C.ar      1 <0>        -0.0225
      2 C2          1.1414    2.1040    0.0025 C.ar      1 <0>        -0.2343
      3 C3          2.3772    1.4377   -0.0128 C.ar      1 <0>        -0.0442
      4 C4          3.5921    2.1497   -0.0200 C.ar      1 <0>        -0.1001
      5 C5          4.7567    1.4367   -0.0346 C.ar      1 <0>        -0.1634
      6 C6          4.7192    0.0439   -0.0418 C.ar      1 <0>         0.0582
      7 N1          3.5860   -0.6150   -0.0351 N.ar      1 <0>        -0.4089
      8 C7          2.4121    0.0220   -0.0208 C.ar      1 <0>         0.0938
      9 C8          1.1948   -0.6941   -0.0134 C.ar      1 <0>         0.3230
     10 C9          0.0021   -0.0041    0.0020 C.ar      1 <0>        -0.3111
     11 N2          1.1998   -2.0883   -0.0219 N.2       1 <0>        -1.0445
     12 S1         -0.2313   -2.9215   -0.0132 S.o2      1 <0>         2.6291
     13 O1         -0.8475   -2.6573    1.2398 O.2       1 <0>        -1.0117
     14 O2         -0.8714   -2.6423   -1.2508 O.2       1 <0>        -1.0135
     15 C10         0.1652   -4.6382   -0.0273 C.2       1 <0>        -0.6642
     16 C11         0.3619   -5.4770    1.0187 C.2       1 <0>        -0.0356
     17 C12         0.6673   -6.8020    0.7677 C.2       1 <0>        -0.1607
     18 C13         0.7608   -7.2224   -0.5187 C.2       1 <0>        -0.1156
     19 S2          0.4043   -5.7251   -1.4232 S.3       1 <0>         0.2042
     20 Cl1         1.1257   -8.8068   -1.1273 Cl        1 <0>         0.0133
     21 H1         -0.9637    1.9065    0.0260 H         1 <0>         0.1079
     22 H2          1.1092    3.1836    0.0081 H         1 <0>         0.1103
     23 H3          3.6025    3.2296   -0.0146 H         1 <0>         0.1249
     24 H4          5.7059    1.9519   -0.0408 H         1 <0>         0.1209
     25 H5          5.6479   -0.5072   -0.0537 H         1 <0>         0.1431
     26 H6         -0.9298   -0.5500    0.0080 H         1 <0>         0.1029
     27 H7          0.2817   -5.1159    2.0333 H         1 <0>         0.1529
     28 H8          0.8293   -7.4915    1.5831 H         1 <0>         0.1459
@<TRIPOS>BOND
     1    1   10 ar
     2    1    2 ar
     3    1   21 1
     4    2    3 ar
     5    2   22 1
     6    3    8 ar
     7    3    4 ar
     8    4    5 ar
     9    4   23 1
    10    5    6 ar
    11    5   24 1
    12    6    7 ar
    13    6   25 1
    14    7    8 ar
    15    8    9 ar
    16    9   10 ar
    17    9   11 1
    18   10   26 1
    19   11   12 1
    20   12   13 2
    21   12   14 2
    22   12   15 1
    23   15   19 1
    24   15   16 2
    25   16   17 1
    26   16   27 1
    27   17   18 2
    28   17   28 1
    29   18   19 1
    30   18   20 1
@<TRIPOS>MOLECULE
ZINC06858682
   29    31     0     0     0
SMALL
USER_CHARGES

@<TRIPOS>ATOM
      1 C1         -0.0168    1.3873    0.0097 C.ar      1 <0>        -0.0094
      2 C2          1.1414    2.1040    0.0025 C.ar      1 <0>        -0.1919
      3 C3          2.3772    1.4377   -0.0128 C.ar      1 <0>        -0.0297
      4 C4          3.5921    2.1497   -0.0200 C.ar      1 <0>         0.0075
      5 C5          4.7567    1.4367   -0.0346 C.ar      1 <0>        -0.1660
      6 C6          4.7192    0.0439   -0.0418 C.ar      1 <0>         0.1418
      7 N1          3.5860   -0.6150   -0.0351 N.ar      1 <0>        -0.3981
      8 C7          2.4121    0.0220   -0.0208 C.ar      1 <0>         0.0804
      9 C8          1.1948   -0.6941   -0.0134 C.ar      1 <0>         0.2905
     10 C9          0.0021   -0.0041    0.0020 C.ar      1 <0>        -0.2446
     11 N2          1.1998   -2.0883   -0.0219 N.2       1 <0>        -1.1012
     12 S1         -0.2313   -2.9215   -0.0132 S.o2      1 <0>         2.6694
     13 O1         -0.8475   -2.6573    1.2398 O.2       1 <0>        -0.9940
     14 O2         -0.8714   -2.6423   -1.2508 O.2       1 <0>        -0.9956
     15 C10         0.1652   -4.6382   -0.0273 C.2       1 <0>        -0.7005
     16 C11         0.3619   -5.4770    1.0187 C.2       1 <0>        -0.0176
     17 C12         0.6673   -6.8020    0.7677 C.2       1 <0>        -0.1690
     18 C13         0.7608   -7.2224   -0.5187 C.2       1 <0>        -0.1002
     19 S2          0.4043   -5.7251   -1.4232 S.3       1 <0>         0.2114
     20 Cl1         1.1257   -8.8068   -1.1273 Cl        1 <0>         0.0281
     21 H1         -0.9637    1.9065    0.0260 H         1 <0>         0.1345
     22 H2          1.1092    3.1836    0.0081 H         1 <0>         0.1411
     23 H3          3.6025    3.2296   -0.0146 H         1 <0>         0.1645
     24 H4          5.7059    1.9519   -0.0408 H         1 <0>         0.1708
     25 H5          5.6479   -0.5072   -0.0537 H         1 <0>         0.1959
     26 H6         -0.9298   -0.5500    0.0080 H         1 <0>         0.1244
     27 H7          0.2817   -5.1159    2.0333 H         1 <0>         0.1543
     28 H8          0.8293   -7.4915    1.5831 H         1 <0>         0.1513
     29 H9          3.6002   -1.5849   -0.0405 H         1 <0>         0.4517
@<TRIPOS>BOND
     1    1   10 ar
     2    1    2 ar
     3    1   21 1
     4    2    3 ar
     5    2   22 1
     6    3    8 ar
     7    3    4 ar
     8    4    5 ar
     9    4   23 1
    10    5    6 ar
    11    5   24 1
    12    6    7 ar
    13    6   25 1
    14    7    8 ar
    15    7   29 1
    16    8    9 ar
    17    9   10 ar
    18    9   11 1
    19   10   26 1
    20   11   12 1
    21   12   13 2
    22   12   14 2
    23   12   15 1
    24   15   19 1
    25   15   16 2
    26   16   17 1
    27   16   27 1
    28   17   18 2
    29   17   28 1
    30   18   19 1
    31   18   20 1
@<TRIPOS>MOLECULE
ZINC13818055
   32    35     0     0     0
SMALL
USER_CHARGES

@<TRIPOS>ATOM
      1 C1         -0.0184    1.5028    0.0103 C.3       1 <0>        -0.1055
      2 C2          0.0021   -0.0041    0.0020 C.ar      1 <0>        -0.1297
      3 C3          0.0057   -0.6816   -1.1849 C.ar      1 <0>        -0.0975
      4 C4          0.0245   -2.0878   -1.1458 C.ar      1 <0>        -0.0416
      5 C5          0.0325   -2.8525   -2.3252 C.ar      1 <0>        -0.2127
      6 C6          0.0347   -4.2063   -2.2570 C.ar      1 <0>        -0.0189
      7 C7          0.0274   -4.8817   -1.0187 C.ar      1 <0>        -0.2507
      8 C8          0.0522   -4.1530    0.1591 C.ar      1 <0>         0.3152
      9 C9          0.0376   -2.7396    0.1105 C.ar      1 <0>         0.1004
     10 N1          0.0350   -2.0184    1.2352 N.ar      1 <0>        -0.4077
     11 C10         0.0230   -0.7076    1.2038 C.ar      1 <0>         0.0744
     12 N2          0.1171   -4.7674    1.4125 N.2       1 <0>        -0.9856
     13 S1         -0.6349   -6.2414    1.5981 S.o2      1 <0>         2.5855
     14 O1          0.0393   -6.9241    2.6462 O.2       1 <0>        -0.9932
     15 O2         -2.0345   -5.9960    1.6142 O.2       1 <0>        -1.0121
     16 C11        -0.2761   -7.1082    0.1002 C.ar      1 <0>        -0.6766
     17 C12         0.0076   -6.3643   -1.0432 C.ar      1 <0>         0.0906
     18 C13         0.2816   -7.0359   -2.2369 C.ar      1 <0>        -0.1551
     19 C14         0.2742   -8.4152   -2.2669 C.ar      1 <0>        -0.0797
     20 C15        -0.0027   -9.1405   -1.1222 C.ar      1 <0>        -0.1682
     21 C16        -0.2791   -8.4825    0.0655 C.ar      1 <0>        -0.0221
     22 H1          1.0042    1.8801    0.0026 H         1 <0>         0.0679
     23 H2         -0.5455    1.8639   -0.8728 H         1 <0>         0.0630
     24 H3         -0.5286    1.8543    0.9071 H         1 <0>         0.0663
     25 H4         -0.0059   -0.1525   -2.1263 H         1 <0>         0.1286
     26 H5          0.0365   -2.3608   -3.2868 H         1 <0>         0.1165
     27 H6          0.0419   -4.7808   -3.1715 H         1 <0>         0.1148
     28 H7          0.0254   -0.1592    2.1342 H         1 <0>         0.1474
     29 H8          0.4984   -6.4765   -3.1349 H         1 <0>         0.1252
     30 H9          0.4860   -8.9324   -3.1910 H         1 <0>         0.1182
     31 H10        -0.0033  -10.2200   -1.1541 H         1 <0>         0.1194
     32 H11        -0.4960   -9.0470    0.9603 H         1 <0>         0.1233
@<TRIPOS>BOND
     1    1    2 1
     2    1   22 1
     3    1   23 1
     4    1   24 1
     5    2   11 ar
     6    2    3 ar
     7    3    4 ar
     8    3   25 1
     9    4    9 ar
    10    4    5 ar
    11    5    6 ar
    12    5   26 1
    13    6    7 ar
    14    6   27 1
    15    7   17 1
    16    7    8 ar
    17    8    9 ar
    18    8   12 1
    19    9   10 ar
    20   10   11 ar
    21   11   28 1
    22   12   13 1
    23   13   14 2
    24   13   15 2
    25   13   16 1
    26   16   21 ar
    27   16   17 ar
    28   17   18 ar
    29   18   19 ar
    30   18   29 1
    31   19   20 ar
    32   19   30 1
    33   20   21 ar
    34   20   31 1
    35   21   32 1
@<TRIPOS>MOLECULE
ZINC13818055
   33    36     0     0     0
SMALL
USER_CHARGES

@<TRIPOS>ATOM
      1 C1         -0.0184    1.5028    0.0103 C.3       1 <0>        -0.1144
      2 C2          0.0021   -0.0041    0.0020 C.ar      1 <0>        -0.1239
      3 C3          0.0057   -0.6816   -1.1849 C.ar      1 <0>         0.0030
      4 C4          0.0245   -2.0878   -1.1458 C.ar      1 <0>        -0.0215
      5 C5          0.0325   -2.8525   -2.3252 C.ar      1 <0>        -0.1813
      6 C6          0.0347   -4.2063   -2.2570 C.ar      1 <0>        -0.0074
      7 C7          0.0274   -4.8817   -1.0187 C.ar      1 <0>        -0.1724
      8 C8          0.0522   -4.1530    0.1591 C.ar      1 <0>         0.2710
      9 C9          0.0376   -2.7396    0.1105 C.ar      1 <0>         0.0952
     10 N1          0.0350   -2.0184    1.2352 N.ar      1 <0>        -0.3987
     11 C10         0.0230   -0.7076    1.2038 C.ar      1 <0>         0.1485
     12 N2          0.1171   -4.7674    1.4125 N.2       1 <0>        -1.0509
     13 S1         -0.6349   -6.2414    1.5981 S.o2      1 <0>         2.6185
     14 O1          0.0393   -6.9241    2.6462 O.2       1 <0>        -0.9720
     15 O2         -2.0345   -5.9960    1.6142 O.2       1 <0>        -0.9977
     16 C11        -0.2761   -7.1082    0.1002 C.ar      1 <0>        -0.6626
     17 C12         0.0076   -6.3643   -1.0432 C.ar      1 <0>         0.0547
     18 C13         0.2816   -7.0359   -2.2369 C.ar      1 <0>        -0.1364
     19 C14         0.2742   -8.4152   -2.2669 C.ar      1 <0>        -0.0746
     20 C15        -0.0018   -9.1405   -1.1220 C.ar      1 <0>        -0.1403
     21 C16        -0.2791   -8.4825    0.0655 C.ar      1 <0>        -0.0218
     22 H1          1.0042    1.8801    0.0026 H         1 <0>         0.0876
     23 H2         -0.5455    1.8639   -0.8728 H         1 <0>         0.0852
     24 H3         -0.5286    1.8543    0.9071 H         1 <0>         0.0815
     25 H4         -0.0059   -0.1525   -2.1263 H         1 <0>         0.1674
     26 H5          0.0365   -2.3608   -3.2868 H         1 <0>         0.1460
     27 H6          0.0419   -4.7808   -3.1715 H         1 <0>         0.1382
     28 H7          0.0254   -0.1592    2.1342 H         1 <0>         0.1993
     29 H8          0.4984   -6.4765   -3.1349 H         1 <0>         0.1318
     30 H9          0.4860   -8.9324   -3.1910 H         1 <0>         0.1297
     31 H10        -0.0017  -10.2200   -1.1537 H         1 <0>         0.1311
     32 H11        -0.4960   -9.0470    0.9603 H         1 <0>         0.1328
     33 H12         0.0454   -2.4734    2.0918 H         1 <0>         0.4544
@<TRIPOS>BOND
     1    1    2 1
     2    1   22 1
     3    1   23 1
     4    1   24 1
     5    2   11 ar
     6    2    3 ar
     7    3    4 ar
     8    3   25 1
     9    4    9 ar
    10    4    5 ar
    11    5    6 ar
    12    5   26 1
    13    6    7 ar
    14    6   27 1
    15    7   17 1
    16    7    8 ar
    17    8    9 ar
    18    8   12 1
    19    9   10 ar
    20   10   11 ar
    21   10   33 1
    22   11   28 1
    23   12   13 1
    24   13   14 2
    25   13   15 2
    26   13   16 1
    27   16   21 ar
    28   16   17 ar
    29   17   18 ar
    30   18   19 ar
    31   18   29 1
    32   19   20 ar
    33   19   30 1
    34   20   21 ar
    35   20   31 1
    36   21   32 1
@<TRIPOS>MOLECULE
ZINC13817975
   33    36     0     0     0
SMALL
USER_CHARGES

@<TRIPOS>ATOM
      1 C1         -0.0184    1.5028    0.0103 C.3       1 <0>        -0.1256
      2 C2          0.0021   -0.0041    0.0020 C.ar      1 <0>        -0.0269
      3 C3          0.0057   -0.6841   -1.2028 C.ar      1 <0>        -0.1338
      4 C4          0.0189   -2.0692   -1.2170 C.ar      1 <0>        -0.0078
      5 C5          0.0327   -2.7631   -0.0298 C.ar      1 <0>        -0.6624
      6 C6          0.0388   -2.0919    1.1908 C.ar      1 <0>         0.0546
      7 C7          0.0228   -0.6950    1.1956 C.ar      1 <0>        -0.1262
      8 C8          0.0817   -2.8270    2.4780 C.ar      1 <0>        -0.1051
      9 C9         -0.2053   -2.1003    3.6533 C.ar      1 <0>        -0.0700
     10 C10        -0.2132   -2.6979    4.8700 C.ar      1 <0>        -0.1123
     11 C11         0.0686   -4.0702    4.9832 C.ar      1 <0>        -0.0709
     12 C12         0.0546   -4.7204    6.2311 C.ar      1 <0>        -0.0596
     13 C13         0.3387   -6.0565    6.2645 C.ar      1 <0>        -0.1599
     14 C14         0.6313   -6.7347    5.0833 C.ar      1 <0>         0.1317
     15 N1          0.6429   -6.1246    3.9230 N.ar      1 <0>        -0.4669
     16 C15         0.3730   -4.8197    3.8222 C.ar      1 <0>         0.1102
     17 C16         0.3868   -4.1747    2.5637 C.ar      1 <0>         0.2230
     18 N2          0.7362   -4.9305    1.4412 N.pl3     1 <0>        -1.0292
     19 S1          0.0366   -4.5304   -0.0160 S.o2      1 <0>         2.6824
     20 O1          0.9299   -4.9531   -1.0371 O.2       1 <0>        -0.9402
     21 O2         -1.3198   -4.9496    0.0442 O.2       1 <0>        -0.9346
     22 H1          1.0042    1.8801    0.0026 H         1 <0>         0.0814
     23 H2         -0.5455    1.8639   -0.8728 H         1 <0>         0.0755
     24 H3         -0.5286    1.8543    0.9071 H         1 <0>         0.0743
     25 H4         -0.0022   -0.1349   -2.1327 H         1 <0>         0.1386
     26 H5          0.0181   -2.6019   -2.1565 H         1 <0>         0.1418
     27 H6          0.0226   -0.1571    2.1321 H         1 <0>         0.1397
     28 H7         -0.4232   -1.0449    3.5819 H         1 <0>         0.1413
     29 H8         -0.4359   -2.1186    5.7538 H         1 <0>         0.1412
     30 H9         -0.1746   -4.1787    7.1368 H         1 <0>         0.1461
     31 H10         0.3369   -6.5861    7.2057 H         1 <0>         0.1437
     32 H11         0.8547   -7.7905    5.1246 H         1 <0>         0.1656
     33 H12         1.3664   -5.6648    1.5087 H         1 <0>         0.4404
@<TRIPOS>BOND
     1    1    2 1
     2    1   22 1
     3    1   23 1
     4    1   24 1
     5    2    7 ar
     6    2    3 ar
     7    3    4 ar
     8    3   25 1
     9    4    5 ar
    10    4   26 1
    11    5   19 1
    12    5    6 ar
    13    6    7 ar
    14    6    8 1
    15    7   27 1
    16    8   17 ar
    17    8    9 ar
    18    9   10 ar
    19    9   28 1
    20   10   11 ar
    21   10   29 1
    22   11   16 ar
    23   11   12 ar
    24   12   13 ar
    25   12   30 1
    26   13   14 ar
    27   13   31 1
    28   14   15 ar
    29   14   32 1
    30   15   16 ar
    31   16   17 ar
    32   17   18 1
    33   18   19 1
    34   18   33 1
    35   19   20 2
    36   19   21 2
@<TRIPOS>MOLECULE
ZINC13817975
   33    36     0     0     0
SMALL
USER_CHARGES

@<TRIPOS>ATOM
      1 C1         -0.0184    1.5028    0.0103 C.3       1 <0>        -0.1206
      2 C2          0.0021   -0.0041    0.0020 C.ar      1 <0>        -0.0415
      3 C3          0.0057   -0.6841   -1.2028 C.ar      1 <0>        -0.1414
      4 C4          0.0199   -2.0692   -1.2170 C.ar      1 <0>        -0.0174
      5 C5          0.0336   -2.7631   -0.0298 C.ar      1 <0>        -0.6680
      6 C6          0.0387   -2.0919    1.1908 C.ar      1 <0>         0.0586
      7 C7          0.0228   -0.6950    1.1956 C.ar      1 <0>        -0.1369
      8 C8          0.0817   -2.8270    2.4780 C.ar      1 <0>        -0.1697
      9 C9         -0.2063   -2.1004    3.6532 C.ar      1 <0>        -0.0091
     10 C10        -0.2142   -2.6981    4.8699 C.ar      1 <0>        -0.1799
     11 C11         0.0675   -4.0704    4.9831 C.ar      1 <0>        -0.0279
     12 C12         0.0526   -4.7208    6.2309 C.ar      1 <0>         0.0089
     13 C13         0.3367   -6.0569    6.2643 C.ar      1 <0>        -0.1614
     14 C14         0.6302   -6.7349    5.0832 C.ar      1 <0>         0.1509
     15 N1          0.6428   -6.1246    3.9230 N.ar      1 <0>        -0.4030
     16 C15         0.3729   -4.8197    3.8222 C.ar      1 <0>         0.0983
     17 C16         0.3876   -4.1745    2.5638 C.ar      1 <0>         0.2695
     18 N2          0.7379   -4.9301    1.4414 N.2       1 <0>        -1.0514
     19 S1          0.0387   -4.5304   -0.0160 S.o2      1 <0>         2.6191
     20 O1          0.9327   -4.9525   -1.0367 O.2       1 <0>        -0.9724
     21 O2         -1.3175   -4.9505    0.0437 O.2       1 <0>        -0.9983
     22 H1          1.0042    1.8801    0.0026 H         1 <0>         0.0765
     23 H2         -0.5455    1.8639   -0.8728 H         1 <0>         0.0714
     24 H3         -0.5286    1.8543    0.9071 H         1 <0>         0.0702
     25 H4         -0.0022   -0.1349   -2.1327 H         1 <0>         0.1306
     26 H5          0.0197   -2.6018   -2.1565 H         1 <0>         0.1331
     27 H6          0.0226   -0.1571    2.1321 H         1 <0>         0.1313
     28 H7         -0.4248   -1.0452    3.5817 H         1 <0>         0.1379
     29 H8         -0.4377   -2.1189    5.7536 H         1 <0>         0.1460
     30 H9         -0.1767   -4.1791    7.1366 H         1 <0>         0.1679
     31 H10         0.3341   -6.5867    7.2054 H         1 <0>         0.1746
     32 H11         0.8536   -7.7907    5.1245 H         1 <0>         0.2001
     33 H12         0.8524   -6.6301    3.1221 H         1 <0>         0.4540
@<TRIPOS>BOND
     1    1    2 1
     2    1   22 1
     3    1   23 1
     4    1   24 1
     5    2    7 ar
     6    2    3 ar
     7    3    4 ar
     8    3   25 1
     9    4    5 ar
    10    4   26 1
    11    5   19 1
    12    5    6 ar
    13    6    7 ar
    14    6    8 1
    15    7   27 1
    16    8   17 ar
    17    8    9 ar
    18    9   10 ar
    19    9   28 1
    20   10   11 ar
    21   10   29 1
    22   11   16 ar
    23   11   12 ar
    24   12   13 ar
    25   12   30 1
    26   13   14 ar
    27   13   31 1
    28   14   15 ar
    29   14   32 1
    30   15   16 ar
    31   15   33 1
    32   16   17 ar
    33   17   18 1
    34   18   19 1
    35   19   20 2
    36   19   21 2
@<TRIPOS>MOLECULE
ZINC13817975
   32    35     0     0     0
SMALL
USER_CHARGES

@<TRIPOS>ATOM
      1 C1         -0.0184    1.5028    0.0103 C.3       1 <0>        -0.1135
      2 C2          0.0021   -0.0041    0.0020 C.ar      1 <0>        -0.0501
      3 C3          0.0057   -0.6841   -1.2028 C.ar      1 <0>        -0.1671
      4 C4          0.0189   -2.0692   -1.2170 C.ar      1 <0>        -0.0184
      5 C5          0.0327   -2.7631   -0.0298 C.ar      1 <0>        -0.6809
      6 C6          0.0388   -2.0919    1.1908 C.ar      1 <0>         0.0940
      7 C7          0.0228   -0.6950    1.1956 C.ar      1 <0>        -0.1539
      8 C8          0.0817   -2.8270    2.4780 C.ar      1 <0>        -0.2491
      9 C9         -0.2053   -2.1003    3.6533 C.ar      1 <0>        -0.0198
     10 C10        -0.2132   -2.6979    4.8700 C.ar      1 <0>        -0.2119
     11 C11         0.0677   -4.0704    4.9831 C.ar      1 <0>        -0.0468
     12 C12         0.0528   -4.7208    6.2309 C.ar      1 <0>        -0.0953
     13 C13         0.3361   -6.0570    6.2642 C.ar      1 <0>        -0.1608
     14 C14         0.6287   -6.7352    5.0830 C.ar      1 <0>         0.0708
     15 N1          0.6412   -6.1250    3.9228 N.ar      1 <0>        -0.4108
     16 C15         0.3721   -4.8199    3.8221 C.ar      1 <0>         0.1050
     17 C16         0.3868   -4.1747    2.5637 C.ar      1 <0>         0.3140
     18 N2          0.7362   -4.9305    1.4412 N.2       1 <0>        -0.9859
     19 S1          0.0366   -4.5304   -0.0160 S.o2      1 <0>         2.5860
     20 O1          0.9299   -4.9531   -1.0371 O.2       1 <0>        -0.9934
     21 O2         -1.3198   -4.9496    0.0442 O.2       1 <0>        -1.0126
     22 H1          1.0042    1.8801    0.0026 H         1 <0>         0.0695
     23 H2         -0.5455    1.8639   -0.8728 H         1 <0>         0.0644
     24 H3         -0.5286    1.8543    0.9071 H         1 <0>         0.0652
     25 H4         -0.0022   -0.1349   -2.1327 H         1 <0>         0.1191
     26 H5          0.0181   -2.6019   -2.1565 H         1 <0>         0.1236
     27 H6          0.0226   -0.1571    2.1321 H         1 <0>         0.1249
     28 H7         -0.4232   -1.0449    3.5819 H         1 <0>         0.1147
     29 H8         -0.4359   -2.1186    5.7538 H         1 <0>         0.1166
     30 H9         -0.1764   -4.1791    7.1366 H         1 <0>         0.1289
     31 H10         0.3335   -6.5868    7.2053 H         1 <0>         0.1255
     32 H11         0.8514   -7.7912    5.1242 H         1 <0>         0.1482
@<TRIPOS>BOND
     1    1    2 1
     2    1   22 1
     3    1   23 1
     4    1   24 1
     5    2    7 ar
     6    2    3 ar
     7    3    4 ar
     8    3   25 1
     9    4    5 ar
    10    4   26 1
    11    5   19 1
    12    5    6 ar
    13    6    7 ar
    14    6    8 1
    15    7   27 1
    16    8   17 ar
    17    8    9 ar
    18    9   10 ar
    19    9   28 1
    20   10   11 ar
    21   10   29 1
    22   11   16 ar
    23   11   12 ar
    24   12   13 ar
    25   12   30 1
    26   13   14 ar
    27   13   31 1
    28   14   15 ar
    29   14   32 1
    30   15   16 ar
    31   16   17 ar
    32   17   18 1
    33   18   19 1
    34   19   20 2
    35   19   21 2
@<TRIPOS>MOLECULE
ZINC02888883
   28    30     0     0     0
SMALL
USER_CHARGES

@<TRIPOS>ATOM
      1 C1         -0.0168    1.3873    0.0097 C.ar      1 <0>        -0.0226
      2 C2          1.1414    2.1040    0.0025 C.ar      1 <0>        -0.2339
      3 C3          2.3772    1.4377   -0.0128 C.ar      1 <0>        -0.0443
      4 C4          3.5921    2.1497   -0.0200 C.ar      1 <0>        -0.0999
      5 C5          4.7567    1.4367   -0.0346 C.ar      1 <0>        -0.1634
      6 C6          4.7192    0.0439   -0.0418 C.ar      1 <0>         0.0584
      7 N1          3.5860   -0.6150   -0.0351 N.ar      1 <0>        -0.4090
      8 C7          2.4121    0.0220   -0.0208 C.ar      1 <0>         0.0939
      9 C8          1.1948   -0.6941   -0.0134 C.ar      1 <0>         0.3229
     10 C9          0.0021   -0.0041    0.0020 C.ar      1 <0>        -0.3109
     11 N2          1.1998   -2.0883   -0.0219 N.2       1 <0>        -1.0439
     12 S1         -0.2313   -2.9215   -0.0132 S.o2      1 <0>         2.6276
     13 O1         -0.8475   -2.6573    1.2398 O.2       1 <0>        -1.0111
     14 O2         -0.8714   -2.6423   -1.2508 O.2       1 <0>        -1.0129
     15 C10         0.1652   -4.6382   -0.0273 C.2       1 <0>        -0.6568
     16 C11         0.3620   -5.4772    1.0187 C.2       1 <0>        -0.0443
     17 C12         0.6673   -6.8020    0.7676 C.2       1 <0>        -0.1317
     18 C13         0.7608   -7.2224   -0.5185 C.2       1 <0>        -0.1743
     19 S2          0.4043   -5.7252   -1.4232 S.3       1 <0>         0.2124
     20 Br1         1.1583   -8.9483   -1.1813 Br        1 <0>         0.0356
     21 H1         -0.9637    1.9065    0.0260 H         1 <0>         0.1080
     22 H2          1.1092    3.1836    0.0081 H         1 <0>         0.1104
     23 H3          3.6025    3.2296   -0.0146 H         1 <0>         0.1250
     24 H4          5.7059    1.9519   -0.0408 H         1 <0>         0.1210
     25 H5          5.6479   -0.5072   -0.0537 H         1 <0>         0.1431
     26 H6         -0.9298   -0.5500    0.0080 H         1 <0>         0.1028
     27 H7          0.2818   -5.1161    2.0334 H         1 <0>         0.1527
     28 H8          0.8293   -7.4914    1.5830 H         1 <0>         0.1454
@<TRIPOS>BOND
     1    1   10 ar
     2    1    2 ar
     3    1   21 1
     4    2    3 ar
     5    2   22 1
     6    3    8 ar
     7    3    4 ar
     8    4    5 ar
     9    4   23 1
    10    5    6 ar
    11    5   24 1
    12    6    7 ar
    13    6   25 1
    14    7    8 ar
    15    8    9 ar
    16    9   10 ar
    17    9   11 1
    18   10   26 1
    19   11   12 1
    20   12   13 2
    21   12   14 2
    22   12   15 1
    23   15   19 1
    24   15   16 2
    25   16   17 1
    26   16   27 1
    27   17   18 2
    28   17   28 1
    29   18   19 1
    30   18   20 1
@<TRIPOS>MOLECULE
ZINC02888883
   29    31     0     0     0
SMALL
USER_CHARGES

@<TRIPOS>ATOM
      1 C1         -0.0168    1.3873    0.0097 C.ar      1 <0>        -0.0094
      2 C2          1.1414    2.1040    0.0025 C.ar      1 <0>        -0.1916
      3 C3          2.3772    1.4377   -0.0128 C.ar      1 <0>        -0.0297
      4 C4          3.5921    2.1497   -0.0200 C.ar      1 <0>         0.0077
      5 C5          4.7567    1.4367   -0.0346 C.ar      1 <0>        -0.1660
      6 C6          4.7192    0.0439   -0.0418 C.ar      1 <0>         0.1421
      7 N1          3.5860   -0.6150   -0.0351 N.ar      1 <0>        -0.3982
      8 C7          2.4121    0.0220   -0.0208 C.ar      1 <0>         0.0805
      9 C8          1.1948   -0.6941   -0.0134 C.ar      1 <0>         0.2905
     10 C9          0.0021   -0.0041    0.0020 C.ar      1 <0>        -0.2444
     11 N2          1.1998   -2.0883   -0.0219 N.2       1 <0>        -1.1010
     12 S1         -0.2313   -2.9215   -0.0132 S.o2      1 <0>         2.6683
     13 O1         -0.8475   -2.6573    1.2398 O.2       1 <0>        -0.9935
     14 O2         -0.8714   -2.6423   -1.2508 O.2       1 <0>        -0.9950
     15 C10         0.1652   -4.6382   -0.0273 C.2       1 <0>        -0.6933
     16 C11         0.3620   -5.4772    1.0187 C.2       1 <0>        -0.0263
     17 C12         0.6673   -6.8020    0.7676 C.2       1 <0>        -0.1402
     18 C13         0.7608   -7.2224   -0.5185 C.2       1 <0>        -0.1588
     19 S2          0.4043   -5.7252   -1.4232 S.3       1 <0>         0.2194
     20 Br1         1.1583   -8.9483   -1.1813 Br        1 <0>         0.0509
     21 H1         -0.9637    1.9065    0.0260 H         1 <0>         0.1346
     22 H2          1.1092    3.1836    0.0081 H         1 <0>         0.1412
     23 H3          3.6025    3.2296   -0.0146 H         1 <0>         0.1646
     24 H4          5.7059    1.9519   -0.0408 H         1 <0>         0.1709
     25 H5          5.6479   -0.5072   -0.0537 H         1 <0>         0.1960
     26 H6         -0.9298   -0.5500    0.0080 H         1 <0>         0.1243
     27 H7          0.2818   -5.1161    2.0334 H         1 <0>         0.1541
     28 H8          0.8293   -7.4914    1.5830 H         1 <0>         0.1508
     29 H9          3.6002   -1.5849   -0.0405 H         1 <0>         0.4517
@<TRIPOS>BOND
     1    1   10 ar
     2    1    2 ar
     3    1   21 1
     4    2    3 ar
     5    2   22 1
     6    3    8 ar
     7    3    4 ar
     8    4    5 ar
     9    4   23 1
    10    5    6 ar
    11    5   24 1
    12    6    7 ar
    13    6   25 1
    14    7    8 ar
    15    7   29 1
    16    8    9 ar
    17    9   10 ar
    18    9   11 1
    19   10   26 1
    20   11   12 1
    21   12   13 2
    22   12   14 2
    23   12   15 1
    24   15   19 1
    25   15   16 2
    26   16   17 1
    27   16   27 1
    28   17   18 2
    29   17   28 1
    30   18   19 1
    31   18   20 1
@<TRIPOS>MOLECULE
ZINC00230033
   29    32     0     0     0
SMALL
USER_CHARGES

@<TRIPOS>ATOM
      1 C1         -0.0166    1.3750    0.0096 C.ar      1 <0>        -0.0797
      2 C2          1.1659    2.0931    0.0022 C.ar      1 <0>        -0.1680
      3 C3          2.3807    1.4279   -0.0190 C.ar      1 <0>        -0.0222
      4 C4          2.4052    0.0530   -0.0283 C.ar      1 <0>        -0.6767
      5 C5          1.2228   -0.6833   -0.0115 C.ar      1 <0>         0.0903
      6 C6          0.0021   -0.0041    0.0020 C.ar      1 <0>        -0.1546
      7 C7          1.2347   -2.1661    0.0069 C.ar      1 <0>        -0.2495
      8 C8          0.0204   -2.8310   -0.2677 C.ar      1 <0>        -0.0202
      9 C9         -0.0540   -4.1842   -0.2964 C.ar      1 <0>        -0.2116
     10 C10         1.0926   -4.9587   -0.0494 C.ar      1 <0>        -0.0468
     11 C11         1.0486   -6.3647   -0.0856 C.ar      1 <0>        -0.0952
     12 C12         2.2026   -7.0520    0.1650 C.ar      1 <0>        -0.1608
     13 C13         3.3776   -6.3583    0.4463 C.ar      1 <0>         0.0711
     14 N1          3.4137   -5.0483    0.4788 N.ar      1 <0>        -0.4109
     15 C14         2.3200   -4.3177    0.2420 C.ar      1 <0>         0.1050
     16 C15         2.3737   -2.9050    0.2779 C.ar      1 <0>         0.3137
     17 N2          3.5887   -2.3014    0.6138 N.2       1 <0>        -0.9855
     18 S1          3.9393   -0.8235   -0.0684 S.o2      1 <0>         2.5857
     19 O1          4.8247   -0.1544    0.8190 O.2       1 <0>        -0.9930
     20 O2          4.2491   -1.0587   -1.4352 O.2       1 <0>        -1.0122
     21 H1         -0.9613    1.8982    0.0260 H         1 <0>         0.1183
     22 H2          1.1419    3.1728    0.0125 H         1 <0>         0.1195
     23 H3          3.3049    1.9867   -0.0285 H         1 <0>         0.1234
     24 H4         -0.9252   -0.5578    0.0065 H         1 <0>         0.1253
     25 H5         -0.8690   -2.2490   -0.4589 H         1 <0>         0.1152
     26 H6         -0.9959   -4.6680   -0.5090 H         1 <0>         0.1168
     27 H7          0.1285   -6.8860   -0.3050 H         1 <0>         0.1290
     28 H8          2.2038   -8.1318    0.1453 H         1 <0>         0.1256
     29 H9          4.2823   -6.9144    0.6431 H         1 <0>         0.1483
@<TRIPOS>BOND
     1    1    6 ar
     2    1    2 ar
     3    1   21 1
     4    2    3 ar
     5    2   22 1
     6    3    4 ar
     7    3   23 1
     8    4   18 1
     9    4    5 ar
    10    5    6 ar
    11    5    7 1
    12    6   24 1
    13    7   16 ar
    14    7    8 ar
    15    8    9 ar
    16    8   25 1
    17    9   10 ar
    18    9   26 1
    19   10   15 ar
    20   10   11 ar
    21   11   12 ar
    22   11   27 1
    23   12   13 ar
    24   12   28 1
    25   13   14 ar
    26   13   29 1
    27   14   15 ar
    28   15   16 ar
    29   16   17 1
    30   17   18 1
    31   18   19 2
    32   18   20 2
@<TRIPOS>MOLECULE
ZINC00230033
   30    33     0     0     0
SMALL
USER_CHARGES

@<TRIPOS>ATOM
      1 C1         -0.0166    1.3750    0.0096 C.ar      1 <0>        -0.0747
      2 C2          1.1659    2.0931    0.0022 C.ar      1 <0>        -0.1400
      3 C3          2.3807    1.4279   -0.0190 C.ar      1 <0>        -0.0220
      4 C4          2.4052    0.0530   -0.0283 C.ar      1 <0>        -0.6625
      5 C5          1.2228   -0.6833   -0.0115 C.ar      1 <0>         0.0538
      6 C6          0.0021   -0.0041    0.0020 C.ar      1 <0>        -0.1359
      7 C7          1.2347   -2.1661    0.0069 C.ar      1 <0>        -0.1700
      8 C8          0.0204   -2.8310   -0.2677 C.ar      1 <0>        -0.0093
      9 C9         -0.0540   -4.1842   -0.2964 C.ar      1 <0>        -0.1795
     10 C10         1.0926   -4.9587   -0.0494 C.ar      1 <0>        -0.0280
     11 C11         1.0486   -6.3647   -0.0856 C.ar      1 <0>         0.0091
     12 C12         2.2026   -7.0520    0.1650 C.ar      1 <0>        -0.1614
     13 C13         3.3776   -6.3583    0.4463 C.ar      1 <0>         0.1512
     14 N1          3.4137   -5.0483    0.4788 N.ar      1 <0>        -0.4031
     15 C14         2.3200   -4.3177    0.2420 C.ar      1 <0>         0.0984
     16 C15         2.3737   -2.9050    0.2779 C.ar      1 <0>         0.2691
     17 N2          3.5887   -2.3014    0.6138 N.2       1 <0>        -1.0511
     18 S1          3.9393   -0.8235   -0.0684 S.o2      1 <0>         2.6185
     19 O1          4.8247   -0.1544    0.8190 O.2       1 <0>        -0.9719
     20 O2          4.2491   -1.0587   -1.4352 O.2       1 <0>        -0.9978
     21 H1         -0.9613    1.8982    0.0260 H         1 <0>         0.1298
     22 H2          1.1419    3.1728    0.0125 H         1 <0>         0.1312
     23 H3          3.3049    1.9867   -0.0285 H         1 <0>         0.1330
     24 H4         -0.9252   -0.5578    0.0065 H         1 <0>         0.1319
     25 H5         -0.8690   -2.2490   -0.4589 H         1 <0>         0.1383
     26 H6         -0.9959   -4.6680   -0.5090 H         1 <0>         0.1462
     27 H7          0.1286   -6.8859   -0.3057 H         1 <0>         0.1680
     28 H8          2.2038   -8.1318    0.1453 H         1 <0>         0.1746
     29 H9          4.2823   -6.9144    0.6431 H         1 <0>         0.2002
     30 H10         4.2505   -4.6005    0.6790 H         1 <0>         0.4540
@<TRIPOS>BOND
     1    1    6 ar
     2    1    2 ar
     3    1   21 1
     4    2    3 ar
     5    2   22 1
     6    3    4 ar
     7    3   23 1
     8    4   18 1
     9    4    5 ar
    10    5    6 ar
    11    5    7 1
    12    6   24 1
    13    7   16 ar
    14    7    8 ar
    15    8    9 ar
    16    8   25 1
    17    9   10 ar
    18    9   26 1
    19   10   15 ar
    20   10   11 ar
    21   11   12 ar
    22   11   27 1
    23   12   13 ar
    24   12   28 1
    25   13   14 ar
    26   13   29 1
    27   14   15 ar
    28   14   30 1
    29   15   16 ar
    30   16   17 1
    31   17   18 1
    32   18   19 2
    33   18   20 2
@<TRIPOS>MOLECULE
ZINC04618294
   36    38     0     0     0
SMALL
USER_CHARGES

@<TRIPOS>ATOM
      1 C1         -0.0184    1.5028    0.0103 C.3       1 <0>        -0.1732
      2 C2          0.0021   -0.0041    0.0020 C.ar      1 <0>         0.0806
      3 C3          0.0057   -0.6888   -1.1991 C.ar      1 <0>        -0.1476
      4 C4          0.0245   -2.0707   -1.2067 C.ar      1 <0>        -0.0156
      5 C5          0.0400   -2.7685   -0.0132 C.ar      1 <0>        -0.0861
      6 C6          0.0373   -2.0840    1.1875 C.ar      1 <0>         0.0413
      7 C7          0.0229   -0.7015    1.1951 C.ar      1 <0>        -0.6270
      8 S1          0.0255    0.1712    2.7258 S.o2      1 <0>         2.6023
      9 O1         -1.0140    1.1366    2.6447 O.2       1 <0>        -1.0130
     10 O2          0.0757   -0.8098    3.7526 O.2       1 <0>        -1.0154
     11 N1          1.4488    1.0140    2.8065 N.2       1 <0>        -1.0431
     12 C8          1.7286    1.8046    3.9203 C.ar      1 <0>         0.3217
     13 C9          0.8272    1.8841    4.9596 C.ar      1 <0>        -0.3084
     14 C10         1.0946    2.6690    6.0770 C.ar      1 <0>        -0.0237
     15 C11         2.2528    3.3791    6.1739 C.ar      1 <0>        -0.2311
     16 C12         3.1967    3.3244    5.1358 C.ar      1 <0>        -0.0452
     17 C13         2.9408    2.5256    3.9947 C.ar      1 <0>         0.0946
     18 N2          3.8388    2.4672    3.0078 N.ar      1 <0>        -0.4102
     19 C14         4.9656    3.1340    3.0711 C.ar      1 <0>         0.0596
     20 C15         5.2827    3.9344    4.1667 C.ar      1 <0>        -0.1635
     21 C16         4.4032    4.0471    5.2054 C.ar      1 <0>        -0.0987
     22 N3          0.0591   -4.2485   -0.0213 N.pl3     1 <0>         0.0411
     23 O3          0.0611   -4.8473   -1.0717 O.2       1 <0>        -0.1687
     24 O4          0.0727   -4.8586    1.0223 O.3       1 <0>        -0.1598
     25 H1          1.0042    1.8801    0.0026 H         1 <0>         0.1069
     26 H2         -0.5455    1.8639   -0.8728 H         1 <0>         0.0793
     27 H3         -0.5286    1.8543    0.9071 H         1 <0>         0.1170
     28 H4         -0.0064   -0.1437   -2.1314 H         1 <0>         0.1519
     29 H5          0.0266   -2.6056   -2.1450 H         1 <0>         0.1550
     30 H6          0.0491   -2.6290    2.1198 H         1 <0>         0.1673
     31 H7         -0.0986    1.3304    4.9060 H         1 <0>         0.1029
     32 H8          0.3729    2.7162    6.8791 H         1 <0>         0.1083
     33 H9          2.4447    3.9838    7.0479 H         1 <0>         0.1109
     34 H10         5.6667    3.0608    2.2529 H         1 <0>         0.1431
     35 H11         6.2190    4.4721    4.1904 H         1 <0>         0.1214
     36 H12         4.6326    4.6629    6.0625 H         1 <0>         0.1253
@<TRIPOS>BOND
     1    1    2 1
     2    1   25 1
     3    1   26 1
     4    1   27 1
     5    2    7 ar
     6    2    3 ar
     7    3    4 ar
     8    3   28 1
     9    4    5 ar
    10    4   29 1
    11    5    6 ar
    12    5   22 1
    13    6    7 ar
    14    6   30 1
    15    7    8 1
    16    8    9 2
    17    8   10 2
    18    8   11 1
    19   11   12 1
    20   12   17 ar
    21   12   13 ar
    22   13   14 ar
    23   13   31 1
    24   14   15 ar
    25   14   32 1
    26   15   16 ar
    27   15   33 1
    28   16   21 ar
    29   16   17 ar
    30   17   18 ar
    31   18   19 ar
    32   19   20 ar
    33   19   34 1
    34   20   21 ar
    35   20   35 1
    36   21   36 1
    37   22   23 2
    38   22   24 1
@<TRIPOS>MOLECULE
ZINC04618294
   37    39     0     0     0
SMALL
USER_CHARGES

@<TRIPOS>ATOM
      1 C1         -0.0184    1.5028    0.0103 C.3       1 <0>        -0.1721
      2 C2          0.0021   -0.0041    0.0020 C.ar      1 <0>         0.0721
      3 C3          0.0057   -0.6888   -1.1991 C.ar      1 <0>        -0.1439
      4 C4          0.0245   -2.0707   -1.2067 C.ar      1 <0>        -0.0073
      5 C5          0.0400   -2.7685   -0.0132 C.ar      1 <0>        -0.0796
      6 C6          0.0373   -2.0840    1.1875 C.ar      1 <0>         0.0428
      7 C7          0.0229   -0.7015    1.1951 C.ar      1 <0>        -0.6421
      8 S1          0.0255    0.1712    2.7258 S.o2      1 <0>         2.6409
      9 O1         -1.0140    1.1366    2.6447 O.2       1 <0>        -0.9946
     10 O2          0.0757   -0.8098    3.7526 O.2       1 <0>        -0.9972
     11 N1          1.4488    1.0140    2.8065 N.2       1 <0>        -1.1010
     12 C8          1.7286    1.8046    3.9203 C.ar      1 <0>         0.2893
     13 C9          0.8272    1.8841    4.9596 C.ar      1 <0>        -0.2417
     14 C10         1.0946    2.6690    6.0770 C.ar      1 <0>        -0.0103
     15 C11         2.2528    3.3791    6.1739 C.ar      1 <0>        -0.1885
     16 C12         3.1967    3.3244    5.1358 C.ar      1 <0>        -0.0307
     17 C13         2.9408    2.5256    3.9947 C.ar      1 <0>         0.0814
     18 N2          3.8388    2.4672    3.0078 N.ar      1 <0>        -0.3997
     19 C14         4.9656    3.1340    3.0711 C.ar      1 <0>         0.1439
     20 C15         5.2827    3.9344    4.1667 C.ar      1 <0>        -0.1662
     21 C16         4.4032    4.0471    5.2054 C.ar      1 <0>         0.0095
     22 N3          0.0591   -4.2485   -0.0213 N.pl3     1 <0>         0.0353
     23 O3          0.0611   -4.8473   -1.0717 O.2       1 <0>        -0.1565
     24 O4          0.0727   -4.8586    1.0223 O.3       1 <0>        -0.1530
     25 H1          1.0042    1.8801    0.0026 H         1 <0>         0.0968
     26 H2         -0.5455    1.8639   -0.8728 H         1 <0>         0.0872
     27 H3         -0.5286    1.8543    0.9071 H         1 <0>         0.1148
     28 H4         -0.0064   -0.1437   -2.1314 H         1 <0>         0.1555
     29 H5          0.0266   -2.6056   -2.1450 H         1 <0>         0.1604
     30 H6          0.0491   -2.6290    2.1198 H         1 <0>         0.1699
     31 H7         -0.0986    1.3304    4.9060 H         1 <0>         0.1244
     32 H8          0.3729    2.7162    6.8791 H         1 <0>         0.1351
     33 H9          2.4447    3.9838    7.0479 H         1 <0>         0.1418
     34 H10         5.6667    3.0608    2.2529 H         1 <0>         0.1961
     35 H11         6.2190    4.4721    4.1904 H         1 <0>         0.1714
     36 H12         4.6326    4.6629    6.0625 H         1 <0>         0.1651
     37 H13         3.6536    1.9200    2.2286 H         1 <0>         0.4509
@<TRIPOS>BOND
     1    1    2 1
     2    1   25 1
     3    1   26 1
     4    1   27 1
     5    2    7 ar
     6    2    3 ar
     7    3    4 ar
     8    3   28 1
     9    4    5 ar
    10    4   29 1
    11    5    6 ar
    12    5   22 1
    13    6    7 ar
    14    6   30 1
    15    7    8 1
    16    8    9 2
    17    8   10 2
    18    8   11 1
    19   11   12 1
    20   12   17 ar
    21   12   13 ar
    22   13   14 ar
    23   13   31 1
    24   14   15 ar
    25   14   32 1
    26   15   16 ar
    27   15   33 1
    28   16   21 ar
    29   16   17 ar
    30   17   18 ar
    31   18   19 ar
    32   18   37 1
    33   19   20 ar
    34   19   34 1
    35   20   21 ar
    36   20   35 1
    37   21   36 1
    38   22   23 2
    39   22   24 1
@<TRIPOS>MOLECULE
ZINC13817997
   29    32     0     0     0
SMALL
USER_CHARGES

@<TRIPOS>ATOM
      1 C1         -0.0168    1.3885    0.0097 C.ar      1 <0>        -0.1594
      2 C2          1.1582    2.0864    0.0022 C.ar      1 <0>        -0.0947
      3 C3          2.3619    1.3584   -0.0137 C.ar      1 <0>        -0.0457
      4 C4          3.6091    2.0067   -0.0189 C.ar      1 <0>        -0.2082
      5 C5          4.7527    1.2795   -0.0502 C.ar      1 <0>        -0.0202
      6 C6          4.7286   -0.1305   -0.0797 C.ar      1 <0>        -0.2512
      7 C7          3.5141   -0.7957   -0.0425 C.ar      1 <0>         0.3177
      8 C8          2.3089   -0.0559   -0.0224 C.ar      1 <0>         0.1055
      9 N1          1.1266   -0.6783   -0.0130 N.ar      1 <0>        -0.4110
     10 C9          0.0021   -0.0041    0.0020 C.ar      1 <0>         0.0725
     11 N2          3.4310   -2.1899    0.0014 N.2       1 <0>        -0.9813
     12 S1          4.6067   -3.0663   -0.7874 S.o2      1 <0>         2.5853
     13 O1          4.3598   -2.9351   -2.1806 O.2       1 <0>        -1.0080
     14 O2          4.6945   -4.3262   -0.1362 O.2       1 <0>        -0.9893
     15 C10         6.1066   -2.1971   -0.4428 C.ar      1 <0>        -0.6764
     16 C11         6.0294   -0.8402   -0.1356 C.ar      1 <0>         0.1059
     17 C12         7.2075   -0.1376    0.1275 C.ar      1 <0>        -0.1465
     18 C13         8.4224   -0.7923    0.0867 C.ar      1 <0>         0.0111
     19 C14         8.4823   -2.1424   -0.2129 C.ar      1 <0>        -0.1599
     20 C15         7.3185   -2.8453   -0.4792 C.ar      1 <0>        -0.0071
     21 Cl1         9.8851    0.0839    0.4130 Cl        1 <0>        -0.0819
     22 H1         -0.9589    1.9162    0.0260 H         1 <0>         0.1264
     23 H2          1.1626    3.1664    0.0080 H         1 <0>         0.1299
     24 H3          3.6562    3.0855    0.0016 H         1 <0>         0.1183
     25 H4          5.7037    1.7913   -0.0529 H         1 <0>         0.1156
     26 H5         -0.9340   -0.5427    0.0086 H         1 <0>         0.1491
     27 H6          7.1682    0.9159    0.3619 H         1 <0>         0.1369
     28 H7          9.4364   -2.6478   -0.2393 H         1 <0>         0.1319
     29 H8          7.3631   -3.8985   -0.7140 H         1 <0>         0.1345
@<TRIPOS>BOND
     1    1   10 ar
     2    1    2 ar
     3    1   22 1
     4    2    3 ar
     5    2   23 1
     6    3    8 ar
     7    3    4 ar
     8    4    5 ar
     9    4   24 1
    10    5    6 ar
    11    5   25 1
    12    6   16 1
    13    6    7 ar
    14    7    8 ar
    15    7   11 1
    16    8    9 ar
    17    9   10 ar
    18   10   26 1
    19   11   12 1
    20   12   13 2
    21   12   14 2
    22   12   15 1
    23   15   20 ar
    24   15   16 ar
    25   16   17 ar
    26   17   18 ar
    27   17   27 1
    28   18   19 ar
    29   18   21 1
    30   19   20 ar
    31   19   28 1
    32   20   29 1
@<TRIPOS>MOLECULE
ZINC13817997
   30    33     0     0     0
SMALL
USER_CHARGES

@<TRIPOS>ATOM
      1 C1         -0.0168    1.3885    0.0097 C.ar      1 <0>        -0.1597
      2 C2          1.1582    2.0864    0.0022 C.ar      1 <0>         0.0094
      3 C3          2.3619    1.3584   -0.0137 C.ar      1 <0>        -0.0257
      4 C4          3.6091    2.0067   -0.0189 C.ar      1 <0>        -0.1779
      5 C5          4.7527    1.2795   -0.0493 C.ar      1 <0>        -0.0079
      6 C6          4.7286   -0.1305   -0.0779 C.ar      1 <0>        -0.1736
      7 C7          3.5141   -0.7957   -0.0415 C.ar      1 <0>         0.2729
      8 C8          2.3089   -0.0559   -0.0224 C.ar      1 <0>         0.0993
      9 N1          1.1266   -0.6783   -0.0130 N.ar      1 <0>        -0.4034
     10 C9          0.0021   -0.0041    0.0020 C.ar      1 <0>         0.1524
     11 N2          3.4309   -2.1899    0.0033 N.2       1 <0>        -1.0476
     12 S1          4.6075   -3.0668   -0.7836 S.o2      1 <0>         2.6186
     13 O1          4.3622   -2.9366   -2.1772 O.2       1 <0>        -0.9938
     14 O2          4.6945   -4.3263   -0.1314 O.2       1 <0>        -0.9681
     15 C10         6.1070   -2.1974   -0.4380 C.ar      1 <0>        -0.6629
     16 C11         6.0295   -0.8403   -0.1318 C.ar      1 <0>         0.0710
     17 C12         7.2073   -0.1375    0.1321 C.ar      1 <0>        -0.1296
     18 C13         8.4223   -0.7923    0.0932 C.ar      1 <0>         0.0106
     19 C14         8.4825   -2.1426   -0.2054 C.ar      1 <0>        -0.1329
     20 C15         7.3190   -2.8456   -0.4725 C.ar      1 <0>        -0.0065
     21 Cl1         9.8846    0.0842    0.4205 Cl        1 <0>        -0.0602
     22 H1         -0.9589    1.9162    0.0260 H         1 <0>         0.1754
     23 H2          1.1626    3.1664    0.0080 H         1 <0>         0.1689
     24 H3          3.6562    3.0855    0.0016 H         1 <0>         0.1477
     25 H4          5.7037    1.7913   -0.0513 H         1 <0>         0.1386
     26 H5         -0.9340   -0.5427    0.0086 H         1 <0>         0.2010
     27 H6          7.1677    0.9161    0.3658 H         1 <0>         0.1429
     28 H7          9.4365   -2.6480   -0.2304 H         1 <0>         0.1430
     29 H8          7.3638   -3.8990   -0.7065 H         1 <0>         0.1437
     30 H9          1.0996   -1.6479   -0.0174 H         1 <0>         0.4543
@<TRIPOS>BOND
     1    1   10 ar
     2    1    2 ar
     3    1   22 1
     4    2    3 ar
     5    2   23 1
     6    3    8 ar
     7    3    4 ar
     8    4    5 ar
     9    4   24 1
    10    5    6 ar
    11    5   25 1
    12    6   16 1
    13    6    7 ar
    14    7    8 ar
    15    7   11 1
    16    8    9 ar
    17    9   10 ar
    18    9   30 1
    19   10   26 1
    20   11   12 1
    21   12   13 2
    22   12   14 2
    23   12   15 1
    24   15   20 ar
    25   15   16 ar
    26   16   17 ar
    27   17   18 ar
    28   17   27 1
    29   18   19 ar
    30   18   21 1
    31   19   20 ar
    32   19   28 1
    33   20   29 1
@<TRIPOS>MOLECULE
ZINC05681580
   33    35     0     0     0
SMALL
USER_CHARGES

@<TRIPOS>ATOM
      1 C1         -0.0168    1.3873    0.0097 C.ar      1 <0>        -0.0242
      2 C2          1.1414    2.1040    0.0025 C.ar      1 <0>        -0.2303
      3 C3          2.3772    1.4377   -0.0128 C.ar      1 <0>        -0.0454
      4 C4          3.5921    2.1497   -0.0200 C.ar      1 <0>        -0.0985
      5 C5          4.7567    1.4367   -0.0346 C.ar      1 <0>        -0.1633
      6 C6          4.7192    0.0439   -0.0418 C.ar      1 <0>         0.0605
      7 N1          3.5860   -0.6150   -0.0351 N.ar      1 <0>        -0.4109
      8 C7          2.4121    0.0220   -0.0208 C.ar      1 <0>         0.0941
      9 C8          1.1948   -0.6941   -0.0134 C.ar      1 <0>         0.3209
     10 C9          0.0021   -0.0041    0.0020 C.ar      1 <0>        -0.3081
     11 N2          1.1998   -2.0883   -0.0219 N.2       1 <0>        -1.0445
     12 S1         -0.2313   -2.9215   -0.0132 S.o2      1 <0>         2.5936
     13 O1         -0.8475   -2.6573    1.2398 O.2       1 <0>        -1.0135
     14 O2         -0.8714   -2.6423   -1.2508 O.2       1 <0>        -1.0135
     15 C10         0.1652   -4.6382   -0.0273 C.ar      1 <0>        -0.5696
     16 C11         0.3148   -5.3032   -1.2299 C.ar      1 <0>        -0.0217
     17 C12         0.6260   -6.6500   -1.2410 C.ar      1 <0>        -0.0791
     18 C13         0.7879   -7.3318   -0.0495 C.ar      1 <0>        -0.0170
     19 C14         0.6391   -6.6667    1.1532 C.ar      1 <0>        -0.0792
     20 C15         0.3323   -5.3189    1.1643 C.ar      1 <0>        -0.0218
     21 N3          1.1201   -8.7742   -0.0613 N.pl3     1 <0>         0.0329
     22 O3          1.2497   -9.3560   -1.1132 O.2       1 <0>        -0.1577
     23 O4          1.2617   -9.3705    0.9808 O.3       1 <0>        -0.1575
     24 H1         -0.9637    1.9065    0.0260 H         1 <0>         0.1086
     25 H2          1.1092    3.1836    0.0081 H         1 <0>         0.1112
     26 H3          3.6025    3.2296   -0.0146 H         1 <0>         0.1257
     27 H4          5.7059    1.9519   -0.0408 H         1 <0>         0.1218
     28 H5          5.6479   -0.5072   -0.0537 H         1 <0>         0.1437
     29 H6         -0.9298   -0.5500    0.0080 H         1 <0>         0.1032
     30 H7          0.1883   -4.7705   -2.1609 H         1 <0>         0.1616
     31 H8          0.7422   -7.1697   -2.1806 H         1 <0>         0.1582
     32 H9          0.7653   -7.1994    2.0841 H         1 <0>         0.1582
     33 H10         0.2197   -4.7983    2.1038 H         1 <0>         0.1616
@<TRIPOS>BOND
     1    1   10 ar
     2    1    2 ar
     3    1   24 1
     4    2    3 ar
     5    2   25 1
     6    3    8 ar
     7    3    4 ar
     8    4    5 ar
     9    4   26 1
    10    5    6 ar
    11    5   27 1
    12    6    7 ar
    13    6   28 1
    14    7    8 ar
    15    8    9 ar
    16    9   10 ar
    17    9   11 1
    18   10   29 1
    19   11   12 1
    20   12   13 2
    21   12   14 2
    22   12   15 1
    23   15   20 ar
    24   15   16 ar
    25   16   17 ar
    26   16   30 1
    27   17   18 ar
    28   17   31 1
    29   18   19 ar
    30   18   21 1
    31   19   20 ar
    32   19   32 1
    33   20   33 1
    34   21   22 2
    35   21   23 1
@<TRIPOS>MOLECULE
ZINC13476439
   75    75     0     0     0
SMALL
USER_CHARGES

@<TRIPOS>ATOM
      1 C1          2.0338    0.8481    0.5913 C.3       1 <0>        -0.1495
      2 C2          1.0208    0.7517   -0.5513 C.3       1 <0>        -0.0952
      3 C3          1.6052   -0.0995   -1.6804 C.3       1 <0>        -0.1531
      4 C4         -0.2667    0.1038   -0.0381 C.3       1 <0>        -0.1180
      5 C5         -1.3275    0.1346   -1.1403 C.3       1 <0>         0.0713
      6 H1         -0.9407   -0.3610   -2.0307 H         1 <0>         0.1265
      7 C6         -2.5661   -0.5805   -0.6654 C.2       1 <0>         0.3274
      8 O1         -3.6172    0.0105   -0.6010 O.2       1 <0>        -0.4399
      9 N1         -1.6589    1.5252   -1.4604 N.am      1 <0>        -0.7090
     10 C7         -2.1492    1.8384   -2.6761 C.2       1 <0>         0.5222
     11 O2         -2.2632    0.9787   -3.5239 O.2       1 <0>        -0.5323
     12 C8         -2.5558    3.2569   -2.9821 C.3       1 <0>         0.1266
     13 H2         -1.7678    3.9381   -2.6607 H         1 <0>         0.1191
     14 C9         -3.8510    3.5880   -2.2380 C.3       1 <0>        -0.1193
     15 C10        -3.6148    3.4803   -0.7302 C.3       1 <0>        -0.1129
     16 C11        -2.6361    4.5701   -0.2881 C.3       1 <0>        -0.1568
     17 C12        -4.9431    3.6576    0.0081 C.3       1 <0>        -0.1414
     18 N2         -2.7698    3.4034   -4.4239 N.am      1 <0>        -0.7073
     19 C13        -2.5717    4.5975   -5.0167 C.2       1 <0>         0.5183
     20 O3         -2.1300    5.5271   -4.3752 O.2       1 <0>        -0.5283
     21 C14        -2.8991    4.7775   -6.4767 C.3       1 <0>         0.1474
     22 H3         -3.9578    4.5752   -6.6392 H         1 <0>         0.1250
     23 C15        -2.0605    3.8071   -7.3108 C.3       1 <0>        -0.1267
     24 C16        -2.4812    3.9013   -8.7788 C.3       1 <0>        -0.0910
     25 C17        -1.5606    3.0248   -9.6304 C.3       1 <0>        -0.1483
     26 C18        -3.9255    3.4190   -8.9274 C.3       1 <0>        -0.1418
     27 N3         -2.5975    6.1536   -6.8787 N.am      1 <0>        -0.6919
     28 C19        -3.2385    6.7049   -7.9283 C.2       1 <0>         0.6511
     29 O4         -4.0666    6.0605   -8.5412 O.2       1 <0>        -0.5577
     30 O5         -2.9614    7.9695   -8.2978 O.3       1 <0>        -0.3575
     31 C20        -3.6784    8.4897   -9.4191 C.3       1 <0>         0.1299
     32 C21        -3.2389    9.9069   -9.6828 C.ar      1 <0>        -0.1011
     33 C22        -3.8899   10.9586   -9.0654 C.ar      1 <0>        -0.0931
     34 C23        -3.4868   12.2585   -9.3073 C.ar      1 <0>        -0.1234
     35 C24        -2.4325   12.5068  -10.1662 C.ar      1 <0>        -0.1073
     36 C25        -1.7810   11.4550  -10.7829 C.ar      1 <0>        -0.1236
     37 C26        -2.1813   10.1549  -10.5377 C.ar      1 <0>        -0.0933
     38 H4          2.9802    1.2284    0.2068 H         1 <0>         0.0581
     39 H5          1.6545    1.5249    1.3570 H         1 <0>         0.0555
     40 H6          2.1884   -0.1402    1.0241 H         1 <0>         0.0575
     41 H7          0.8002    1.7511   -0.9265 H         1 <0>         0.0716
     42 H8          1.8258   -1.0988   -1.3052 H         1 <0>         0.0585
     43 H9          0.8835   -0.1681   -2.4945 H         1 <0>         0.0565
     44 H10         2.5224    0.3621   -2.0460 H         1 <0>         0.0571
     45 H11        -0.0659   -0.9296    0.2441 H         1 <0>         0.0915
     46 H12        -0.6291    0.6539    0.8303 H         1 <0>         0.0754
     47 H13        -2.5137   -1.6215   -0.3827 H         1 <0>         0.1054
     48 H14        -1.5255    2.2206   -0.7974 H         1 <0>         0.4076
     49 H15        -4.1629    4.6028   -2.4853 H         1 <0>         0.0820
     50 H16        -4.6302    2.8859   -2.5348 H         1 <0>         0.0746
     51 H17        -3.1974    2.5007   -0.4969 H         1 <0>         0.0885
     52 H18        -3.0847    5.5498   -0.4528 H         1 <0>         0.0624
     53 H19        -2.4100    4.4475    0.7711 H         1 <0>         0.0590
     54 H20        -1.7165    4.4894   -0.8676 H         1 <0>         0.0529
     55 H21        -5.6403    2.8812   -0.3068 H         1 <0>         0.0564
     56 H22        -4.7748    3.5808    1.0823 H         1 <0>         0.0563
     57 H23        -5.3605    4.6371   -0.2252 H         1 <0>         0.0541
     58 H24        -3.0541    2.6410   -4.9520 H         1 <0>         0.4139
     59 H25        -1.0057    4.0658   -7.2178 H         1 <0>         0.0741
     60 H26        -2.2180    2.7899   -6.9523 H         1 <0>         0.0823
     61 H27        -2.4077    4.9365   -9.1121 H         1 <0>         0.0759
     62 H28        -1.6341    1.9896   -9.2971 H         1 <0>         0.0544
     63 H29        -1.8603    3.0919  -10.6763 H         1 <0>         0.0554
     64 H30        -0.5316    3.3684   -9.5246 H         1 <0>         0.0507
     65 H31        -4.5813    4.0434   -8.3207 H         1 <0>         0.0714
     66 H32        -4.2252    3.4861   -9.9732 H         1 <0>         0.0514
     67 H33        -3.9990    2.3838   -8.5941 H         1 <0>         0.0441
     68 H34        -1.9365    6.6680   -6.3894 H         1 <0>         0.4164
     69 H35        -3.4743    7.8767  -10.2970 H         1 <0>         0.0787
     70 H36        -4.7472    8.4745   -9.2058 H         1 <0>         0.0787
     71 H37        -4.7136   10.7646   -8.3944 H         1 <0>         0.1247
     72 H38        -3.9958   13.0802   -8.8255 H         1 <0>         0.1261
     73 H39        -2.1180   13.5225  -10.3558 H         1 <0>         0.1251
     74 H40        -0.9575   11.6490  -11.4542 H         1 <0>         0.1261
     75 H41        -1.6699    9.3329  -11.0166 H         1 <0>         0.1246
@<TRIPOS>BOND
     1    1    2 1
     2    1   38 1
     3    1   39 1
     4    1   40 1
     5    2    3 1
     6    2    4 1
     7    2   41 1
     8    3   42 1
     9    3   43 1
    10    3   44 1
    11    4    5 1
    12    4   45 1
    13    4   46 1
    14    5    6 1
    15    5    7 1
    16    5    9 1
    17    7    8 2
    18    7   47 1
    19    9   10 am
    20    9   48 1
    21   10   11 2
    22   10   12 1
    23   12   13 1
    24   12   14 1
    25   12   18 1
    26   14   15 1
    27   14   49 1
    28   14   50 1
    29   15   16 1
    30   15   17 1
    31   15   51 1
    32   16   52 1
    33   16   53 1
    34   16   54 1
    35   17   55 1
    36   17   56 1
    37   17   57 1
    38   18   19 am
    39   18   58 1
    40   19   20 2
    41   19   21 1
    42   21   22 1
    43   21   23 1
    44   21   27 1
    45   23   24 1
    46   23   59 1
    47   23   60 1
    48   24   25 1
    49   24   26 1
    50   24   61 1
    51   25   62 1
    52   25   63 1
    53   25   64 1
    54   26   65 1
    55   26   66 1
    56   26   67 1
    57   27   28 am
    58   27   68 1
    59   28   29 2
    60   28   30 1
    61   30   31 1
    62   31   32 1
    63   31   69 1
    64   31   70 1
    65   32   37 ar
    66   32   33 ar
    67   33   34 ar
    68   33   71 1
    69   34   35 ar
    70   34   72 1
    71   35   36 ar
    72   35   73 1
    73   36   37 ar
    74   36   74 1
    75   37   75 1
