@<TRIPOS>MOLECULE
ZINC04136964
   51    54     0     0     0
SMALL
USER_CHARGES

@<TRIPOS>ATOM
      1 C1         -0.0168    1.3897    0.0097 C.ar      1 <0>        -0.0714
      2 C2          1.1691    2.0941    0.0021 C.ar      1 <0>        -0.1445
      3 C3          2.3804    1.4165   -0.0135 C.ar      1 <0>         0.1298
      4 C4          2.4026    0.0286   -0.0217 C.ar      1 <0>        -0.1783
      5 C5          1.2201   -0.6816   -0.0137 C.ar      1 <0>        -0.0477
      6 C6          0.0021   -0.0041    0.0020 C.ar      1 <0>        -0.0620
      7 C7         -1.2713   -0.7647    0.0106 C.2       1 <0>        -0.2303
      8 C8         -2.1308   -0.6985   -1.0391 C.2       1 <0>         0.1219
      9 O1         -3.2790   -1.3788   -1.0759 O.3       1 <0>        -0.2154
     10 C9         -3.8133   -1.9283    0.0323 C.ar      1 <0>         0.1757
     11 C10        -5.1371   -2.3448    0.0457 C.ar      1 <0>        -0.1825
     12 C11        -5.6741   -2.9171    1.1876 C.ar      1 <0>         0.1906
     13 C12        -4.9001   -3.0841    2.3313 C.ar      1 <0>        -0.2037
     14 C13        -3.5799   -2.6737    2.3405 C.ar      1 <0>         0.2177
     15 C14        -3.0336   -2.0875    1.1922 C.ar      1 <0>        -0.2613
     16 C15        -1.6367   -1.6192    1.1574 C.2       1 <0>         0.4308
     17 O2         -0.8325   -1.9156    2.0245 O.2       1 <0>        -0.4342
     18 O3         -2.8202   -2.8370    3.4529 O.3       1 <0>        -0.4756
     19 O4         -6.9707   -3.3190    1.1905 O.3       1 <0>        -0.4882
     20 O5          3.5472    2.1134   -0.0214 O.3       1 <0>        -0.2967
     21 C16         4.7570    1.3529   -0.0375 C.3       1 <0>         0.2253
     22 H1          4.7427    0.6650   -0.8828 H         1 <0>         0.0775
     23 C17         5.9531    2.2993   -0.1695 C.3       1 <0>         0.0608
     24 H2          5.9450    3.0136    0.6538 H         1 <0>         0.0876
     25 C18         7.2480    1.4821   -0.1255 C.3       1 <0>         0.0860
     26 H3          7.2792    0.8022   -0.9768 H         1 <0>         0.0789
     27 C19         7.2857    0.6756    1.1762 C.3       1 <0>         0.0899
     28 H4          7.3046    1.3571    2.0266 H         1 <0>         0.0814
     29 C20         6.0381   -0.2081    1.2563 C.3       1 <0>         0.1083
     30 H5          6.0407   -0.9165    0.4279 H         1 <0>         0.0831
     31 O6          4.8698    0.6112    1.1787 O.3       1 <0>        -0.3699
     32 C21         6.0385   -0.9726    2.5816 C.3       1 <0>         0.0902
     33 O7          4.9373   -1.8830    2.6066 O.3       1 <0>        -0.5647
     34 O8          8.4556   -0.1449    1.1958 O.3       1 <0>        -0.5492
     35 O9          8.3715    2.3637   -0.1764 O.3       1 <0>        -0.5537
     36 O10         5.8719    3.0011   -1.4116 O.3       1 <0>        -0.5538
     37 H6         -0.9590    1.9174    0.0260 H         1 <0>         0.1318
     38 H7          1.1551    3.1740    0.0081 H         1 <0>         0.1345
     39 H8          3.3466   -0.4958   -0.0346 H         1 <0>         0.1335
     40 H9          1.2380   -1.7614   -0.0204 H         1 <0>         0.1264
     41 H10        -1.8749   -0.0692   -1.8787 H         1 <0>         0.2013
     42 H11        -5.7497   -2.2223   -0.8352 H         1 <0>         0.1534
     43 H12        -5.3310   -3.5346    3.2132 H         1 <0>         0.1499
     44 H13        -2.3502   -3.6814    3.4877 H         1 <0>         0.4048
     45 H14        -7.0993   -4.2345    0.9070 H         1 <0>         0.4036
     46 H15         6.9713   -1.5278    2.6805 H         1 <0>         0.0784
     47 H16         5.9460   -0.2676    3.4077 H         1 <0>         0.0573
     48 H17         4.8752   -2.4027    3.4197 H         1 <0>         0.3857
     49 H18         9.2844    0.3505    1.1435 H         1 <0>         0.3955
     50 H19         8.4068    2.9103   -0.9733 H         1 <0>         0.3960
     51 H20         5.0728    3.5368   -1.5092 H         1 <0>         0.3958
@<TRIPOS>BOND
     1    1    6 ar
     2    1    2 ar
     3    1   37 1
     4    2    3 ar
     5    2   38 1
     6    3    4 ar
     7    3   20 1
     8    4    5 ar
     9    4   39 1
    10    5    6 ar
    11    5   40 1
    12    6    7 1
    13    7   16 1
    14    7    8 2
    15    8    9 1
    16    8   41 1
    17    9   10 1
    18   10   15 ar
    19   10   11 ar
    20   11   12 ar
    21   11   42 1
    22   12   13 ar
    23   12   19 1
    24   13   14 ar
    25   13   43 1
    26   14   15 ar
    27   14   18 1
    28   15   16 1
    29   16   17 2
    30   18   44 1
    31   19   45 1
    32   20   21 1
    33   21   22 1
    34   21   31 1
    35   21   23 1
    36   23   24 1
    37   23   25 1
    38   23   36 1
    39   25   26 1
    40   25   27 1
    41   25   35 1
    42   27   28 1
    43   27   29 1
    44   27   34 1
    45   29   30 1
    46   29   31 1
    47   29   32 1
    48   32   33 1
    49   32   46 1
    50   32   47 1
    51   33   48 1
    52   34   49 1
    53   35   50 1
    54   36   51 1
