@<TRIPOS>MOLECULE
ZINC00002191
   33    34     0     0     0
SMALL
USER_CHARGES

@<TRIPOS>ATOM
      1 C1          0.1096    1.5031   -0.0016 C.3       1 <0>        -0.1171
      2 C2          0.0965   -0.0038   -0.0068 C.ar      1 <0>        -0.0666
      3 C3         -0.5808   -0.6832   -1.0040 C.ar      1 <0>        -0.1334
      4 C4         -0.5968   -2.0625   -1.0147 C.ar      1 <0>        -0.0635
      5 C5          0.0725   -2.7730   -0.0165 C.ar      1 <0>        -0.1415
      6 C6          0.7539   -2.0813    0.9867 C.ar      1 <0>        -0.0751
      7 C7          0.7666   -0.7019    0.9824 C.ar      1 <0>        -0.1327
      8 C8          0.0592   -4.2518   -0.0214 C.2       1 <0>         0.4656
      9 O1         -0.0569   -4.8559   -1.0717 O.2       1 <0>        -0.4806
     10 C9          0.1857   -4.9894    1.2376 C.2       1 <0>        -0.1104
     11 C10         0.1920   -4.4440    2.5070 C.2       1 <0>        -0.1198
     12 C11         0.3325   -5.5027    3.4075 C.2       1 <0>        -0.2159
     13 C12         0.4081   -6.6514    2.6914 C.2       1 <0>         0.1328
     14 N1          0.3141   -6.3537    1.3726 N.pl3     1 <0>        -0.4076
     15 C13         0.3473   -7.3218    0.2735 C.3       1 <0>         0.0670
     16 C14         0.5648   -8.0348    3.2682 C.3       1 <0>        -0.1384
     17 C15        -0.7900   -8.5811    3.6386 C.2       1 <0>         0.4969
     18 O2         -1.7901   -7.9094    3.4514 O.co2     1 <0>        -0.6809
     19 O3         -0.8859   -9.6949    4.1253 O.co2     1 <0>        -0.6988
     20 H1          0.9618    1.8611   -0.5792 H         1 <0>         0.0717
     21 H2         -0.8131    1.8760   -0.4461 H         1 <0>         0.0671
     22 H3          0.1896    1.8622    1.0245 H         1 <0>         0.0682
     23 H4         -1.0984   -0.1324   -1.7754 H         1 <0>         0.1258
     24 H5         -1.1261   -2.5916   -1.7934 H         1 <0>         0.1300
     25 H6          1.2732   -2.6249    1.7620 H         1 <0>         0.1434
     26 H7          1.2970   -0.1655    1.7553 H         1 <0>         0.1275
     27 H8          0.1048   -3.3967    2.7561 H         1 <0>         0.1441
     28 H9          0.3742   -5.4206    4.4836 H         1 <0>         0.1368
     29 H10         1.3780   -7.4709   -0.0484 H         1 <0>         0.0677
     30 H11        -0.0683   -8.2707    0.6125 H         1 <0>         0.0844
     31 H12        -0.2430   -6.9441   -0.5613 H         1 <0>         0.0970
     32 H13         1.0295   -8.6865    2.5283 H         1 <0>         0.0684
     33 H14         1.1934   -7.9886    4.1575 H         1 <0>         0.0877
@<TRIPOS>BOND
     1    1    2 1
     2    1   20 1
     3    1   21 1
     4    1   22 1
     5    2    7 ar
     6    2    3 ar
     7    3    4 ar
     8    3   23 1
     9    4    5 ar
    10    4   24 1
    11    5    6 ar
    12    5    8 1
    13    6    7 ar
    14    6   25 1
    15    7   26 1
    16    8    9 2
    17    8   10 1
    18   10   14 1
    19   10   11 2
    20   11   12 1
    21   11   27 1
    22   12   13 2
    23   12   28 1
    24   13   14 1
    25   13   16 1
    26   14   15 1
    27   15   29 1
    28   15   30 1
    29   15   31 1
    30   16   17 1
    31   16   32 1
    32   16   33 1
    33   17   18 2
    34   17   19 1
@<TRIPOS>MOLECULE
ZINC00001281
   29    30     0     0     0
SMALL
USER_CHARGES

@<TRIPOS>ATOM
      1 C1         -0.1806    1.0357    0.2000 C.ar      1 <0>        -0.1222
      2 C2          0.9245    1.8481    0.0217 C.ar      1 <0>        -0.1361
      3 C3          2.1862    1.2928   -0.0570 C.ar      1 <0>        -0.1180
      4 C4          2.3450   -0.0840    0.0433 C.ar      1 <0>         0.1573
      5 C5          1.2329   -0.8970    0.2224 C.ar      1 <0>        -0.0156
      6 C6         -0.0262   -0.3347    0.3002 C.ar      1 <0>        -0.1119
      7 C7          1.4001   -2.3907    0.3312 C.3       1 <0>        -0.1565
      8 C8          1.7182   -2.7580    1.7577 C.2       1 <0>         0.5052
      9 O1          1.8014   -1.8875    2.6073 O.co2     1 <0>        -0.6883
     10 O2          1.8923   -3.9257    2.0622 O.co2     1 <0>        -0.7010
     11 N1          3.6199   -0.6493   -0.0363 N.pl3     1 <0>        -0.6799
     12 C9          3.9705   -1.4310   -1.1417 C.ar      1 <0>         0.2371
     13 C10         3.3529   -1.2194   -2.3686 C.ar      1 <0>        -0.0923
     14 C11         3.7019   -1.9940   -3.4588 C.ar      1 <0>        -0.0712
     15 C12         4.6640   -2.9789   -3.3298 C.ar      1 <0>        -0.1540
     16 C13         5.2803   -3.1928   -2.1105 C.ar      1 <0>        -0.0674
     17 C14         4.9413   -2.4177   -1.0174 C.ar      1 <0>        -0.0897
     18 Cl1         5.7217   -2.6815    0.5107 Cl        1 <0>        -0.0512
     19 Cl2         2.1442    0.0160   -2.5315 Cl        1 <0>        -0.0473
     20 H1         -1.1659    1.4731    0.2657 H         1 <0>         0.1132
     21 H2          0.8003    2.9181   -0.0565 H         1 <0>         0.1137
     22 H3          3.0486    1.9277   -0.1966 H         1 <0>         0.1147
     23 H4         -0.8913   -0.9662    0.4394 H         1 <0>         0.1149
     24 H5          0.4765   -2.8828    0.0266 H         1 <0>         0.0630
     25 H6          2.2146   -2.7133   -0.3173 H         1 <0>         0.0663
     26 H7          4.2621   -0.4997    0.6751 H         1 <0>         0.4125
     27 H8          3.2224   -1.8301   -4.4125 H         1 <0>         0.1341
     28 H9          4.9344   -3.5828   -4.1833 H         1 <0>         0.1345
     29 H10         6.0307   -3.9634   -2.0133 H         1 <0>         0.1361
@<TRIPOS>BOND
     1    1    6 ar
     2    1    2 ar
     3    1   20 1
     4    2    3 ar
     5    2   21 1
     6    3    4 ar
     7    3   22 1
     8    4    5 ar
     9    4   11 1
    10    5    6 ar
    11    5    7 1
    12    6   23 1
    13    7    8 1
    14    7   24 1
    15    7   25 1
    16    8    9 2
    17    8   10 1
    18   11   12 1
    19   11   26 1
    20   12   17 ar
    21   12   13 ar
    22   13   14 ar
    23   13   19 1
    24   14   15 ar
    25   14   27 1
    26   15   16 ar
    27   15   28 1
    28   16   17 ar
    29   16   29 1
    30   17   18 1
@<TRIPOS>MOLECULE
ZINC28767088
   28    29     0     0     0
SMALL
USER_CHARGES
2-[2-(2-fluorophenoxy)phenyl]acetic acid
@<TRIPOS>ATOM
      1 C1         -3.9357   -0.5370   -1.1808 C.ar      1 <0>        -0.1487
      2 C2         -4.3788   -1.0752    0.0136 C.ar      1 <0>        -0.1034
      3 C3         -3.8415   -0.6410    1.2095 C.ar      1 <0>        -0.1944
      4 C4         -2.8559    0.3360    1.2119 C.ar      1 <0>         0.1262
      5 C5         -2.4129    0.8740    0.0123 C.ar      1 <0>        -0.0489
      6 C6         -2.9574    0.4398   -1.1809 C.ar      1 <0>        -0.0851
      7 C7         -1.3431    1.9354    0.0111 C.3       1 <0>        -0.1261
      8 C8          0.0138    1.2811    0.0520 C.2       1 <0>         0.4692
      9 O1          0.1030    0.0765    0.0793 O.co2     1 <0>        -0.6286
     10 O2          1.1234    2.0365    0.0525 O.co2     1 <0>        -0.7749
     11 O3         -2.3260    0.7653    2.3872 O.3       1 <0>        -0.2415
     12 C9         -2.8626    0.2880    3.5414 C.ar      1 <0>         0.0599
     13 C10        -3.8578    1.0018    4.1922 C.ar      1 <0>        -0.0996
     14 C11        -4.4046    0.5129    5.3631 C.ar      1 <0>        -0.1219
     15 C12        -3.9546   -0.6827    5.8922 C.ar      1 <0>        -0.0955
     16 C13        -2.9594   -1.3953    5.2493 C.ar      1 <0>        -0.1485
     17 C14        -2.4112   -0.9130    4.0744 C.ar      1 <0>         0.0942
     18 F1         -1.4387   -1.6090    3.4459 F         1 <0>        -0.1186
     19 H1         -4.3577   -0.8775   -2.1149 H         1 <0>         0.1192
     20 H2         -5.1458   -1.8355    0.0111 H         1 <0>         0.1183
     21 H3         -4.1878   -1.0616    2.1420 H         1 <0>         0.1170
     22 H4         -2.6158    0.8612   -2.1148 H         1 <0>         0.1260
     23 H5         -1.4300    2.5425   -0.9020 H         1 <0>         0.0760
     24 H6         -1.4658    2.5807    0.8935 H         1 <0>         0.0786
     25 H7         -4.2076    1.9377    3.7821 H         1 <0>         0.1404
     26 H8         -5.1817    1.0674    5.8681 H         1 <0>         0.1349
     27 H9         -4.3813   -1.0606    6.8096 H         1 <0>         0.1352
     28 H10        -2.6095   -2.3287    5.6648 H         1 <0>         0.1405
@<TRIPOS>BOND
     1    1    6 ar
     2    1    2 ar
     3    1   19 1
     4    2    3 ar
     5    2   20 1
     6    3    4 ar
     7    3   21 1
     8    4    5 ar
     9    4   11 1
    10    5    6 ar
    11    5    7 1
    12    6   22 1
    13    7    8 1
    14    7   23 1
    15    7   24 1
    16    8    9 2
    17    8   10 1
    18   11   12 1
    19   12   17 ar
    20   12   13 ar
    21   13   14 ar
    22   13   25 1
    23   14   15 ar
    24   14   26 1
    25   15   16 ar
    26   15   27 1
    27   16   17 ar
    28   16   28 1
    29   17   18 1
@<TRIPOS>MOLECULE
ZINC00002272
   32    33     0     0     0
SMALL
USER_CHARGES

@<TRIPOS>ATOM
      1 C1          0.1060    0.7764   -0.6172 C.3       1 <0>        -0.1130
      2 C2          0.3971   -0.7015   -0.3489 C.3       1 <0>        -0.1341
      3 H1         -0.5231   -1.2771   -0.4492 H         1 <0>         0.0715
      4 C3          0.9397   -0.8611    1.0479 C.ar      1 <0>        -0.0379
      5 C4          2.1066   -0.2129    1.4136 C.ar      1 <0>        -0.0761
      6 C5          2.6120   -0.3538    2.6939 C.ar      1 <0>        -0.1321
      7 C6          1.9549   -1.1424    3.6154 C.ar      1 <0>        -0.0781
      8 C7          0.7766   -1.7992    3.2534 C.ar      1 <0>        -0.1713
      9 C8          0.2693   -1.6482    1.9606 C.ar      1 <0>        -0.0812
     10 C9          0.0673   -2.6456    4.2349 C.2       1 <0>         0.4453
     11 O1          0.4288   -2.6639    5.3952 O.2       1 <0>        -0.4594
     12 C10        -1.0815   -3.4698    3.8059 C.ar      1 <0>        -0.1536
     13 C11        -1.1036   -4.0311    2.5270 C.ar      1 <0>        -0.0786
     14 C12        -2.1789   -4.7998    2.1333 C.ar      1 <0>        -0.1272
     15 C13        -3.2346   -5.0151    3.0019 C.ar      1 <0>        -0.0969
     16 C14        -3.2193   -4.4620    4.2704 C.ar      1 <0>        -0.1337
     17 C15        -2.1478   -3.6960    4.6794 C.ar      1 <0>        -0.0707
     18 C16         1.4134   -1.2018   -1.3428 C.2       1 <0>         0.5019
     19 O2          1.8632   -0.4463   -2.1874 O.co2     1 <0>        -0.6905
     20 O3          1.7858   -2.3621   -1.3023 O.co2     1 <0>        -0.6932
     21 H2          1.0261    1.3520   -0.5169 H         1 <0>         0.0537
     22 H3         -0.2865    0.8918   -1.6275 H         1 <0>         0.0560
     23 H4         -0.6291    1.1382    0.1017 H         1 <0>         0.0337
     24 H5          2.6254    0.4056    0.6961 H         1 <0>         0.1270
     25 H6          3.5232    0.1547    2.9724 H         1 <0>         0.1248
     26 H7          2.3508   -1.2521    4.6142 H         1 <0>         0.1269
     27 H8         -0.6435   -2.1499    1.6753 H         1 <0>         0.1328
     28 H9         -0.2807   -3.8632    1.8479 H         1 <0>         0.1433
     29 H10        -2.1973   -5.2344    1.1448 H         1 <0>         0.1314
     30 H11        -4.0744   -5.6172    2.6882 H         1 <0>         0.1250
     31 H12        -4.0467   -4.6338    4.9430 H         1 <0>         0.1261
     32 H13        -2.1350   -3.2687    5.6711 H         1 <0>         0.1282
@<TRIPOS>BOND
     1    1    2 1
     2    1   21 1
     3    1   22 1
     4    1   23 1
     5    2    3 1
     6    2    4 1
     7    2   18 1
     8    4    9 ar
     9    4    5 ar
    10    5    6 ar
    11    5   24 1
    12    6    7 ar
    13    6   25 1
    14    7    8 ar
    15    7   26 1
    16    8    9 ar
    17    8   10 1
    18    9   27 1
    19   10   11 2
    20   10   12 1
    21   12   17 ar
    22   12   13 ar
    23   13   14 ar
    24   13   28 1
    25   14   15 ar
    26   14   29 1
    27   15   16 ar
    28   15   30 1
    29   16   17 ar
    30   16   31 1
    31   17   32 1
    32   18   19 2
    33   18   20 1
@<TRIPOS>MOLECULE
ZINC38141758
   32    32     0     0     0
SMALL
USER_CHARGES

@<TRIPOS>ATOM
      1 C1         -0.0187    1.5258    0.0104 C.3       1 <0>        -0.1171
      2 C2          0.0021   -0.0041    0.0020 C.3       1 <0>        -0.1346
      3 H1          0.5123   -0.3556   -0.8948 H         1 <0>         0.0688
      4 C3         -1.4117   -0.5257    0.0127 C.ar      1 <0>        -0.0283
      5 C4         -2.2591   -0.2043    1.0565 C.ar      1 <0>        -0.0789
      6 C5         -3.5560   -0.6827    1.0663 C.ar      1 <0>        -0.1224
      7 C6         -4.0056   -1.4823    0.0321 C.ar      1 <0>        -0.1045
      8 C7         -3.1585   -1.8029   -1.0121 C.ar      1 <0>        -0.1215
      9 C8         -1.8629   -1.3209   -1.0241 C.ar      1 <0>        -0.1299
     10 C9         -5.4191   -2.0047    0.0433 C.3       1 <0>        -0.0688
     11 C10        -6.3366   -1.0086   -0.6687 C.3       1 <0>        -0.0917
     12 C11        -5.9482   -0.9236   -2.1461 C.3       1 <0>        -0.1490
     13 C12        -7.7883   -1.4770   -0.5491 C.3       1 <0>        -0.1463
     14 C13         0.7309   -0.5033    1.2229 C.2       1 <0>         0.5000
     15 O1          0.1557   -1.2165    2.0272 O.co2     1 <0>        -0.6863
     16 O2          1.8959   -0.1939    1.4064 O.co2     1 <0>        -0.6999
     17 H2          1.0039    1.9031    0.0027 H         1 <0>         0.0588
     18 H3         -0.5459    1.8868   -0.8726 H         1 <0>         0.0394
     19 H4         -0.5289    1.8773    0.9072 H         1 <0>         0.0469
     20 H5         -1.9079    0.4204    1.8645 H         1 <0>         0.1152
     21 H6         -4.2179   -0.4322    1.8822 H         1 <0>         0.1106
     22 H7         -3.5096   -2.4278   -1.8199 H         1 <0>         0.1100
     23 H8         -1.2022   -1.5684   -1.8418 H         1 <0>         0.1111
     24 H9         -5.4557   -2.9647   -0.4717 H         1 <0>         0.0650
     25 H10        -5.7512   -2.1322    1.0737 H         1 <0>         0.0658
     26 H11        -6.2328   -0.0260   -0.2086 H         1 <0>         0.0696
     27 H12        -6.6019   -0.2140   -2.6534 H         1 <0>         0.0477
     28 H13        -4.9140   -0.5899   -2.2313 H         1 <0>         0.0635
     29 H14        -6.0521   -1.9062   -2.6062 H         1 <0>         0.0505
     30 H15        -8.0650   -1.5376    0.5035 H         1 <0>         0.0526
     31 H16        -8.4419   -0.7674   -1.0563 H         1 <0>         0.0514
     32 H17        -7.8921   -2.4596   -1.0092 H         1 <0>         0.0524
@<TRIPOS>BOND
     1    1    2 1
     2    1   17 1
     3    1   18 1
     4    1   19 1
     5    2    3 1
     6    2    4 1
     7    2   14 1
     8    4    9 ar
     9    4    5 ar
    10    5    6 ar
    11    5   20 1
    12    6    7 ar
    13    6   21 1
    14    7    8 ar
    15    7   10 1
    16    8    9 ar
    17    8   22 1
    18    9   23 1
    19   10   11 1
    20   10   24 1
    21   10   25 1
    22   11   12 1
    23   11   13 1
    24   11   26 1
    25   12   27 1
    26   12   28 1
    27   12   29 1
    28   13   30 1
    29   13   31 1
    30   13   32 1
    31   14   15 2
    32   14   16 1
@<TRIPOS>MOLECULE
ZINC00601283
   40    42     0     0     0
SMALL
USER_CHARGES

@<TRIPOS>ATOM
      1 C1         -0.0182    1.5027    0.0102 C.3       1 <0>        -0.0883
      2 C2          0.0021   -0.0042    0.0020 C.2       1 <0>         0.0711
      3 C3          0.0074   -0.7679   -1.0995 C.2       1 <0>        -0.0782
      4 C4          0.0293   -2.1662   -0.6567 C.ar      1 <0>        -0.0368
      5 C5          0.0428   -3.3917   -1.3243 C.ar      1 <0>        -0.0938
      6 C6          0.0625   -4.5656   -0.5961 C.ar      1 <0>         0.0956
      7 C7          0.0688   -4.5275    0.7953 C.ar      1 <0>        -0.1804
      8 C8          0.0551   -3.3226    1.4635 C.ar      1 <0>        -0.0946
      9 C9          0.0357   -2.1316    0.7482 C.ar      1 <0>         0.0803
     10 N1          0.0240   -0.7990    1.1223 N.am      1 <0>        -0.5123
     11 C10         0.0297   -0.3494    2.3928 C.2       1 <0>         0.6115
     12 O1         -1.0174   -0.0751    2.9450 O.2       1 <0>        -0.4412
     13 C11         1.3084   -0.1902    3.1139 C.ar      1 <0>        -0.1622
     14 C12         2.5190   -0.3985    2.4491 C.ar      1 <0>        -0.0360
     15 C13         3.7097   -0.2483    3.1279 C.ar      1 <0>        -0.1193
     16 C14         3.7070    0.1084    4.4664 C.ar      1 <0>         0.0005
     17 C15         2.5096    0.3160    5.1314 C.ar      1 <0>        -0.1284
     18 C16         1.3125    0.1750    4.4621 C.ar      1 <0>        -0.0426
     19 Cl1         5.2103    0.2955    5.3141 Cl        1 <0>        -0.0622
     20 O2          0.0753   -5.7626   -1.2410 O.3       1 <0>        -0.3182
     21 C17         0.0954   -6.9375   -0.4278 C.3       1 <0>         0.0304
     22 C18        -0.0069   -0.2812   -2.5257 C.3       1 <0>        -0.1253
     23 C19         1.4090   -0.0991   -3.0085 C.2       1 <0>         0.4982
     24 O3          2.3431   -0.3421   -2.2636 O.co2     1 <0>        -0.6866
     25 O4          1.6204    0.2911   -4.1441 O.co2     1 <0>        -0.7049
     26 H1          1.0044    1.8799    0.0025 H         1 <0>         0.0804
     27 H2         -0.5453    1.8638   -0.8729 H         1 <0>         0.0881
     28 H3         -0.5284    1.8543    0.9070 H         1 <0>         0.0568
     29 H4          0.0376   -3.4222   -2.4038 H         1 <0>         0.1332
     30 H5          0.0842   -5.4504    1.3560 H         1 <0>         0.1288
     31 H6          0.0595   -3.3039    2.5434 H         1 <0>         0.1161
     32 H7          2.5224   -0.6770    1.4056 H         1 <0>         0.1519
     33 H8          4.6464   -0.4095    2.6151 H         1 <0>         0.1453
     34 H9          2.5140    0.5936    6.1751 H         1 <0>         0.1420
     35 H10         0.3798    0.3418    4.9804 H         1 <0>         0.1449
     36 H11         0.9887   -6.9318    0.1968 H         1 <0>         0.0516
     37 H12        -0.7911   -6.9558    0.2062 H         1 <0>         0.0506
     38 H13         0.1040   -7.8210   -1.0660 H         1 <0>         0.0947
     39 H14        -0.5139   -1.0132   -3.1543 H         1 <0>         0.0698
     40 H15        -0.5343    0.6712   -2.5793 H         1 <0>         0.0692
@<TRIPOS>BOND
     1    1    2 1
     2    1   26 1
     3    1   27 1
     4    1   28 1
     5    2   10 1
     6    2    3 2
     7    3    4 1
     8    3   22 1
     9    4    9 ar
    10    4    5 ar
    11    5    6 ar
    12    5   29 1
    13    6    7 ar
    14    6   20 1
    15    7    8 ar
    16    7   30 1
    17    8    9 ar
    18    8   31 1
    19    9   10 1
    20   10   11 am
    21   11   12 2
    22   11   13 1
    23   13   18 ar
    24   13   14 ar
    25   14   15 ar
    26   14   32 1
    27   15   16 ar
    28   15   33 1
    29   16   17 ar
    30   16   19 1
    31   17   18 ar
    32   17   34 1
    33   18   35 1
    34   20   21 1
    35   21   36 1
    36   21   37 1
    37   21   38 1
    38   22   23 1
    39   22   39 1
    40   22   40 1
    41   23   24 2
    42   23   25 1
@<TRIPOS>MOLECULE
ZINC13809288
   29    30     0     0     0
SMALL
USER_CHARGES
2-[2-[(2,5-dichlorophenyl)amino]phenyl]acetic acid
@<TRIPOS>ATOM
      1 C1         -4.1912   -0.2046   -1.1622 C.ar      1 <0>        -0.1676
      2 C2         -4.7180   -0.6486    0.0372 C.ar      1 <0>        -0.0961
      3 C3         -4.0971   -0.3259    1.2274 C.ar      1 <0>        -0.1823
      4 C4         -2.9417    0.4459    1.2195 C.ar      1 <0>         0.2205
      5 C5         -2.4153    0.8902    0.0132 C.ar      1 <0>        -0.0880
      6 C6         -3.0448    0.5684   -1.1734 C.ar      1 <0>        -0.0787
      7 C7         -1.1624    1.7275   -0.0005 C.3       1 <0>        -0.1265
      8 C8          0.0447    0.8258    0.0280 C.2       1 <0>         0.4623
      9 O1         -0.0978   -0.3737    0.0564 O.co2     1 <0>        -0.6181
     10 N1         -2.3110    0.7748    2.4219 N.pl3     1 <0>        -0.6974
     11 C9         -2.8291    0.3078    3.6333 C.ar      1 <0>         0.1831
     12 C10        -3.5643    1.1576    4.4495 C.ar      1 <0>        -0.1054
     13 C11        -4.0796    0.6911    5.6442 C.ar      1 <0>        -0.0278
     14 C12        -3.8547   -0.6183    6.0323 C.ar      1 <0>        -0.1052
     15 C13        -3.1184   -1.4652    5.2247 C.ar      1 <0>        -0.0966
     16 C14        -2.6047   -1.0066    4.0264 C.ar      1 <0>        -0.0425
     17 Cl1        -1.6808   -2.0709    3.0128 Cl        1 <0>        -0.0221
     18 Cl2        -5.0043    1.7505    6.6621 Cl        1 <0>        -0.0667
     19 H1         -4.6789   -0.4585   -2.0917 H         1 <0>         0.1115
     20 H2         -5.6163   -1.2482    0.0427 H         1 <0>         0.1121
     21 H3         -4.5087   -0.6732    2.1635 H         1 <0>         0.1086
     22 H4         -2.6388    0.9175   -2.1113 H         1 <0>         0.1156
     23 H5         -1.1506    2.3781    0.8740 H         1 <0>         0.0653
     24 H6         -1.1410    2.3347   -0.9054 H         1 <0>         0.0752
     25 H7         -1.5137    1.3271    2.4162 H         1 <0>         0.4152
     26 H8         -3.7366    2.1806    4.1491 H         1 <0>         0.1440
     27 H9         -4.2549   -0.9792    6.9682 H         1 <0>         0.1411
     28 H10        -2.9441   -2.4861    5.5308 H         1 <0>         0.1438
     29 O2          1.2782    1.3550    0.0162 O.co2     1 <0>        -0.7771
@<TRIPOS>BOND
     1    1    6 ar
     2    1    2 ar
     3    1   19 1
     4    2    3 ar
     5    2   20 1
     6    3    4 ar
     7    3   21 1
     8    4    5 ar
     9    4   10 1
    10    5    6 ar
    11    5    7 1
    12    6   22 1
    13    7    8 1
    14    7   23 1
    15    7   24 1
    16    8    9 2
    17    8   29 1
    18   10   11 1
    19   10   25 1
    20   11   16 ar
    21   11   12 ar
    22   12   13 ar
    23   12   26 1
    24   13   14 ar
    25   13   18 1
    26   14   15 ar
    27   14   27 1
    28   15   16 ar
    29   15   28 1
    30   16   17 1
