@<TRIPOS>MOLECULE
ZINC12402859
   32    33     0     0     0
SMALL
USER_CHARGES
[(2R,3S,4R,5R)-5-(3-carbamoyl-1,2,4-triazol-1-yl)-3,4-dihydroxy-tetrahydrofuran-2-yl]methyl dihydrogen phosphate
@<TRIPOS>ATOM
      1 C1         -0.2498    1.5382   -3.5779 C.2       1 <0>         0.1994
      2 N1          0.7281    1.8694   -4.3821 N.2       1 <0>        -0.4875
      3 C2          1.5857    2.6290   -3.6764 C.2       1 <0>         0.1274
      4 N2          1.1094    2.7497   -2.4566 N.2       1 <0>        -0.2191
      5 N3          0.0040    2.0923   -2.3780 N.pl3     1 <0>        -0.2917
      6 C3         -0.8381    1.9734   -1.1850 C.3       1 <0>         0.2682
      7 H1         -1.6995    1.3358   -1.3840 H         1 <0>         0.1354
      8 C4         -0.0173    1.4248    0.0099 C.3       1 <0>         0.0379
      9 H2          0.9962    1.8257    0.0024 H         1 <0>         0.1020
     10 C5         -0.8141    1.9598    1.2246 C.3       1 <0>         0.0900
     11 H3         -0.1350    2.3032    2.0050 H         1 <0>         0.0975
     12 C6         -1.6228    3.1414    0.6550 C.3       1 <0>         0.0863
     13 H4         -2.6898    2.9372    0.7436 H         1 <0>         0.1016
     14 O1         -1.2643    3.2762   -0.7305 O.3       1 <0>        -0.3293
     15 C7         -1.2741    4.4239    1.4130 C.3       1 <0>         0.1339
     16 O2         -2.1113    5.4888    0.9578 O.3       1 <0>        -0.7503
     17 P1         -2.0189    6.9870    1.5401 P.3       1 <0>         2.1306
     18 O3         -2.1730    6.9547    3.0117 O.2       1 <0>        -1.1643
     19 O4         -1.6887    0.9505    1.7329 O.3       1 <0>        -0.5415
     20 O5          0.0021   -0.0041    0.0020 O.3       1 <0>        -0.5438
     21 C8          2.8385    3.2279   -4.1846 C.2       1 <0>         0.6231
     22 O6          3.5340    3.8991   -3.4474 O.2       1 <0>        -0.5105
     23 N4          3.2093    3.0296   -5.4651 N.am      1 <0>        -0.8364
     24 H5         -1.1053    0.9296   -3.8311 H         1 <0>         0.2281
     25 H6         -1.4312    4.2692    2.4805 H         1 <0>         0.0590
     26 H7         -0.2301    4.6801    1.2328 H         1 <0>         0.0469
     27 H8         -1.2331    0.1594    2.0517 H         1 <0>         0.3830
     28 H9          0.4511   -0.3871   -0.7640 H         1 <0>         0.3808
     29 H10         2.6544    2.4940   -6.0533 H         1 <0>         0.4090
     30 H11         4.0312    3.4225   -5.7984 H         1 <0>         0.4086
     31 O7         -0.5878    7.6216    1.1642 O.3       1 <0>        -1.1965
     32 O8         -3.1900    7.8857    0.8975 O.3       1 <0>        -1.1779
@<TRIPOS>BOND
     1    1    5 1
     2    1    2 2
     3    1   24 1
     4    2    3 1
     5    3    4 2
     6    3   21 1
     7    4    5 1
     8    5    6 1
     9    6    7 1
    10    6   14 1
    11    6    8 1
    12    8    9 1
    13    8   10 1
    14    8   20 1
    15   10   11 1
    16   10   12 1
    17   10   19 1
    18   12   13 1
    19   12   14 1
    20   12   15 1
    21   15   16 1
    22   15   25 1
    23   15   26 1
    24   16   17 1
    25   17   18 2
    26   17   31 1
    27   17   32 1
    28   19   27 1
    29   20   28 1
    30   21   22 2
    31   21   23 am
    32   23   29 1
    33   23   30 1
