@<TRIPOS>MOLECULE
ZINC06091650
   14    14     0     0     0
SMALL
USER_CHARGES

@<TRIPOS>ATOM
      1 C1         -0.0167    1.3805    0.0096 C.2       1 <0>        -0.1129
      2 C2          1.0479    2.2659    0.0042 C.2       1 <0>        -0.3099
      3 C3          2.4090    1.9905   -0.0102 C.2       1 <0>         0.2003
      4 C4          3.0463    0.7418   -0.0229 C.2       1 <0>         0.1161
      5 C5          2.4591   -0.5327   -0.0242 C.2       1 <0>         0.1162
      6 O1          3.3134   -1.5737   -0.0374 O.3       1 <0>        -0.7357
      7 C6          1.0958   -0.8597   -0.0129 C.2       1 <0>         0.2003
      8 C7          0.0021   -0.0041    0.0020 C.2       1 <0>        -0.3099
      9 O2          0.8075   -2.1849   -0.0172 O.3       1 <0>        -0.7796
     10 O3          4.3927    0.7689   -0.0361 O.2       1 <0>        -0.7357
     11 O4          3.2289    3.0707   -0.0127 O.3       1 <0>        -0.7795
     12 H1         -0.9975    1.8323    0.0264 H         1 <0>         0.0374
     13 H2          0.7838    3.3131    0.0119 H         1 <0>         0.0465
     14 H3         -0.9655   -0.4838    0.0090 H         1 <0>         0.0465
@<TRIPOS>BOND
     1    1    8 2
     2    1    2 1
     3    1   12 1
     4    2    3 2
     5    2   13 1
     6    3    4 1
     7    3   11 1
     8    4    5 1
     9    4   10 2
    10    5    6 1
    11    5    7 2
    12    7    8 1
    13    7    9 1
    14    8   14 1
@<TRIPOS>MOLECULE
ZINC06091650
   16    16     0     0     0
SMALL
USER_CHARGES

@<TRIPOS>ATOM
      1 C1         -0.0168    1.3866    0.0097 C.2       1 <0>         0.0357
      2 C2          1.0425    2.2690    0.0043 C.2       1 <0>        -0.3521
      3 C3          2.4109    1.9961   -0.0106 C.2       1 <0>         0.2256
      4 C4          3.0485    0.7597   -0.0239 C.2       1 <0>        -0.1271
      5 C5          2.4650   -0.5208   -0.0254 C.2       1 <0>         0.3401
      6 C6          1.0912   -0.8544   -0.0138 C.2       1 <0>         0.2607
      7 O1          0.8053   -2.1800   -0.0190 O.3       1 <0>        -0.6256
      8 C7          0.0021   -0.0041    0.0020 C.2       1 <0>        -0.3353
      9 O2          3.2454   -1.4650   -0.0388 O.2       1 <0>        -0.5268
     10 O3          4.4051    0.7928   -0.0374 O.3       1 <0>        -0.4853
     11 O4          3.2272    3.0794   -0.0130 O.3       1 <0>        -0.4774
     12 H1         -0.9978    1.8381    0.0264 H         1 <0>         0.0968
     13 H2          0.7765    3.3157    0.0124 H         1 <0>         0.1044
     14 H3         -0.9653   -0.4843    0.0086 H         1 <0>         0.1010
     15 H4          2.7584    3.9252   -0.0039 H         1 <0>         0.3829
     16 H5          4.8198   -0.0808   -0.0464 H         1 <0>         0.3826
@<TRIPOS>BOND
     1    1    8 1
     2    1    2 2
     3    1   12 1
     4    2    3 1
     5    2   13 1
     6    3    4 2
     7    3   11 1
     8    4    5 1
     9    4   10 1
    10    5    6 1
    11    5    9 2
    12    6    7 1
    13    6    8 2
    14    8   14 1
    15   10   16 1
    16   11   15 1
@<TRIPOS>MOLECULE
ZINC06091650
   15    15     0     0     0
SMALL
USER_CHARGES
2,3,7-trihydroxycyclohepta-2,4,6-trien-1-one
@<TRIPOS>ATOM
      1 C1          2.4144    1.9908   -0.0097 C.2       1 <0>         0.0040
      2 C2          3.0386    0.7616   -0.0223 C.2       1 <0>        -0.3134
      3 C3          2.4678   -0.5117   -0.0238 C.2       1 <0>         0.3246
      4 C4          1.1204   -0.8581   -0.0128 C.2       1 <0>        -0.2242
      5 C5          0.0021   -0.0041    0.0020 C.2       1 <0>         0.2985
      6 O1         -1.0922   -0.5546    0.0096 O.3       1 <0>        -0.6103
      7 C6         -0.0171    1.4096    0.0098 C.2       1 <0>         0.2566
      8 C7          1.0545    2.2821    0.0042 C.2       1 <0>        -0.3829
      9 O2         -1.2457    1.9835    0.0184 O.2       1 <0>        -0.6962
     10 O3          0.8504   -2.1880   -0.0175 O.3       1 <0>        -0.5058
     11 O4          3.3420   -1.5487   -0.0373 O.3       1 <0>        -0.7377
     12 H1          3.0731    2.8467   -0.0109 H         1 <0>         0.0678
     13 H2          4.1183    0.7878   -0.0321 H         1 <0>         0.0791
     14 H3          0.8018    3.3321    0.0123 H         1 <0>         0.0733
     15 H4         -0.1926   -2.5375   -0.0094 H         1 <0>         0.3666
@<TRIPOS>BOND
     1    1    8 2
     2    1    2 1
     3    1   12 1
     4    2    3 2
     5    2   13 1
     6    3    4 1
     7    3   11 1
     8    4    5 2
     9    4   10 1
    10    5    6 1
    11    5    7 1
    12    7    8 1
    13    7    9 2
    14    8   14 1
    15   10   15 1
@<TRIPOS>MOLECULE
ZINC06091650
   15    15     0     0     0
SMALL
USER_CHARGES

@<TRIPOS>ATOM
      1 C1         -0.0166    1.3744    0.0096 C.2       1 <0>        -0.1607
      2 C2          1.0520    2.2646    0.0042 C.2       1 <0>        -0.1517
      3 C3          2.4063    1.9905   -0.0102 C.2       1 <0>        -0.0930
      4 C4          3.0464    0.7299   -0.0232 C.2       1 <0>         0.2331
      5 C5          2.4533   -0.5462   -0.0248 C.2       1 <0>         0.1897
      6 C6          1.0994   -0.8660   -0.0141 C.2       1 <0>         0.1807
      7 O1          0.8075   -2.1906   -0.0188 O.3       1 <0>        -0.7397
      8 C7          0.0021   -0.0041    0.0020 C.2       1 <0>        -0.2506
      9 O2          3.3106   -1.5981   -0.0390 O.3       1 <0>        -0.6274
     10 O3          4.2712    0.7513   -0.0348 O.2       1 <0>        -0.6450
     11 O4          3.2273    3.0697   -0.0128 O.3       1 <0>        -0.5142
     12 H1         -0.9976    1.8259    0.0264 H         1 <0>         0.0668
     13 H2          0.7876    3.3117    0.0119 H         1 <0>         0.0694
     14 H3         -0.9660   -0.4829    0.0091 H         1 <0>         0.0704
     15 H4          4.1684    2.8480   -0.0230 H         1 <0>         0.3723
@<TRIPOS>BOND
     1    1    8 2
     2    1    2 1
     3    1   12 1
     4    2    3 2
     5    2   13 1
     6    3    4 1
     7    3   11 1
     8    4    5 1
     9    4   10 2
    10    5    6 2
    11    5    9 1
    12    6    7 1
    13    6    8 1
    14    8   14 1
    15   11   15 1
@<TRIPOS>MOLECULE
ZINC06091650
   15    15     0     0     0
SMALL
USER_CHARGES

@<TRIPOS>ATOM
      1 C1         -0.0166    1.3732    0.0096 C.2       1 <0>        -0.0592
      2 C2          1.0540    2.2602    0.0041 C.2       1 <0>        -0.2545
      3 C3          2.4105    1.9859   -0.0103 C.2       1 <0>         0.0439
      4 C4          3.0544    0.7372   -0.0232 C.2       1 <0>         0.0715
      5 C5          2.4839   -0.5250   -0.0250 C.2       1 <0>         0.1953
      6 O1          3.3520   -1.5673   -0.0388 O.3       1 <0>        -0.6295
      7 C6          1.1114   -0.8646   -0.0138 C.2       1 <0>         0.3145
      8 C7          0.0021   -0.0041    0.0020 C.2       1 <0>        -0.3724
      9 O2          0.8578   -2.0628   -0.0182 O.2       1 <0>        -0.6215
     10 O3          4.4108    0.7722   -0.0360 O.3       1 <0>        -0.7616
     11 O4          3.2279    3.0676   -0.0128 O.3       1 <0>        -0.5171
     12 H1         -0.9970    1.8259    0.0263 H         1 <0>         0.0662
     13 H2          0.7909    3.3077    0.0119 H         1 <0>         0.0708
     14 H3         -0.9645   -0.4858    0.0087 H         1 <0>         0.0727
     15 H4          4.1698    2.8488   -0.0230 H         1 <0>         0.3809
@<TRIPOS>BOND
     1    1    8 2
     2    1    2 1
     3    1   12 1
     4    2    3 2
     5    2   13 1
     6    3    4 1
     7    3   11 1
     8    4    5 2
     9    4   10 1
    10    5    6 1
    11    5    7 1
    12    7    8 1
    13    7    9 2
    14    8   14 1
    15   11   15 1
