@<TRIPOS>MOLECULE
ZINC00209104
   37    39     0     0     0
SMALL
USER_CHARGES
N-(3-chlorophenyl)-5-oxo-1-phenyl-pyrrolidine-3-carboxamide
@<TRIPOS>ATOM
      1 C1         -8.9800    4.8756   -2.8145 C.ar      1 <0>        -0.1432
      2 C2         -8.5760    4.9604   -1.4947 C.ar      1 <0>        -0.0927
      3 C3         -7.7569    3.9867   -0.9578 C.ar      1 <0>        -0.1536
      4 C4         -7.3385    2.9218   -1.7449 C.ar      1 <0>         0.1635
      5 C5         -7.7413    2.8426   -3.0716 C.ar      1 <0>        -0.1567
      6 C6         -8.5652    3.8165   -3.6009 C.ar      1 <0>        -0.0921
      7 N1         -6.5082    1.9339   -1.2041 N.am      1 <0>        -0.5538
      8 C7         -6.1139    1.8654    0.2080 C.3       1 <0>         0.1075
      9 C8         -4.8921    0.9211    0.2493 C.3       1 <0>        -0.1234
     10 H1         -4.9023    0.3083    1.1507 H         1 <0>         0.1402
     11 C9         -5.1202    0.0550   -1.0112 C.3       1 <0>        -0.1459
     12 C10        -5.9689    0.9259   -1.9111 C.2       1 <0>         0.5146
     13 O1         -6.1376    0.7418   -3.0980 O.2       1 <0>        -0.5019
     14 C11        -3.6056    1.6987    0.1438 C.2       1 <0>         0.5197
     15 O2         -3.6272    2.9113    0.1557 O.2       1 <0>        -0.5016
     16 N2         -2.4309    1.0467    0.0361 N.am      1 <0>        -0.6691
     17 C12        -1.2300    1.7648    0.0323 C.ar      1 <0>         0.1526
     18 C13        -0.0954    1.2264    0.6259 C.ar      1 <0>        -0.1382
     19 C14         1.0870    1.9398    0.6266 C.ar      1 <0>        -0.0872
     20 C15         1.1445    3.1867    0.0314 C.ar      1 <0>        -0.1228
     21 C16         0.0178    3.7239   -0.5658 C.ar      1 <0>        -0.0166
     22 C17        -1.1689    3.0146   -0.5688 C.ar      1 <0>        -0.1137
     23 Cl1         0.0943    5.2898   -1.3114 Cl        1 <0>        -0.0612
     24 H2         -9.6211    5.6379   -3.2319 H         1 <0>         0.1238
     25 H3         -8.9017    5.7888   -0.8831 H         1 <0>         0.1272
     26 H4         -7.4423    4.0531    0.0733 H         1 <0>         0.1257
     27 H5         -7.4144    2.0178   -3.6874 H         1 <0>         0.1536
     28 H6         -8.8824    3.7531   -4.6313 H         1 <0>         0.1269
     29 H7         -6.9273    1.4564    0.8073 H         1 <0>         0.0962
     30 H8         -5.8379    2.8555    0.5709 H         1 <0>         0.1084
     31 H9         -4.1697   -0.1776   -1.4913 H         1 <0>         0.1112
     32 H10        -5.6507   -0.8617   -0.7533 H         1 <0>         0.1282
     33 H11        -2.4181    0.0797   -0.0387 H         1 <0>         0.4157
     34 H12        -0.1391    0.2523    1.0903 H         1 <0>         0.1341
     35 H13         1.9679    1.5233    1.0923 H         1 <0>         0.1390
     36 H14         2.0706    3.7425    0.0331 H         1 <0>         0.1365
     37 H15        -2.0484    3.4343   -1.0344 H         1 <0>         0.1488
@<TRIPOS>BOND
     1    1    6 ar
     2    1    2 ar
     3    1   24 1
     4    2    3 ar
     5    2   25 1
     6    3    4 ar
     7    3   26 1
     8    4    5 ar
     9    4    7 1
    10    5    6 ar
    11    5   27 1
    12    6   28 1
    13    7   12 am
    14    7    8 1
    15    8    9 1
    16    8   29 1
    17    8   30 1
    18    9   10 1
    19    9   11 1
    20    9   14 1
    21   11   12 1
    22   11   31 1
    23   11   32 1
    24   12   13 2
    25   14   15 2
    26   14   16 am
    27   16   17 1
    28   16   33 1
    29   17   22 ar
    30   17   18 ar
    31   18   19 ar
    32   18   34 1
    33   19   20 ar
    34   19   35 1
    35   20   21 ar
    36   20   36 1
    37   21   22 ar
    38   21   23 1
    39   22   37 1
@<TRIPOS>MOLECULE
ZINC02906253
   37    39     0     0     0
SMALL
USER_CHARGES
N-(3-chlorophenyl)-5-oxo-1-phenyl-pyrrolidine-3-carboxamide
@<TRIPOS>ATOM
      1 C1          1.6463   11.2896   -3.3452 C.ar      1 <0>        -0.1435
      2 C2          1.7645   11.1493   -1.9746 C.ar      1 <0>        -0.0926
      3 C3          2.3097    9.9979   -1.4413 C.ar      1 <0>        -0.1544
      4 C4          2.7399    8.9806   -2.2831 C.ar      1 <0>         0.1648
      5 C5          2.6255    9.1272   -3.6593 C.ar      1 <0>        -0.1564
      6 C6          2.0737   10.2785   -4.1861 C.ar      1 <0>        -0.0917
      7 N1          3.2926    7.8127   -1.7459 N.am      1 <0>        -0.5532
      8 C7          3.3534    7.5092   -0.3113 C.3       1 <0>         0.1091
      9 C8          3.6233    5.9907   -0.2225 C.3       1 <0>        -0.1242
     10 H1          4.2821    5.7599    0.6147 H         1 <0>         0.1380
     11 C9          4.3254    5.7157   -1.5724 C.3       1 <0>        -0.1439
     12 C10         3.8366    6.8250   -2.4776 C.2       1 <0>         0.5149
     13 O1          3.9224    6.8230   -3.6874 O.2       1 <0>        -0.5021
     14 C11         2.3332    5.2188   -0.1185 C.2       1 <0>         0.5205
     15 O2          1.2729    5.8077   -0.1136 O.2       1 <0>        -0.5012
     16 N2          2.3576    3.8741   -0.0309 N.am      1 <0>        -0.6692
     17 C12         1.1603    3.1502   -0.0460 C.ar      1 <0>         0.1569
     18 C13         0.0803    3.6069   -0.7906 C.ar      1 <0>        -0.1161
     19 C14        -1.1005    2.8909   -0.8035 C.ar      1 <0>        -0.0851
     20 C15        -1.2109    1.7229   -0.0715 C.ar      1 <0>        -0.1224
     21 C16        -0.1353    1.2618    0.6670 C.ar      1 <0>        -0.0155
     22 C17         1.0493    1.9744    0.6837 C.ar      1 <0>        -0.1370
     23 Cl1        -0.2758   -0.2088    1.5788 Cl        1 <0>        -0.0622
     24 H2          1.2190   12.1907   -3.7597 H         1 <0>         0.1238
     25 H3          1.4299   11.9408   -1.3204 H         1 <0>         0.1272
     26 H4          2.4018    9.8889   -0.3707 H         1 <0>         0.1250
     27 H5          2.9634    8.3398   -4.3167 H         1 <0>         0.1531
     28 H6          1.9800   10.3911   -5.2561 H         1 <0>         0.1269
     29 H7          2.4042    7.7522    0.1662 H         1 <0>         0.1070
     30 H8          4.1648    8.0646    0.1590 H         1 <0>         0.0956
     31 H9          5.4080    5.7669   -1.4568 H         1 <0>         0.1279
     32 H10         4.0284    4.7435   -1.9658 H         1 <0>         0.1125
     33 H11         3.2052    3.4082    0.0425 H         1 <0>         0.4154
     34 H12         0.1639    4.5215   -1.3589 H         1 <0>         0.1393
     35 H13        -1.9402    3.2460   -1.3825 H         1 <0>         0.1380
     36 H14        -2.1370    1.1674   -0.0795 H         1 <0>         0.1368
     37 H15         1.8874    1.6166    1.2633 H         1 <0>         0.1380
@<TRIPOS>BOND
     1    1    6 ar
     2    1    2 ar
     3    1   24 1
     4    2    3 ar
     5    2   25 1
     6    3    4 ar
     7    3   26 1
     8    4    5 ar
     9    4    7 1
    10    5    6 ar
    11    5   27 1
    12    6   28 1
    13    7   12 am
    14    7    8 1
    15    8    9 1
    16    8   29 1
    17    8   30 1
    18    9   10 1
    19    9   11 1
    20    9   14 1
    21   11   12 1
    22   11   31 1
    23   11   32 1
    24   12   13 2
    25   14   15 2
    26   14   16 am
    27   16   17 1
    28   16   33 1
    29   17   22 ar
    30   17   18 ar
    31   18   19 ar
    32   18   34 1
    33   19   20 ar
    34   19   35 1
    35   20   21 ar
    36   20   36 1
    37   21   22 ar
    38   21   23 1
    39   22   37 1
@<TRIPOS>MOLECULE
ZINC01103943
   43    45     0     0     0
SMALL
USER_CHARGES

@<TRIPOS>ATOM
      1 C1          2.1319    1.4020    0.7464 C.ar      1 <0>        -0.1100
      2 C2          1.1765    2.0875    0.0079 C.ar      1 <0>         0.1735
      3 C3          0.2365    1.3821   -0.7316 C.ar      1 <0>        -0.1334
      4 C4          0.2539   -0.0001   -0.7309 C.ar      1 <0>        -0.0035
      5 C5          1.2068   -0.6809    0.0063 C.ar      1 <0>        -0.1170
      6 C6          2.1450    0.0197    0.7438 C.ar      1 <0>        -0.0031
      7 Cl1         3.3395   -0.8381    1.6664 Cl        1 <0>        -0.0464
      8 Cl2        -0.9210   -0.8827   -1.6552 Cl        1 <0>        -0.0476
      9 N1          1.1608    3.4866    0.0092 N.am      1 <0>        -0.6695
     10 C7          2.3166    4.1735    0.1036 C.2       1 <0>         0.5228
     11 O1          3.3758    3.5828    0.0909 O.2       1 <0>        -0.4999
     12 C8          2.2928    5.6754    0.2250 C.3       1 <0>        -0.1243
     13 H1          1.7961    6.1263   -0.6341 H         1 <0>         0.1332
     14 C9          1.6195    6.1132    1.5462 C.3       1 <0>        -0.1488
     15 C10         2.7702    6.2659    2.5163 C.2       1 <0>         0.5161
     16 O2          2.6589    6.3233    3.7226 O.2       1 <0>        -0.5198
     17 N2          3.9341    6.3281    1.8468 N.am      1 <0>        -0.6115
     18 C11         3.7210    6.2388    0.3964 C.3       1 <0>         0.1149
     19 C12         5.2468    6.4672    2.4821 C.3       1 <0>         0.1638
     20 C13         5.4913    5.2781    3.4133 C.3       1 <0>        -0.1335
     21 C14         6.8622    5.4233    4.0769 C.3       1 <0>        -0.1147
     22 C15         6.9023    6.7213    4.8859 C.3       1 <0>        -0.1230
     23 C16         6.6579    7.9104    3.9546 C.3       1 <0>        -0.1147
     24 C17         5.2869    7.7652    3.2911 C.3       1 <0>        -0.1335
     25 H2          2.8669    1.9483    1.3189 H         1 <0>         0.1512
     26 H3         -0.5079    1.9129   -1.3066 H         1 <0>         0.1453
     27 H4          1.2183   -1.7608    0.0061 H         1 <0>         0.1477
     28 H5          0.3181    3.9623   -0.0578 H         1 <0>         0.4179
     29 H6          1.1030    7.0640    1.4144 H         1 <0>         0.1213
     30 H7          0.9268    5.3467    1.8937 H         1 <0>         0.1055
     31 H8          4.4494    5.5630   -0.0516 H         1 <0>         0.0993
     32 H9          3.7935    7.2273   -0.0573 H         1 <0>         0.0858
     33 H10         6.0208    6.4931    1.7150 H         1 <0>         0.0884
     34 H11         4.7173    5.2522    4.1804 H         1 <0>         0.0770
     35 H12         5.4627    4.3534    2.8370 H         1 <0>         0.0647
     36 H13         7.0364    4.5762    4.7403 H         1 <0>         0.0658
     37 H14         7.6362    5.4492    3.3098 H         1 <0>         0.0625
     38 H15         6.1283    6.6954    5.6529 H         1 <0>         0.0641
     39 H16         7.8790    6.8248    5.3586 H         1 <0>         0.0637
     40 H17         6.6865    8.8352    4.5310 H         1 <0>         0.0660
     41 H18         7.4319    7.9363    3.1876 H         1 <0>         0.0625
     42 H19         5.1128    8.6124    2.6277 H         1 <0>         0.0624
     43 H20         4.5129    7.7393    4.0582 H         1 <0>         0.0789
@<TRIPOS>BOND
     1    1    6 ar
     2    1    2 ar
     3    1   25 1
     4    2    3 ar
     5    2    9 1
     6    3    4 ar
     7    3   26 1
     8    4    5 ar
     9    4    8 1
    10    5    6 ar
    11    5   27 1
    12    6    7 1
    13    9   10 am
    14    9   28 1
    15   10   11 2
    16   10   12 1
    17   12   13 1
    18   12   18 1
    19   12   14 1
    20   14   15 1
    21   14   29 1
    22   14   30 1
    23   15   16 2
    24   15   17 am
    25   17   18 1
    26   17   19 1
    27   18   31 1
    28   18   32 1
    29   19   24 1
    30   19   20 1
    31   19   33 1
    32   20   21 1
    33   20   34 1
    34   20   35 1
    35   21   22 1
    36   21   36 1
    37   21   37 1
    38   22   23 1
    39   22   38 1
    40   22   39 1
    41   23   24 1
    42   23   40 1
    43   23   41 1
    44   24   42 1
    45   24   43 1
@<TRIPOS>MOLECULE
ZINC01103944
   43    45     0     0     0
SMALL
USER_CHARGES

@<TRIPOS>ATOM
      1 C1          2.1320    1.4020    0.7463 C.ar      1 <0>        -0.1106
      2 C2          1.1765    2.0875    0.0078 C.ar      1 <0>         0.1726
      3 C3          0.2365    1.3822   -0.7317 C.ar      1 <0>        -0.1332
      4 C4          0.2539   -0.0001   -0.7311 C.ar      1 <0>        -0.0035
      5 C5          1.2068   -0.6809    0.0060 C.ar      1 <0>        -0.1167
      6 C6          2.1450    0.0197    0.7435 C.ar      1 <0>        -0.0034
      7 Cl1         3.3395   -0.8382    1.6661 Cl        1 <0>        -0.0464
      8 Cl2        -0.9210   -0.8826   -1.6554 Cl        1 <0>        -0.0472
      9 N1          1.1608    3.4866    0.0092 N.am      1 <0>        -0.6681
     10 C7          2.3166    4.1735    0.1036 C.2       1 <0>         0.5291
     11 O1          3.3758    3.5828    0.0909 O.2       1 <0>        -0.5027
     12 C8          2.2928    5.6754    0.2250 C.3       1 <0>        -0.1227
     13 H1          1.7380    5.9844    1.1108 H         1 <0>         0.1271
     14 C9          1.7060    6.3243   -1.0500 C.3       1 <0>        -0.1494
     15 C10         2.5259    7.5819   -1.2372 C.2       1 <0>         0.5211
     16 O2          2.2159    8.5137   -1.9490 O.2       1 <0>        -0.5183
     17 N2          3.6477    7.5164   -0.4996 N.am      1 <0>        -0.6156
     18 C11         3.7261    6.2514    0.2415 C.3       1 <0>         0.1167
     19 C12         4.6618    8.5722   -0.4418 C.3       1 <0>         0.1615
     20 C13         4.0258    9.8622    0.0799 C.3       1 <0>        -0.1335
     21 C14         5.0848   10.9648    0.1403 C.3       1 <0>        -0.1151
     22 C15         5.6508   11.2055   -1.2607 C.3       1 <0>        -0.1233
     23 C16         6.2868    9.9155   -1.7824 C.3       1 <0>        -0.1151
     24 C17         5.2277    8.8129   -1.8428 C.3       1 <0>        -0.1346
     25 H2          2.8670    1.9483    1.3188 H         1 <0>         0.1530
     26 H3         -0.5079    1.9130   -1.3067 H         1 <0>         0.1454
     27 H4          1.2183   -1.7608    0.0058 H         1 <0>         0.1478
     28 H5          0.3181    3.9623   -0.0577 H         1 <0>         0.4186
     29 H6          1.8256    5.6600   -1.9058 H         1 <0>         0.1097
     30 H7          0.6550    6.5726   -0.9025 H         1 <0>         0.1138
     31 H8          4.0476    6.4336    1.2670 H         1 <0>         0.0887
     32 H9          4.4138    5.5661   -0.2540 H         1 <0>         0.0931
     33 H10         5.4662    8.2671    0.2275 H         1 <0>         0.0894
     34 H11         3.2214   10.1673   -0.5894 H         1 <0>         0.0792
     35 H12         3.6226    9.6907    1.0780 H         1 <0>         0.0628
     36 H13         4.6318   11.8838    0.5120 H         1 <0>         0.0665
     37 H14         5.8892   10.6597    0.8096 H         1 <0>         0.0628
     38 H15         4.8464   11.5106   -1.9300 H         1 <0>         0.0646
     39 H16         6.4053   11.9910   -1.2177 H         1 <0>         0.0641
     40 H17         6.6900   10.0870   -2.7805 H         1 <0>         0.0666
     41 H18         7.0912    9.6104   -1.1131 H         1 <0>         0.0629
     42 H19         5.6808    7.8939   -2.2145 H         1 <0>         0.0633
     43 H20         4.4233    9.1180   -2.5121 H         1 <0>         0.0793
@<TRIPOS>BOND
     1    1    6 ar
     2    1    2 ar
     3    1   25 1
     4    2    3 ar
     5    2    9 1
     6    3    4 ar
     7    3   26 1
     8    4    5 ar
     9    4    8 1
    10    5    6 ar
    11    5   27 1
    12    6    7 1
    13    9   10 am
    14    9   28 1
    15   10   11 2
    16   10   12 1
    17   12   13 1
    18   12   18 1
    19   12   14 1
    20   14   15 1
    21   14   29 1
    22   14   30 1
    23   15   16 2
    24   15   17 am
    25   17   18 1
    26   17   19 1
    27   18   31 1
    28   18   32 1
    29   19   24 1
    30   19   20 1
    31   19   33 1
    32   20   21 1
    33   20   34 1
    34   20   35 1
    35   21   22 1
    36   21   36 1
    37   21   37 1
    38   22   23 1
    39   22   38 1
    40   22   39 1
    41   23   24 1
    42   23   40 1
    43   23   41 1
    44   24   42 1
    45   24   43 1
@<TRIPOS>MOLECULE
ZINC04814419
   47    50     0     0     0
SMALL
USER_CHARGES

@<TRIPOS>ATOM
      1 C1          2.0791   -4.6176    1.3213 C.ar      1 <0>        -0.1368
      2 C2          3.1347   -4.5343    0.4318 C.ar      1 <0>        -0.0942
      3 C3          3.7435   -3.3217    0.1892 C.ar      1 <0>        -0.1287
      4 C4          3.2996   -2.1684    0.8392 C.ar      1 <0>         0.1393
      5 C5          2.2410   -2.2624    1.7282 C.ar      1 <0>        -0.1357
      6 C6          1.6337   -3.4802    1.9683 C.ar      1 <0>        -0.0801
      7 C7          1.9599   -0.8866    2.2892 C.3       1 <0>        -0.0866
      8 C8          2.9942    0.0267    1.6111 C.3       1 <0>         0.0969
      9 N1          3.7718   -0.8561    0.7373 N.am      1 <0>        -0.5518
     10 C9          4.7929   -0.4612   -0.0488 C.2       1 <0>         0.5366
     11 O1          5.4346   -1.2833   -0.6680 O.2       1 <0>        -0.5065
     12 C10         5.1373    1.0018   -0.1584 C.3       1 <0>        -0.1206
     13 H1          4.7824    1.5504    0.7141 H         1 <0>         0.1141
     14 C11         4.5686    1.6080   -1.4622 C.3       1 <0>        -0.1403
     15 C12         5.6317    2.5863   -1.9111 C.2       1 <0>         0.5237
     16 O2          5.4648    3.4669   -2.7281 O.2       1 <0>        -0.5185
     17 N2          6.7879    2.3377   -1.2722 N.am      1 <0>        -0.6149
     18 C13         6.6568    1.1989   -0.3549 C.3       1 <0>         0.1165
     19 C14         8.0208    3.1051   -1.4657 C.3       1 <0>         0.1617
     20 C15         7.7737    4.5690   -1.0955 C.3       1 <0>        -0.1335
     21 C16         9.0612    5.3704   -1.2976 C.3       1 <0>        -0.1148
     22 C17         9.4931    5.2808   -2.7626 C.3       1 <0>        -0.1233
     23 C18         9.7402    3.8170   -3.1328 C.3       1 <0>        -0.1148
     24 C19         8.4527    3.0155   -2.9308 C.3       1 <0>        -0.1351
     25 H2          1.6011   -5.5682    1.5067 H         1 <0>         0.1281
     26 H3          3.4835   -5.4224   -0.0743 H         1 <0>         0.1292
     27 H4          4.5676   -3.2634   -0.5064 H         1 <0>         0.1385
     28 H5          0.8095   -3.5435    2.6633 H         1 <0>         0.1267
     29 H6          0.9484   -0.5711    2.0333 H         1 <0>         0.0940
     30 H7          2.0988   -0.8812    3.3703 H         1 <0>         0.0938
     31 H8          2.4923    0.7947    1.0226 H         1 <0>         0.0875
     32 H9          3.6418    0.4848    2.3586 H         1 <0>         0.0873
     33 H10         4.4238    0.8310   -2.2128 H         1 <0>         0.1110
     34 H11         3.6311    2.1277   -1.2641 H         1 <0>         0.1112
     35 H12         7.1343    1.4247    0.5985 H         1 <0>         0.0866
     36 H13         7.0989    0.3059   -0.7968 H         1 <0>         0.0923
     37 H14         8.8063    2.6971   -0.8297 H         1 <0>         0.0887
     38 H15         6.9881    4.9770   -1.7315 H         1 <0>         0.0794
     39 H16         7.4660    4.6328   -0.0518 H         1 <0>         0.0626
     40 H17         8.8852    6.4133   -1.0338 H         1 <0>         0.0665
     41 H18         9.8468    4.9624   -0.6616 H         1 <0>         0.0625
     42 H19         8.7076    5.6888   -3.3986 H         1 <0>         0.0647
     43 H20        10.4104    5.8518   -2.9066 H         1 <0>         0.0640
     44 H21        10.0479    3.7531   -4.1765 H         1 <0>         0.0666
     45 H22        10.5258    3.4090   -2.4968 H         1 <0>         0.0626
     46 H23         8.6287    1.9727   -3.1945 H         1 <0>         0.0637
     47 H24         7.6671    3.4235   -3.5668 H         1 <0>         0.0796
@<TRIPOS>BOND
     1    1    6 ar
     2    1    2 ar
     3    1   25 1
     4    2    3 ar
     5    2   26 1
     6    3    4 ar
     7    3   27 1
     8    4    9 1
     9    4    5 ar
    10    5    6 ar
    11    5    7 1
    12    6   28 1
    13    7    8 1
    14    7   29 1
    15    7   30 1
    16    8    9 1
    17    8   31 1
    18    8   32 1
    19    9   10 am
    20   10   11 2
    21   10   12 1
    22   12   13 1
    23   12   18 1
    24   12   14 1
    25   14   15 1
    26   14   33 1
    27   14   34 1
    28   15   16 2
    29   15   17 am
    30   17   18 1
    31   17   19 1
    32   18   35 1
    33   18   36 1
    34   19   24 1
    35   19   20 1
    36   19   37 1
    37   20   21 1
    38   20   38 1
    39   20   39 1
    40   21   22 1
    41   21   40 1
    42   21   41 1
    43   22   23 1
    44   22   42 1
    45   22   43 1
    46   23   24 1
    47   23   44 1
    48   23   45 1
    49   24   46 1
    50   24   47 1
@<TRIPOS>MOLECULE
ZINC04814420
   47    50     0     0     0
SMALL
USER_CHARGES

@<TRIPOS>ATOM
      1 C1          2.2172   -4.8223   -0.9785 C.ar      1 <0>        -0.1376
      2 C2          3.4251   -4.6592   -0.3251 C.ar      1 <0>        -0.0941
      3 C3          3.9657   -3.4008   -0.1700 C.ar      1 <0>        -0.1291
      4 C4          3.2984   -2.2812   -0.6710 C.ar      1 <0>         0.1407
      5 C5          2.0891   -2.4553   -1.3244 C.ar      1 <0>        -0.1369
      6 C6          1.5510   -3.7188   -1.4776 C.ar      1 <0>        -0.0801
      7 C7          1.5806   -1.1010   -1.7647 C.3       1 <0>        -0.0865
      8 C8          2.6523   -0.1096   -1.2827 C.3       1 <0>         0.0974
      9 N1          3.6679   -0.9334   -0.6214 N.am      1 <0>        -0.5536
     10 C9          4.7929   -0.4612   -0.0488 C.2       1 <0>         0.5291
     11 O1          5.5280   -1.2137    0.5548 O.2       1 <0>        -0.5004
     12 C10         5.1373    1.0018   -0.1584 C.3       1 <0>        -0.1224
     13 H1          4.6596    1.4487   -1.0302 H         1 <0>         0.1213
     14 C11         4.7513    1.7594    1.1332 C.3       1 <0>        -0.1414
     15 C12         6.0150    1.7427    1.9648 C.2       1 <0>         0.5230
     16 O2          6.0678    1.9801    3.1529 O.2       1 <0>        -0.5213
     17 N2          7.0706    1.4260    1.1952 N.am      1 <0>        -0.6089
     18 C13         6.6677    1.2079   -0.2001 C.3       1 <0>         0.1225
     19 C14         8.4466    1.3130    1.6854 C.3       1 <0>         0.1650
     20 C15         8.5165    0.2298    2.7637 C.3       1 <0>        -0.1331
     21 C16         9.9535    0.1118    3.2756 C.3       1 <0>        -0.1147
     22 C17        10.3952    1.4511    3.8687 C.3       1 <0>        -0.1230
     23 C18        10.3253    2.5343    2.7904 C.3       1 <0>        -0.1143
     24 C19         8.8884    2.6524    2.2785 C.3       1 <0>        -0.1337
     25 H2          1.7977   -5.8098   -1.1024 H         1 <0>         0.1279
     26 H3          3.9465   -5.5207    0.0652 H         1 <0>         0.1286
     27 H4          4.9091   -3.2802    0.3416 H         1 <0>         0.1376
     28 H5          0.6076   -3.8444   -1.9881 H         1 <0>         0.1265
     29 H6          1.4890   -1.0637   -2.8502 H         1 <0>         0.0936
     30 H7          0.6220   -0.8833   -1.2937 H         1 <0>         0.0935
     31 H8          3.0875    0.4187   -2.1309 H         1 <0>         0.0873
     32 H9          2.2212    0.5990   -0.5756 H         1 <0>         0.0868
     33 H10         4.4604    2.7841    0.9019 H         1 <0>         0.1199
     34 H11         3.9456    1.2412    1.6532 H         1 <0>         0.1035
     35 H12         7.1571    0.3199   -0.6002 H         1 <0>         0.0869
     36 H13         6.9145    2.0804   -0.8050 H         1 <0>         0.0862
     37 H14         9.1058    1.0463    0.8593 H         1 <0>         0.0864
     38 H15         7.8573    0.4965    3.5898 H         1 <0>         0.0769
     39 H16         8.2017   -0.7244    2.3412 H         1 <0>         0.0668
     40 H17        10.0032   -0.6599    4.0438 H         1 <0>         0.0654
     41 H18        10.6127   -0.1549    2.4495 H         1 <0>         0.0616
     42 H19         9.7360    1.7178    4.6948 H         1 <0>         0.0642
     43 H20        11.4190    1.3670    4.2334 H         1 <0>         0.0632
     44 H21        10.6401    3.4885    3.2129 H         1 <0>         0.0658
     45 H22        10.9846    2.2676    1.9643 H         1 <0>         0.0620
     46 H23         8.8386    3.4240    1.5103 H         1 <0>         0.0621
     47 H24         8.2291    2.9190    3.1046 H         1 <0>         0.0791
@<TRIPOS>BOND
     1    1    6 ar
     2    1    2 ar
     3    1   25 1
     4    2    3 ar
     5    2   26 1
     6    3    4 ar
     7    3   27 1
     8    4    9 1
     9    4    5 ar
    10    5    6 ar
    11    5    7 1
    12    6   28 1
    13    7    8 1
    14    7   29 1
    15    7   30 1
    16    8    9 1
    17    8   31 1
    18    8   32 1
    19    9   10 am
    20   10   11 2
    21   10   12 1
    22   12   13 1
    23   12   18 1
    24   12   14 1
    25   14   15 1
    26   14   33 1
    27   14   34 1
    28   15   16 2
    29   15   17 am
    30   17   18 1
    31   17   19 1
    32   18   35 1
    33   18   36 1
    34   19   24 1
    35   19   20 1
    36   19   37 1
    37   20   21 1
    38   20   38 1
    39   20   39 1
    40   21   22 1
    41   21   40 1
    42   21   41 1
    43   22   23 1
    44   22   42 1
    45   22   43 1
    46   23   24 1
    47   23   44 1
    48   23   45 1
    49   24   46 1
    50   24   47 1
@<TRIPOS>MOLECULE
ZINC00309761
   43    45     0     0     0
SMALL
USER_CHARGES
N-(3-chlorophenyl)-1-cyclohexyl-5-oxo-pyrrolidine-3-carboxamide
@<TRIPOS>ATOM
      1 C1         -1.1598    3.6488    0.6558 C.ar      1 <0>        -0.0878
      2 C2          0.0245    4.3599    0.6420 C.ar      1 <0>        -0.1159
      3 C3          1.1456    3.8276    0.0191 C.ar      1 <0>         0.1535
      4 C4          1.0728    2.5810   -0.5886 C.ar      1 <0>        -0.1362
      5 C5         -0.1147    1.8742   -0.5716 C.ar      1 <0>        -0.0169
      6 C6         -1.2315    2.4104    0.0458 C.ar      1 <0>        -0.1221
      7 Cl1        -0.2075    0.3160   -1.3312 Cl        1 <0>        -0.0626
      8 N1          2.3464    4.5457    0.0041 N.am      1 <0>        -0.6689
      9 C7          2.3265    5.8900   -0.0907 C.2       1 <0>         0.5296
     10 O1          1.2687    6.4833   -0.0784 O.2       1 <0>        -0.5079
     11 C8          3.6187    6.6560   -0.2120 C.3       1 <0>        -0.1228
     12 H1          4.2399    6.5114    0.6719 H         1 <0>         0.1259
     13 C9          4.3812    6.2551   -1.4960 C.3       1 <0>        -0.1488
     14 C10         4.9979    7.5487   -1.9805 C.2       1 <0>         0.5209
     15 O2          5.8962    7.6292   -2.7913 O.2       1 <0>        -0.5188
     16 N2          4.4059    8.5961   -1.3810 N.am      1 <0>        -0.6160
     17 C11         3.3504    8.1569   -0.4606 C.3       1 <0>         0.1179
     18 C12         4.7680    9.9961   -1.6157 C.3       1 <0>         0.1616
     19 C13         4.5675   10.3337   -3.0944 C.3       1 <0>        -0.1347
     20 C14         4.9457   11.7958   -3.3396 C.3       1 <0>        -0.1150
     21 C15         6.4121   12.0136   -2.9610 C.3       1 <0>        -0.1233
     22 C16         6.6126   11.6760   -1.4822 C.3       1 <0>        -0.1150
     23 C17         6.2344   10.2139   -1.2371 C.3       1 <0>        -0.1335
     24 H2         -2.0318    4.0628    1.1403 H         1 <0>         0.1380
     25 H3          0.0784    5.3290    1.1156 H         1 <0>         0.1459
     26 H4          1.9430    2.1646   -1.0742 H         1 <0>         0.1376
     27 H5         -2.1598    1.8584    0.0541 H         1 <0>         0.1362
     28 H6          3.1931    4.0761    0.0619 H         1 <0>         0.4156
     29 H7          5.1574    5.5250   -1.2665 H         1 <0>         0.1131
     30 H8          3.6916    5.8586   -2.2412 H         1 <0>         0.1093
     31 H9          2.3703    8.2942   -0.9176 H         1 <0>         0.0918
     32 H10         3.4117    8.7112    0.4758 H         1 <0>         0.0883
     33 H11         4.1357   10.6420   -1.0065 H         1 <0>         0.0892
     34 H12         5.1998    9.6878   -3.7036 H         1 <0>         0.0793
     35 H13         3.5229   10.1785   -3.3641 H         1 <0>         0.0632
     36 H14         4.3134   12.4417   -2.7304 H         1 <0>         0.0628
     37 H15         4.8029   12.0363   -4.3930 H         1 <0>         0.0665
     38 H16         6.6815   13.0553   -3.1356 H         1 <0>         0.0641
     39 H17         7.0444   11.3677   -3.5701 H         1 <0>         0.0646
     40 H18         5.9803   12.3219   -0.8731 H         1 <0>         0.0627
     41 H19         7.6572   11.8312   -1.2125 H         1 <0>         0.0665
     42 H20         6.3772    9.9734   -0.1836 H         1 <0>         0.0628
     43 H21         6.8667    9.5680   -1.8462 H         1 <0>         0.0791
@<TRIPOS>BOND
     1    1    6 ar
     2    1    2 ar
     3    1   24 1
     4    2    3 ar
     5    2   25 1
     6    3    4 ar
     7    3    8 1
     8    4    5 ar
     9    4   26 1
    10    5    6 ar
    11    5    7 1
    12    6   27 1
    13    8    9 am
    14    8   28 1
    15    9   10 2
    16    9   11 1
    17   11   12 1
    18   11   17 1
    19   11   13 1
    20   13   14 1
    21   13   29 1
    22   13   30 1
    23   14   15 2
    24   14   16 am
    25   16   17 1
    26   16   18 1
    27   17   31 1
    28   17   32 1
    29   18   23 1
    30   18   19 1
    31   18   33 1
    32   19   20 1
    33   19   34 1
    34   19   35 1
    35   20   21 1
    36   20   36 1
    37   20   37 1
    38   21   22 1
    39   21   38 1
    40   21   39 1
    41   22   23 1
    42   22   40 1
    43   22   41 1
    44   23   42 1
    45   23   43 1
@<TRIPOS>MOLECULE
ZINC00309764
   43    45     0     0     0
SMALL
USER_CHARGES
N-(3-chlorophenyl)-1-cyclohexyl-5-oxo-pyrrolidine-3-carboxamide
@<TRIPOS>ATOM
      1 C1         -1.1596    3.6496    0.6568 C.ar      1 <0>        -0.0875
      2 C2          0.0249    4.3603    0.6426 C.ar      1 <0>        -0.1155
      3 C3          1.1456    3.8277    0.0193 C.ar      1 <0>         0.1547
      4 C4          1.0722    2.5811   -0.5883 C.ar      1 <0>        -0.1365
      5 C5         -0.1155    1.8746   -0.5709 C.ar      1 <0>        -0.0168
      6 C6         -1.2320    2.4112    0.0468 C.ar      1 <0>        -0.1223
      7 Cl1        -0.2092    0.3164   -1.3305 Cl        1 <0>        -0.0630
      8 N1          2.3464    4.5457    0.0031 N.am      1 <0>        -0.6704
      9 C7          2.3264    5.8900   -0.0916 C.2       1 <0>         0.5235
     10 O1          1.2686    6.4833   -0.0785 O.2       1 <0>        -0.5048
     11 C8          3.6185    6.6560   -0.2139 C.3       1 <0>        -0.1247
     12 H1          4.1718    6.3448   -1.0999 H         1 <0>         0.1326
     13 C9          4.4793    6.4961    1.0606 C.3       1 <0>        -0.1492
     14 C10         4.1019    7.6863    1.9149 C.2       1 <0>         0.5165
     15 O2          4.3347    7.7920    3.1005 O.2       1 <0>        -0.5208
     16 N2          3.4719    8.6098    1.1686 N.am      1 <0>        -0.6113
     17 C11         3.3589    8.1788   -0.2308 C.3       1 <0>         0.1151
     18 C12         2.9631    9.8830    1.6848 C.3       1 <0>         0.1638
     19 C13         4.1206   10.6957    2.2684 C.3       1 <0>        -0.1337
     20 C14         3.5892   12.0254    2.8075 C.3       1 <0>        -0.1147
     21 C15         2.5536   11.7551    3.9008 C.3       1 <0>        -0.1230
     22 C16         1.3961   10.9423    3.3172 C.3       1 <0>        -0.1147
     23 C17         1.9275    9.6127    2.7781 C.3       1 <0>        -0.1334
     24 H2         -2.0314    4.0640    1.1413 H         1 <0>         0.1375
     25 H3          0.0791    5.3297    1.1156 H         1 <0>         0.1445
     26 H4          1.9421    2.1644   -1.0742 H         1 <0>         0.1375
     27 H5         -2.1605    1.8596    0.0555 H         1 <0>         0.1362
     28 H6          3.1932    4.0761    0.0601 H         1 <0>         0.4147
     29 H7          4.2336    5.5658    1.5727 H         1 <0>         0.1046
     30 H8          5.5399    6.5267    0.8110 H         1 <0>         0.1208
     31 H9          4.1076    8.6822   -0.8424 H         1 <0>         0.0851
     32 H10         2.3586    8.3867   -0.6106 H         1 <0>         0.0991
     33 H11         2.4978   10.4437    0.8742 H         1 <0>         0.0882
     34 H12         4.5859   10.1349    3.0790 H         1 <0>         0.0789
     35 H13         4.8584   10.8883    1.4895 H         1 <0>         0.0625
     36 H14         3.1239   12.5862    1.9969 H         1 <0>         0.0625
     37 H15         4.4138   12.6044    3.2233 H         1 <0>         0.0661
     38 H16         2.1751   12.7024    4.2849 H         1 <0>         0.0637
     39 H17         3.0189   11.1943    4.7114 H         1 <0>         0.0641
     40 H18         0.9308   11.5031    2.5066 H         1 <0>         0.0625
     41 H19         0.6583   10.7498    4.0961 H         1 <0>         0.0657
     42 H20         1.1029    9.0337    2.3623 H         1 <0>         0.0646
     43 H21         2.3928    9.0519    3.5887 H         1 <0>         0.0769
@<TRIPOS>BOND
     1    1    6 ar
     2    1    2 ar
     3    1   24 1
     4    2    3 ar
     5    2   25 1
     6    3    4 ar
     7    3    8 1
     8    4    5 ar
     9    4   26 1
    10    5    6 ar
    11    5    7 1
    12    6   27 1
    13    8    9 am
    14    8   28 1
    15    9   10 2
    16    9   11 1
    17   11   12 1
    18   11   17 1
    19   11   13 1
    20   13   14 1
    21   13   29 1
    22   13   30 1
    23   14   15 2
    24   14   16 am
    25   16   17 1
    26   16   18 1
    27   17   31 1
    28   17   32 1
    29   18   23 1
    30   18   19 1
    31   18   33 1
    32   19   20 1
    33   19   34 1
    34   19   35 1
    35   20   21 1
    36   20   36 1
    37   20   37 1
    38   21   22 1
    39   21   38 1
    40   21   39 1
    41   22   23 1
    42   22   40 1
    43   22   41 1
    44   23   42 1
    45   23   43 1
@<TRIPOS>MOLECULE
ZINC00210352
   41    43     0     0     0
SMALL
USER_CHARGES
[4-(3-chlorophenyl)piperazin-1-yl]-(m-tolyl)methanone
@<TRIPOS>ATOM
      1 C1         -1.7915    0.9719   -1.7044 C.3       1 <0>        -0.1175
      2 C2         -0.8772    1.7481   -0.7919 C.ar      1 <0>        -0.0887
      3 C3         -0.0170    1.0758    0.0584 C.ar      1 <0>        -0.0966
      4 C4          0.8292    1.7808    0.8954 C.ar      1 <0>        -0.1200
      5 C5          0.8172    3.1605    0.8907 C.ar      1 <0>        -0.0987
      6 C6         -0.0516    3.8447    0.0394 C.ar      1 <0>        -0.1285
      7 C7         -0.9033    3.1272   -0.8023 C.ar      1 <0>        -0.0670
      8 C8         -0.0702    5.3230    0.0294 C.2       1 <0>         0.5640
      9 O1         -1.1267    5.9169   -0.0639 O.2       1 <0>        -0.5301
     10 N1          1.0842    6.0122    0.1239 N.am      1 <0>        -0.6120
     11 C9          2.3807    5.3177    0.1165 C.3       1 <0>         0.1018
     12 C10         3.2762    5.9799   -0.9426 C.3       1 <0>         0.0414
     13 N2          3.3472    7.4240   -0.6827 N.pl3     1 <0>        -0.4864
     14 C11         2.0272    8.0548   -0.8151 C.3       1 <0>         0.0363
     15 C12         1.0807    7.4781    0.2431 C.3       1 <0>         0.1154
     16 C13         4.2816    8.0379   -1.5199 C.ar      1 <0>         0.1238
     17 C14         3.8974    9.0962   -2.3341 C.ar      1 <0>        -0.1674
     18 C15         4.8244    9.7048   -3.1569 C.ar      1 <0>        -0.0780
     19 C16         6.1320    9.2553   -3.1797 C.ar      1 <0>        -0.1364
     20 C17         6.5174    8.1982   -2.3741 C.ar      1 <0>        -0.0085
     21 C18         5.5952    7.5882   -1.5443 C.ar      1 <0>        -0.1333
     22 Cl1         8.1599    7.6373   -2.4060 Cl        1 <0>        -0.0651
     23 H1         -2.7360    0.7806   -1.1952 H         1 <0>         0.0746
     24 H2         -1.9773    1.5497   -2.6097 H         1 <0>         0.0690
     25 H3         -1.3224    0.0240   -1.9681 H         1 <0>         0.0700
     26 H4         -0.0032   -0.0041    0.0654 H         1 <0>         0.1284
     27 H5          1.5011    1.2501    1.5537 H         1 <0>         0.1313
     28 H6          1.4788    3.7098    1.5441 H         1 <0>         0.1310
     29 H7         -1.5782    3.6508   -1.4632 H         1 <0>         0.1308
     30 H8          2.8465    5.4014    1.0984 H         1 <0>         0.0839
     31 H9          2.2319    4.2671   -0.1329 H         1 <0>         0.1047
     32 H10         2.8583    5.8090   -1.9347 H         1 <0>         0.0533
     33 H11         4.2770    5.5513   -0.8903 H         1 <0>         0.0977
     34 H12         1.6266    7.8550   -1.8090 H         1 <0>         0.0549
     35 H13         2.1221    9.1310   -0.6704 H         1 <0>         0.0995
     36 H14         0.0720    7.8565    0.0773 H         1 <0>         0.1035
     37 H15         1.4206    7.7654    1.2381 H         1 <0>         0.0810
     38 H16         2.8754    9.4452   -2.3204 H         1 <0>         0.1335
     39 H17         4.5267   10.5298   -3.7871 H         1 <0>         0.1341
     40 H18         6.8538    9.7301   -3.8278 H         1 <0>         0.1337
     41 H19         5.8961    6.7632   -0.9157 H         1 <0>         0.1363
@<TRIPOS>BOND
     1    1    2 1
     2    1   23 1
     3    1   24 1
     4    1   25 1
     5    2    7 ar
     6    2    3 ar
     7    3    4 ar
     8    3   26 1
     9    4    5 ar
    10    4   27 1
    11    5    6 ar
    12    5   28 1
    13    6    7 ar
    14    6    8 1
    15    7   29 1
    16    8    9 2
    17    8   10 am
    18   10   15 1
    19   10   11 1
    20   11   12 1
    21   11   30 1
    22   11   31 1
    23   12   13 1
    24   12   32 1
    25   12   33 1
    26   13   14 1
    27   13   16 1
    28   14   15 1
    29   14   34 1
    30   14   35 1
    31   15   36 1
    32   15   37 1
    33   16   21 ar
    34   16   17 ar
    35   17   18 ar
    36   17   38 1
    37   18   19 ar
    38   18   39 1
    39   19   20 ar
    40   19   40 1
    41   20   21 ar
    42   20   22 1
    43   21   41 1
@<TRIPOS>MOLECULE
ZINC00288381
   44    46     0     0     0
SMALL
USER_CHARGES

@<TRIPOS>ATOM
      1 C1         -0.1339    1.4845    0.0311 C.3       1 <0>        -0.1230
      2 C2         -0.0833   -0.0216    0.0199 C.ar      1 <0>        -0.0601
      3 C3         -0.8175   -0.7286   -0.9161 C.ar      1 <0>        -0.1233
      4 C4         -0.7753   -2.1072   -0.9321 C.ar      1 <0>        -0.0992
      5 C5          0.0105   -2.7892   -0.0014 C.ar      1 <0>        -0.1362
      6 C6          0.7485   -2.0702    0.9398 C.ar      1 <0>        -0.0588
      7 C7          0.7015   -0.6912    0.9416 C.ar      1 <0>        -0.0910
      8 C8          1.5023    0.0871    1.9536 C.3       1 <0>        -0.1188
      9 C9          0.0601   -4.2668   -0.0125 C.2       1 <0>         0.5637
     10 O1          0.1898   -4.8783    1.0300 O.2       1 <0>        -0.5311
     11 N1         -0.0384   -4.9356   -1.1784 N.am      1 <0>        -0.6074
     12 C10        -0.0690   -4.2106   -2.4564 C.3       1 <0>         0.0733
     13 C11         1.0514   -4.7513   -3.3535 C.3       1 <0>         0.1062
     14 N2          0.9731   -6.2187   -3.3697 N.pl3     1 <0>        -0.6267
     15 C12         1.0036   -6.9438   -2.0917 C.3       1 <0>         0.1058
     16 C13        -0.1110   -6.4034   -1.1949 C.3       1 <0>         0.0963
     17 C14         0.8710   -6.9119   -4.5779 C.ar      1 <0>         0.2318
     18 C15         0.9705   -6.2281   -5.7833 C.ar      1 <0>        -0.1962
     19 C16         0.8697   -6.9159   -6.9765 C.ar      1 <0>        -0.0564
     20 C17         0.6694   -8.2841   -6.9732 C.ar      1 <0>        -0.1703
     21 C18         0.5697   -8.9688   -5.7748 C.ar      1 <0>         0.0167
     22 C19         0.6755   -8.2868   -4.5770 C.ar      1 <0>        -0.1941
     23 Cl1         0.3176  -10.6864   -5.7755 Cl        1 <0>        -0.0696
     24 H1          0.6472    1.8791   -0.6187 H         1 <0>         0.0760
     25 H2         -1.1077    1.8180   -0.3274 H         1 <0>         0.0703
     26 H3          0.0222    1.8457    1.0476 H         1 <0>         0.0728
     27 H4         -1.4253   -0.1997   -1.6353 H         1 <0>         0.1306
     28 H5         -1.3491   -2.6578   -1.6629 H         1 <0>         0.1350
     29 H6          1.3584   -2.5918    1.6625 H         1 <0>         0.1323
     30 H7          0.9020    0.2429    2.8499 H         1 <0>         0.0744
     31 H8          2.4024   -0.4709    2.2115 H         1 <0>         0.0693
     32 H9          1.7818    1.0523    1.5312 H         1 <0>         0.0720
     33 H10        -1.0328   -4.3649   -2.9416 H         1 <0>         0.0780
     34 H11         0.0871   -3.1468   -2.2773 H         1 <0>         0.1149
     35 H12         0.9268   -4.3671   -4.3659 H         1 <0>         0.0984
     36 H13         2.0185   -4.4409   -2.9582 H         1 <0>         0.0705
     37 H14         0.8476   -8.0076   -2.2708 H         1 <0>         0.0979
     38 H15         1.9674   -6.7895   -1.6065 H         1 <0>         0.0711
     39 H16         0.0172   -6.7874   -0.1828 H         1 <0>         0.1060
     40 H17        -1.0779   -6.7174   -1.5882 H         1 <0>         0.0749
     41 H18         1.1263   -5.1594   -5.7871 H         1 <0>         0.1286
     42 H19         0.9471   -6.3844   -7.9135 H         1 <0>         0.1320
     43 H20         0.5902   -8.8194   -7.9079 H         1 <0>         0.1302
     44 H21         0.6021   -8.8218   -3.6417 H         1 <0>         0.1333
@<TRIPOS>BOND
     1    1    2 1
     2    1   24 1
     3    1   25 1
     4    1   26 1
     5    2    7 ar
     6    2    3 ar
     7    3    4 ar
     8    3   27 1
     9    4    5 ar
    10    4   28 1
    11    5    6 ar
    12    5    9 1
    13    6    7 ar
    14    6   29 1
    15    7    8 1
    16    8   30 1
    17    8   31 1
    18    8   32 1
    19    9   10 2
    20    9   11 am
    21   11   16 1
    22   11   12 1
    23   12   13 1
    24   12   33 1
    25   12   34 1
    26   13   14 1
    27   13   35 1
    28   13   36 1
    29   14   15 1
    30   14   17 1
    31   15   16 1
    32   15   37 1
    33   15   38 1
    34   16   39 1
    35   16   40 1
    36   17   22 ar
    37   17   18 ar
    38   18   19 ar
    39   18   41 1
    40   19   20 ar
    41   19   42 1
    42   20   21 ar
    43   20   43 1
    44   21   22 ar
    45   21   23 1
    46   22   44 1
@<TRIPOS>MOLECULE
ZINC00047043
   38    40     0     0     0
SMALL
USER_CHARGES
[4-(3-chlorophenyl)piperazin-1-yl]-(4-fluorophenyl)-methanone
@<TRIPOS>ATOM
      1 C1          0.7919    2.4107   -3.8658 C.ar      1 <0>        -0.0797
      2 C2         -0.1676    1.8037   -3.0790 C.ar      1 <0>        -0.1356
      3 C3         -1.4286    2.3737   -2.9596 C.ar      1 <0>         0.1231
      4 C4         -1.7178    3.5587   -3.6244 C.ar      1 <0>        -0.1646
      5 C5         -0.7537    4.1611   -4.4101 C.ar      1 <0>        -0.0070
      6 C6          0.5002    3.5871   -4.5307 C.ar      1 <0>        -0.1360
      7 Cl1        -1.1154    5.6385   -5.2468 Cl        1 <0>        -0.0668
      8 N1         -2.4025    1.7590   -2.1693 N.pl3     1 <0>        -0.4850
      9 C7         -2.6242    0.3699   -2.5926 C.3       1 <0>         0.0432
     10 C8         -3.5595   -0.3214   -1.5949 C.3       1 <0>         0.1152
     11 N2         -4.7790    0.4894   -1.4587 N.am      1 <0>        -0.6112
     12 C9         -4.6321    1.9241   -1.1701 C.3       1 <0>         0.0955
     13 C10        -3.6546    2.5271   -2.1845 C.3       1 <0>         0.0314
     14 C11        -5.9988   -0.0676   -1.5942 C.2       1 <0>         0.5654
     15 O1         -6.1015   -1.2331   -1.9244 O.2       1 <0>        -0.5280
     16 C12        -7.2109    0.7381   -1.3415 C.ar      1 <0>        -0.1472
     17 C13        -7.1980    1.7360   -0.3647 C.ar      1 <0>        -0.0664
     18 C14        -8.3299    2.4890   -0.1373 C.ar      1 <0>        -0.1602
     19 C15        -9.4837    2.2489   -0.8679 C.ar      1 <0>         0.1265
     20 C16        -9.5037    1.2555   -1.8350 C.ar      1 <0>        -0.1585
     21 C17        -8.3755    0.5008   -2.0748 C.ar      1 <0>        -0.0321
     22 F1        -10.5922    2.9858   -0.6368 F         1 <0>        -0.1317
     23 H1          1.7711    1.9654   -3.9620 H         1 <0>         0.1361
     24 H2          0.0611    0.8843   -2.5606 H         1 <0>         0.1328
     25 H3         -2.6963    4.0062   -3.5309 H         1 <0>         0.1372
     26 H4          1.2521    4.0592   -5.1458 H         1 <0>         0.1338
     27 H5         -3.0779    0.3597   -3.5837 H         1 <0>         0.0531
     28 H6         -1.6709   -0.1576   -2.6231 H         1 <0>         0.0991
     29 H7         -3.0653   -0.4049   -0.6270 H         1 <0>         0.0821
     30 H8         -3.8193   -1.3150   -1.9602 H         1 <0>         0.1048
     31 H9         -4.2410    2.0565   -0.1613 H         1 <0>         0.0861
     32 H10        -5.6007    2.4163   -1.2578 H         1 <0>         0.1078
     33 H11        -3.4485    3.5640   -1.9190 H         1 <0>         0.1001
     34 H12        -4.0939    2.4868   -3.1812 H         1 <0>         0.0557
     35 H13        -6.3014    1.9203    0.2085 H         1 <0>         0.1464
     36 H14        -8.3196    3.2642    0.6146 H         1 <0>         0.1452
     37 H15       -10.4048    1.0731   -2.4017 H         1 <0>         0.1453
     38 H16        -8.3921   -0.2725   -2.8286 H         1 <0>         0.1442
@<TRIPOS>BOND
     1    1    6 ar
     2    1    2 ar
     3    1   23 1
     4    2    3 ar
     5    2   24 1
     6    3    4 ar
     7    3    8 1
     8    4    5 ar
     9    4   25 1
    10    5    6 ar
    11    5    7 1
    12    6   26 1
    13    8   13 1
    14    8    9 1
    15    9   10 1
    16    9   27 1
    17    9   28 1
    18   10   11 1
    19   10   29 1
    20   10   30 1
    21   11   12 1
    22   11   14 am
    23   12   13 1
    24   12   31 1
    25   12   32 1
    26   13   33 1
    27   13   34 1
    28   14   15 2
    29   14   16 1
    30   16   21 ar
    31   16   17 ar
    32   17   18 ar
    33   17   35 1
    34   18   19 ar
    35   18   36 1
    36   19   20 ar
    37   19   22 1
    38   20   21 ar
    39   20   37 1
    40   21   38 1
@<TRIPOS>MOLECULE
ZINC00673286
   47    49     0     0     0
SMALL
USER_CHARGES
(3,4-dimethylphenyl)-[4-[3-(trifluoromethyl)phenyl]piperazin-1-yl]-methanone
@<TRIPOS>ATOM
      1 C1         -2.6990   10.7614   -5.8163 C.3       1 <0>        -0.1239
      2 C2         -1.8025   10.2724   -4.7080 C.ar      1 <0>        -0.0638
      3 C3         -2.2486    9.2868   -3.8453 C.ar      1 <0>        -0.1194
      4 C4         -1.4312    8.8313   -2.8318 C.ar      1 <0>        -0.0954
      5 C5         -0.1555    9.3748   -2.6708 C.ar      1 <0>        -0.1315
      6 C6          0.2883   10.3686   -3.5443 C.ar      1 <0>        -0.0658
      7 C7         -0.5372   10.8112   -4.5574 C.ar      1 <0>        -0.0882
      8 C8         -0.0597   11.8842   -5.5017 C.3       1 <0>        -0.1203
      9 C9          0.7238    8.8954   -1.5832 C.2       1 <0>         0.5653
     10 O1          1.2729    9.6936   -0.8491 O.2       1 <0>        -0.5291
     11 N1          0.9167    7.5734   -1.4058 N.am      1 <0>        -0.6112
     12 C10         1.8512    7.0772   -0.3842 C.3       1 <0>         0.1159
     13 C11         2.8062    6.0762   -1.0430 C.3       1 <0>         0.0352
     14 N2          2.0255    5.0372   -1.7277 N.pl3     1 <0>        -0.4863
     15 C12         1.2181    5.6068   -2.8148 C.3       1 <0>         0.0411
     16 C13         0.1980    6.5886   -2.2285 C.3       1 <0>         0.1005
     17 C14         2.8551    4.0182   -2.2013 C.ar      1 <0>         0.1120
     18 C15         4.2272    4.0845   -1.9937 C.ar      1 <0>        -0.1398
     19 C16         5.0445    3.0756   -2.4636 C.ar      1 <0>        -0.0900
     20 C17         4.4986    2.0000   -3.1404 C.ar      1 <0>        -0.0987
     21 C18         3.1342    1.9338   -3.3538 C.ar      1 <0>        -0.1555
     22 C19         2.3102    2.9367   -2.8813 C.ar      1 <0>        -0.0915
     23 C20         2.5446    0.7631   -4.0975 C.3       1 <0>         0.5085
     24 F1          3.5672   -0.1168   -4.4681 F         1 <0>        -0.1754
     25 F2          1.6329    0.0971   -3.2715 F         1 <0>        -0.1747
     26 F3          1.8866    1.2224   -5.2435 F         1 <0>        -0.1761
     27 H1         -2.5339   10.1591   -6.7096 H         1 <0>         0.0758
     28 H2         -3.7404   10.6740   -5.5064 H         1 <0>         0.0696
     29 H3         -2.4711   11.8048   -6.0343 H         1 <0>         0.0742
     30 H4         -3.2375    8.8703   -3.9682 H         1 <0>         0.1307
     31 H5         -1.7789    8.0589   -2.1619 H         1 <0>         0.1298
     32 H6          1.2758   10.7900   -3.4278 H         1 <0>         0.1290
     33 H7          0.4370   11.4225   -6.3550 H         1 <0>         0.0737
     34 H8         -0.9121   12.4677   -5.8496 H         1 <0>         0.0743
     35 H9          0.6413   12.5385   -4.9835 H         1 <0>         0.0688
     36 H10         1.2946    6.5827    0.4119 H         1 <0>         0.0813
     37 H11         2.4208    7.9108    0.0268 H         1 <0>         0.1035
     38 H12         3.4339    5.6160   -0.2799 H         1 <0>         0.1002
     39 H13         3.4345    6.5953   -1.7668 H         1 <0>         0.0552
     40 H14         1.8685    6.1324   -3.5139 H         1 <0>         0.0541
     41 H15         0.6940    4.8061   -3.3366 H         1 <0>         0.0977
     42 H16        -0.5175    6.0471   -1.6097 H         1 <0>         0.0839
     43 H17        -0.3282    7.0994   -3.0349 H         1 <0>         0.1058
     44 H18         4.6541    4.9243   -1.4656 H         1 <0>         0.1372
     45 H19         6.1113    3.1267   -2.3029 H         1 <0>         0.1374
     46 H20         5.1401    1.2123   -3.5069 H         1 <0>         0.1392
     47 H21         1.2440    2.8821   -3.0444 H         1 <0>         0.1369
@<TRIPOS>BOND
     1    1    2 1
     2    1   27 1
     3    1   28 1
     4    1   29 1
     5    2    7 ar
     6    2    3 ar
     7    3    4 ar
     8    3   30 1
     9    4    5 ar
    10    4   31 1
    11    5    6 ar
    12    5    9 1
    13    6    7 ar
    14    6   32 1
    15    7    8 1
    16    8   33 1
    17    8   34 1
    18    8   35 1
    19    9   10 2
    20    9   11 am
    21   11   16 1
    22   11   12 1
    23   12   13 1
    24   12   36 1
    25   12   37 1
    26   13   14 1
    27   13   38 1
    28   13   39 1
    29   14   15 1
    30   14   17 1
    31   15   16 1
    32   15   40 1
    33   15   41 1
    34   16   42 1
    35   16   43 1
    36   17   22 ar
    37   17   18 ar
    38   18   19 ar
    39   18   44 1
    40   19   20 ar
    41   19   45 1
    42   20   21 ar
    43   20   46 1
    44   21   22 ar
    45   21   23 1
    46   22   47 1
    47   23   24 1
    48   23   25 1
    49   23   26 1
@<TRIPOS>MOLECULE
ZINC00084477
   38    40     0     0     0
SMALL
USER_CHARGES
(3-chlorophenyl)-[4-(3-chlorophenyl)piperazin-1-yl]-methanone
@<TRIPOS>ATOM
      1 C1         -4.8679   -2.8020   -3.9072 C.ar      1 <0>        -0.1078
      2 C2         -4.8760   -1.8825   -2.8784 C.ar      1 <0>        -0.0902
      3 C3         -5.9820   -1.0507   -2.6981 C.ar      1 <0>        -0.1154
      4 C4         -7.0696   -1.1471   -3.5677 C.ar      1 <0>        -0.0619
      5 C5         -7.0470   -2.0676   -4.5964 C.ar      1 <0>        -0.0377
      6 C6         -5.9483   -2.8934   -4.7661 C.ar      1 <0>        -0.0886
      7 Cl1        -8.3981   -2.1897   -5.6796 Cl        1 <0>        -0.0568
      8 C7         -5.9992   -0.0674   -1.5942 C.2       1 <0>         0.5647
      9 O1         -6.9609   -0.0016   -0.8537 O.2       1 <0>        -0.5231
     10 N1         -4.9485    0.7561   -1.4089 N.am      1 <0>        -0.6094
     11 C8         -4.9790    1.7967   -0.3699 C.3       1 <0>         0.1165
     12 C9         -4.5910    3.1343   -1.0090 C.3       1 <0>         0.0332
     13 N2         -3.3047    2.9869   -1.7030 N.pl3     1 <0>        -0.4849
     14 C10        -3.4016    2.0210   -2.8055 C.3       1 <0>         0.0420
     15 C11        -3.7408    0.6378   -2.2400 C.3       1 <0>         0.0996
     16 C12        -2.8376    4.2218   -2.1590 C.ar      1 <0>         0.1230
     17 C13        -1.6314    4.2999   -2.8441 C.ar      1 <0>        -0.1359
     18 C14        -1.1747    5.5212   -3.2988 C.ar      1 <0>        -0.0802
     19 C15        -1.9135    6.6672   -3.0683 C.ar      1 <0>        -0.1359
     20 C16        -3.1126    6.5943   -2.3813 C.ar      1 <0>        -0.0067
     21 C17        -3.5753    5.3746   -1.9240 C.ar      1 <0>        -0.1643
     22 Cl2        -4.0367    8.0356   -2.0942 Cl        1 <0>        -0.0664
     23 H1         -4.0140   -3.4487   -4.0450 H         1 <0>         0.1424
     24 H2         -4.0296   -1.8093   -2.2116 H         1 <0>         0.1379
     25 H3         -7.9267   -0.5034   -3.4360 H         1 <0>         0.1411
     26 H4         -5.9347   -3.6115   -5.5726 H         1 <0>         0.1407
     27 H5         -4.2685    1.5479    0.4185 H         1 <0>         0.0827
     28 H6         -5.9833    1.8680    0.0476 H         1 <0>         0.1040
     29 H7         -4.5010    3.8953   -0.2339 H         1 <0>         0.1004
     30 H8         -5.3581    3.4318   -1.7240 H         1 <0>         0.0551
     31 H9         -4.1853    2.3340   -3.4955 H         1 <0>         0.0532
     32 H10        -2.4490    1.9746   -3.3333 H         1 <0>         0.0993
     33 H11        -2.9114    0.2776   -1.6314 H         1 <0>         0.0856
     34 H12        -3.9255   -0.0598   -3.0569 H         1 <0>         0.1035
     35 H13        -1.0536    3.4056   -3.0247 H         1 <0>         0.1325
     36 H14        -0.2394    5.5814   -3.8356 H         1 <0>         0.1360
     37 H15        -1.5541    7.6210   -3.4253 H         1 <0>         0.1338
     38 H16        -4.5115    5.3177   -1.3885 H         1 <0>         0.1376
@<TRIPOS>BOND
     1    1    6 ar
     2    1    2 ar
     3    1   23 1
     4    2    3 ar
     5    2   24 1
     6    3    4 ar
     7    3    8 1
     8    4    5 ar
     9    4   25 1
    10    5    6 ar
    11    5    7 1
    12    6   26 1
    13    8    9 2
    14    8   10 am
    15   10   15 1
    16   10   11 1
    17   11   12 1
    18   11   27 1
    19   11   28 1
    20   12   13 1
    21   12   29 1
    22   12   30 1
    23   13   14 1
    24   13   16 1
    25   14   15 1
    26   14   31 1
    27   14   32 1
    28   15   33 1
    29   15   34 1
    30   16   21 ar
    31   16   17 ar
    32   17   18 ar
    33   17   35 1
    34   18   19 ar
    35   18   36 1
    36   19   20 ar
    37   19   37 1
    38   20   21 ar
    39   20   22 1
    40   21   38 1
@<TRIPOS>MOLECULE
ZINC00327248
   42    44     0     0     0
SMALL
USER_CHARGES
(4-benzyl-1-piperidyl)-(3-chlorophenyl)-methanone
@<TRIPOS>ATOM
      1 C1         -7.7087    7.6298   -1.2274 C.ar      1 <0>        -0.1248
      2 C2         -6.6870    7.1970   -2.0518 C.ar      1 <0>        -0.1181
      3 C3         -6.4688    5.8437   -2.2300 C.ar      1 <0>        -0.1179
      4 C4         -7.2718    4.9231   -1.5831 C.ar      1 <0>        -0.0797
      5 C5         -8.2966    5.3558   -0.7624 C.ar      1 <0>        -0.1182
      6 C6         -8.5120    6.7092   -0.5808 C.ar      1 <0>        -0.1174
      7 C7         -7.0340    3.4477   -1.7773 C.3       1 <0>        -0.0772
      8 C8         -6.0474    2.9467   -0.7206 C.3       1 <0>        -0.0810
      9 C9         -5.9015    1.4279   -0.8387 C.3       1 <0>        -0.1295
     10 C10        -4.9395    0.9257    0.2426 C.3       1 <0>         0.1109
     11 N1         -3.6742    1.6640    0.1297 N.am      1 <0>        -0.6050
     12 C11        -3.7094    3.1327    0.1461 C.3       1 <0>         0.0962
     13 C12        -4.6858    3.6102   -0.9396 C.3       1 <0>        -0.1320
     14 C13        -2.5030    1.0064    0.0189 C.2       1 <0>         0.5629
     15 O1         -2.4939   -0.2037   -0.0953 O.2       1 <0>        -0.5288
     16 C14        -1.2293    1.7569    0.0361 C.ar      1 <0>        -0.1168
     17 C15        -0.2005    1.4119   -0.8420 C.ar      1 <0>        -0.0626
     18 C16         0.9834    2.1197   -0.8256 C.ar      1 <0>        -0.1088
     19 C17         1.1552    3.1664    0.0628 C.ar      1 <0>        -0.0879
     20 C18         0.1414    3.5106    0.9406 C.ar      1 <0>        -0.0420
     21 C19        -1.0486    2.8098    0.9340 C.ar      1 <0>        -0.0831
     22 Cl1         0.3662    4.8258    2.0511 Cl        1 <0>        -0.0595
     23 H1         -7.8791    8.6871   -1.0882 H         1 <0>         0.1205
     24 H2         -6.0593    7.9163   -2.5570 H         1 <0>         0.1211
     25 H3         -5.6708    5.5056   -2.8744 H         1 <0>         0.1202
     26 H4         -8.9268    4.6366   -0.2604 H         1 <0>         0.1203
     27 H5         -9.3100    7.0473    0.0636 H         1 <0>         0.1210
     28 H6         -6.6214    3.2739   -2.7711 H         1 <0>         0.0730
     29 H7         -7.9775    2.9112   -1.6767 H         1 <0>         0.0748
     30 H8         -6.4191    3.1997    0.2723 H         1 <0>         0.0755
     31 H9         -5.5064    1.1757   -1.8228 H         1 <0>         0.0695
     32 H10        -6.8757    0.9574   -0.7058 H         1 <0>         0.0790
     33 H11        -4.7550   -0.1393    0.1015 H         1 <0>         0.0959
     34 H12        -5.3753    1.0959    1.2271 H         1 <0>         0.0708
     35 H13        -4.0470    3.4792    1.1229 H         1 <0>         0.0731
     36 H14        -2.7131    3.5245   -0.0586 H         1 <0>         0.0931
     37 H15        -4.3021    3.3375   -1.9227 H         1 <0>         0.0687
     38 H16        -4.7947    4.6930   -0.8786 H         1 <0>         0.0824
     39 H17        -0.3328    0.5951   -1.5361 H         1 <0>         0.1388
     40 H18         1.7780    1.8564   -1.5080 H         1 <0>         0.1420
     41 H19         2.0840    3.7175    0.0713 H         1 <0>         0.1401
     42 H20        -1.8390    3.0787    1.6190 H         1 <0>         0.1408
@<TRIPOS>BOND
     1    1    6 ar
     2    1    2 ar
     3    1   23 1
     4    2    3 ar
     5    2   24 1
     6    3    4 ar
     7    3   25 1
     8    4    5 ar
     9    4    7 1
    10    5    6 ar
    11    5   26 1
    12    6   27 1
    13    7    8 1
    14    7   28 1
    15    7   29 1
    16    8   13 1
    17    8    9 1
    18    8   30 1
    19    9   10 1
    20    9   31 1
    21    9   32 1
    22   10   11 1
    23   10   33 1
    24   10   34 1
    25   11   12 1
    26   11   14 am
    27   12   13 1
    28   12   35 1
    29   12   36 1
    30   13   37 1
    31   13   38 1
    32   14   15 2
    33   14   16 1
    34   16   21 ar
    35   16   17 ar
    36   17   18 ar
    37   17   39 1
    38   18   19 ar
    39   18   40 1
    40   19   20 ar
    41   19   41 1
    42   20   21 ar
    43   20   22 1
    44   21   42 1
@<TRIPOS>MOLECULE
ZINC01295794
   45    47     0     0     0
SMALL
USER_CHARGES
(4-benzyl-1-piperidyl)-(p-tolyl)methanone
@<TRIPOS>ATOM
      1 C1          1.1353    3.5929   -0.0642 C.3       1 <0>        -0.1209
      2 C2          1.1654    2.0863   -0.0527 C.ar      1 <0>        -0.0619
      3 C3          0.3711    1.3883    0.8397 C.ar      1 <0>        -0.1256
      4 C4          0.3936    0.0090    0.8551 C.ar      1 <0>        -0.0620
      5 C5          1.2200   -0.6823   -0.0322 C.ar      1 <0>        -0.1368
      6 C6          2.0187    0.0278   -0.9299 C.ar      1 <0>        -0.0858
      7 C7          1.9868    1.4070   -0.9349 C.ar      1 <0>        -0.1274
      8 C8          1.2495   -2.1605   -0.0210 C.2       1 <0>         0.5621
      9 O1          0.2148   -2.7881    0.0933 O.2       1 <0>        -0.5345
     10 N1          2.4235   -2.8120   -0.1374 N.am      1 <0>        -0.6068
     11 C9          3.6923   -2.0712   -0.1538 C.3       1 <0>         0.0978
     12 C10         4.6136   -2.6563    0.9273 C.3       1 <0>        -0.1322
     13 C11         4.7628   -4.1627    0.7017 C.3       1 <0>        -0.0807
     14 C12         3.3935   -4.8360    0.8202 C.3       1 <0>        -0.1294
     15 C13         2.4587   -4.2760   -0.2565 C.3       1 <0>         0.1109
     16 C14         5.7095   -4.7441    1.7536 C.3       1 <0>        -0.0775
     17 C15         7.0898   -4.1716    1.5584 C.ar      1 <0>        -0.0792
     18 C16         7.9939   -4.8134    0.7329 C.ar      1 <0>        -0.1182
     19 C17         9.2585   -4.2859    0.5505 C.ar      1 <0>        -0.1176
     20 C18         9.6223   -3.1217    1.2011 C.ar      1 <0>        -0.1250
     21 C19         8.7197   -2.4825    2.0304 C.ar      1 <0>        -0.1183
     22 C20         7.4536   -3.0077    2.2094 C.ar      1 <0>        -0.1178
     23 H1          1.8876    3.9766    0.6251 H         1 <0>         0.0754
     24 H2          1.3476    3.9529   -1.0709 H         1 <0>         0.0699
     25 H3          0.1491    3.9390    0.2450 H         1 <0>         0.0701
     26 H4         -0.2712    1.9244    1.5227 H         1 <0>         0.1300
     27 H5         -0.2271   -0.5346    1.5519 H         1 <0>         0.1309
     28 H6          2.6606   -0.5012   -1.6187 H         1 <0>         0.1297
     29 H7          2.6041    1.9578   -1.6291 H         1 <0>         0.1294
     30 H8          4.1620   -2.1726   -1.1321 H         1 <0>         0.0706
     31 H9          3.5034   -1.0183    0.0558 H         1 <0>         0.0953
     32 H10         4.1825   -2.4770    1.9123 H         1 <0>         0.0680
     33 H11         5.5924   -2.1806    0.8660 H         1 <0>         0.0813
     34 H12         5.1708   -4.3422   -0.2930 H         1 <0>         0.0749
     35 H13         2.9739   -4.6360    1.8061 H         1 <0>         0.0690
     36 H14         3.5039   -5.9116    0.6825 H         1 <0>         0.0781
     37 H15         1.4556   -4.6783   -0.1147 H         1 <0>         0.0948
     38 H16         2.8299   -4.5535   -1.2430 H         1 <0>         0.0692
     39 H17         5.3474   -4.4882    2.7493 H         1 <0>         0.0729
     40 H18         5.7476   -5.8284    1.6484 H         1 <0>         0.0746
     41 H19         7.7111   -5.7252    0.2278 H         1 <0>         0.1202
     42 H20         9.9635   -4.7851   -0.0977 H         1 <0>         0.1210
     43 H21        10.6114   -2.7114    1.0612 H         1 <0>         0.1205
     44 H22         9.0039   -1.5730    2.5387 H         1 <0>         0.1210
     45 H23         6.7486   -2.5085    2.8576 H         1 <0>         0.1203
@<TRIPOS>BOND
     1    1    2 1
     2    1   23 1
     3    1   24 1
     4    1   25 1
     5    2    7 ar
     6    2    3 ar
     7    3    4 ar
     8    3   26 1
     9    4    5 ar
    10    4   27 1
    11    5    6 ar
    12    5    8 1
    13    6    7 ar
    14    6   28 1
    15    7   29 1
    16    8    9 2
    17    8   10 am
    18   10   15 1
    19   10   11 1
    20   11   12 1
    21   11   30 1
    22   11   31 1
    23   12   13 1
    24   12   32 1
    25   12   33 1
    26   13   14 1
    27   13   16 1
    28   13   34 1
    29   14   15 1
    30   14   35 1
    31   14   36 1
    32   15   37 1
    33   15   38 1
    34   16   17 1
    35   16   39 1
    36   16   40 1
    37   17   22 ar
    38   17   18 ar
    39   18   19 ar
    40   18   41 1
    41   19   20 ar
    42   19   42 1
    43   20   21 ar
    44   20   43 1
    45   21   22 ar
    46   21   44 1
    47   22   45 1
@<TRIPOS>MOLECULE
ZINC01230195
   45    47     0     0     0
SMALL
USER_CHARGES
(4-benzyl-1-piperidyl)-(m-tolyl)methanone
@<TRIPOS>ATOM
      1 C1          2.0556    1.7313   -1.8776 C.3       1 <0>        -0.1167
      2 C2          0.9639    2.1125   -0.9112 C.ar      1 <0>        -0.0914
      3 C3          1.1541    3.1674   -0.0359 C.ar      1 <0>        -0.0980
      4 C4          0.1570    3.5238    0.8543 C.ar      1 <0>        -0.1190
      5 C5         -1.0347    2.8287    0.8748 C.ar      1 <0>        -0.0729
      6 C6         -1.2307    1.7602   -0.0013 C.ar      1 <0>        -0.1257
      7 C7         -0.2225    1.4090   -0.9008 C.ar      1 <0>        -0.0920
      8 C8         -2.5027    1.0069    0.0193 C.2       1 <0>         0.5617
      9 O1         -3.5579    1.5992    0.1347 O.2       1 <0>        -0.5337
     10 N1         -2.4923   -0.3363   -0.0898 N.am      1 <0>        -0.6064
     11 C9         -1.2230   -1.0761   -0.1076 C.3       1 <0>         0.0977
     12 C10        -1.2741   -2.1602    0.9797 C.3       1 <0>        -0.1322
     13 C11        -2.5127   -3.0328    0.7641 C.3       1 <0>        -0.0807
     14 C12        -3.7723   -2.1718    0.8834 C.3       1 <0>        -0.1295
     15 C13        -3.7498   -1.0883   -0.1994 C.3       1 <0>         0.1108
     16 C14        -2.5482   -4.1373    1.8222 C.3       1 <0>        -0.0775
     17 C15        -1.3712   -5.0580    1.6270 C.ar      1 <0>        -0.0792
     18 C16        -1.4884   -6.1654    0.8080 C.ar      1 <0>        -0.1183
     19 C17        -0.4074   -7.0075    0.6255 C.ar      1 <0>        -0.1175
     20 C18         0.7878   -6.7474    1.2696 C.ar      1 <0>        -0.1250
     21 C19         0.9034   -5.6427    2.0924 C.ar      1 <0>        -0.1183
     22 C20        -0.1762   -4.7982    2.2715 C.ar      1 <0>        -0.1178
     23 H1          2.7087    0.9915   -1.4146 H         1 <0>         0.0735
     24 H2          1.6116    1.3101   -2.7796 H         1 <0>         0.0679
     25 H3          2.6361    2.6164   -2.1376 H         1 <0>         0.0697
     26 H4          2.0852    3.7145   -0.0477 H         1 <0>         0.1277
     27 H5          0.3119    4.3479    1.5351 H         1 <0>         0.1308
     28 H6         -1.8123    3.1080    1.5703 H         1 <0>         0.1304
     29 H7         -0.3696    0.5858   -1.5841 H         1 <0>         0.1292
     30 H8         -1.0842   -1.5403   -1.0840 H         1 <0>         0.0706
     31 H9         -0.3986   -0.3923    0.0947 H         1 <0>         0.0953
     32 H10        -1.3259   -1.6913    1.9623 H         1 <0>         0.0680
     33 H11        -0.3784   -2.7783    0.9178 H         1 <0>         0.0813
     34 H12        -2.4724   -3.4818   -0.2283 H         1 <0>         0.0750
     35 H13        -3.8006   -1.7028    1.8669 H         1 <0>         0.0691
     36 H14        -4.6548   -2.7981    0.7529 H         1 <0>         0.0782
     37 H15        -4.5932   -0.4125   -0.0576 H         1 <0>         0.0949
     38 H16        -3.8129   -1.5534   -1.1831 H         1 <0>         0.0693
     39 H17        -2.4995   -3.6908    2.8154 H         1 <0>         0.0729
     40 H18        -3.4737   -4.7048    1.7241 H         1 <0>         0.0746
     41 H19        -2.4234   -6.3708    0.3081 H         1 <0>         0.1202
     42 H20        -0.4976   -7.8704   -0.0176 H         1 <0>         0.1210
     43 H21         1.6313   -7.4072    1.1297 H         1 <0>         0.1205
     44 H22         1.8372   -5.4395    2.5956 H         1 <0>         0.1210
     45 H23        -0.0860   -3.9352    2.9146 H         1 <0>         0.1203
@<TRIPOS>BOND
     1    1    2 1
     2    1   23 1
     3    1   24 1
     4    1   25 1
     5    2    7 ar
     6    2    3 ar
     7    3    4 ar
     8    3   26 1
     9    4    5 ar
    10    4   27 1
    11    5    6 ar
    12    5   28 1
    13    6    7 ar
    14    6    8 1
    15    7   29 1
    16    8    9 2
    17    8   10 am
    18   10   15 1
    19   10   11 1
    20   11   12 1
    21   11   30 1
    22   11   31 1
    23   12   13 1
    24   12   32 1
    25   12   33 1
    26   13   14 1
    27   13   16 1
    28   13   34 1
    29   14   15 1
    30   14   35 1
    31   14   36 1
    32   15   37 1
    33   15   38 1
    34   16   17 1
    35   16   39 1
    36   16   40 1
    37   17   22 ar
    38   17   18 ar
    39   18   19 ar
    40   18   41 1
    41   19   20 ar
    42   19   42 1
    43   20   21 ar
    44   20   43 1
    45   21   22 ar
    46   21   44 1
    47   22   45 1
@<TRIPOS>MOLECULE
ZINC28872223
   49    53     0     0     0
SMALL
USER_CHARGES
[4-(9H-fluoren-9-yl)piperazin-1-yl]-phenyl-methanone
@<TRIPOS>ATOM
      1 C1         -1.4457   12.5655   -3.8446 C.ar      1 <0>        -0.0944
      2 C2         -2.8015   12.2912   -3.8147 C.ar      1 <0>        -0.1253
      3 C3         -3.2435   11.0090   -3.5619 C.ar      1 <0>        -0.0623
      4 C4         -2.3196    9.9876   -3.3356 C.ar      1 <0>        -0.1337
      5 C5         -0.9534   10.2723   -3.3614 C.ar      1 <0>        -0.1035
      6 C6         -0.5246   11.5576   -3.6210 C.ar      1 <0>        -0.1271
      7 C7         -2.7861    8.6113   -3.0636 C.2       1 <0>         0.5608
      8 O1         -3.8555    8.2343   -3.5016 O.2       1 <0>        -0.5342
      9 N1         -2.0258    7.7746   -2.3299 N.am      1 <0>        -0.6079
     10 C8         -2.4058    6.3642   -2.1576 C.3       1 <0>         0.1159
     11 C9         -2.3842    6.0336   -0.6615 C.3       1 <0>         0.0420
     12 N2         -1.0756    6.3971   -0.1018 N.3       1 <0>        -0.5146
     13 C10        -0.8355    7.8427   -0.2034 C.3       1 <0>         0.0303
     14 C11        -0.7936    8.2476   -1.6808 C.3       1 <0>         0.0881
     15 C12        -0.9523    5.9394    1.2887 C.3       1 <0>         0.1643
     16 C13        -2.1858    6.3177    2.0715 C.ar      1 <0>        -0.1210
     17 C14        -2.7572    7.5373    2.3663 C.ar      1 <0>        -0.0965
     18 C15        -3.9183    7.5950    3.1167 C.ar      1 <0>        -0.1130
     19 C16        -4.5028    6.4304    3.5806 C.ar      1 <0>        -0.1126
     20 C17        -3.9383    5.2057    3.2901 C.ar      1 <0>        -0.0963
     21 C18        -2.7695    5.1396    2.5294 C.ar      1 <0>        -0.0477
     22 C19        -1.9626    3.9797    2.0761 C.ar      1 <0>        -0.0573
     23 C20        -0.8748    4.4331    1.3349 C.ar      1 <0>        -0.0759
     24 C21         0.0265    3.5358    0.8024 C.ar      1 <0>        -0.0797
     25 C22        -0.1473    2.1778    1.0031 C.ar      1 <0>        -0.1145
     26 C23        -1.2250    1.7176    1.7380 C.ar      1 <0>        -0.1142
     27 C24        -2.1314    2.6083    2.2748 C.ar      1 <0>        -0.0977
     28 H1         -1.1049   13.5710   -4.0429 H         1 <0>         0.1283
     29 H2         -3.5154   13.0824   -3.9900 H         1 <0>         0.1307
     30 H3         -4.3021   10.7961   -3.5389 H         1 <0>         0.1328
     31 H4         -0.2335    9.4873   -3.1827 H         1 <0>         0.1428
     32 H5          0.5323   11.7783   -3.6457 H         1 <0>         0.1306
     33 H6         -3.4160    6.2045   -2.5626 H         1 <0>         0.0981
     34 H7         -1.6903    5.7235   -2.6938 H         1 <0>         0.0777
     35 H8         -3.1743    6.6020   -0.1490 H         1 <0>         0.0462
     36 H9         -2.5578    4.9565   -0.5214 H         1 <0>         0.0882
     37 H10        -1.6466    8.3856    0.3040 H         1 <0>         0.0480
     38 H11         0.1248    8.0893    0.2730 H         1 <0>         0.0925
     39 H12         0.0781    7.7894   -2.1709 H         1 <0>         0.0829
     40 H13        -0.7300    9.3423   -1.7682 H         1 <0>         0.1132
     41 H14        -0.0442    6.4152    1.6873 H         1 <0>         0.1096
     42 H15        -2.3001    8.4480    2.0085 H         1 <0>         0.1219
     43 H16        -4.3668    8.5509    3.3436 H         1 <0>         0.1274
     44 H17        -5.4072    6.4798    4.1689 H         1 <0>         0.1279
     45 H18        -4.4000    4.2986    3.6511 H         1 <0>         0.1239
     46 H19         0.8688    3.8931    0.2286 H         1 <0>         0.1279
     47 H20         0.5593    1.4761    0.5850 H         1 <0>         0.1281
     48 H21        -1.3570    0.6570    1.8928 H         1 <0>         0.1269
     49 H22        -2.9713    2.2447    2.8483 H         1 <0>         0.1222
@<TRIPOS>BOND
     1    1    6 ar
     2    1    2 ar
     3    1   28 1
     4    2    3 ar
     5    2   29 1
     6    3    4 ar
     7    3   30 1
     8    4    5 ar
     9    4    7 1
    10    5    6 ar
    11    5   31 1
    12    6   32 1
    13    7    8 2
    14    7    9 am
    15    9   14 1
    16    9   10 1
    17   10   11 1
    18   10   33 1
    19   10   34 1
    20   11   12 1
    21   11   35 1
    22   11   36 1
    23   12   13 1
    24   12   15 1
    25   13   14 1
    26   13   37 1
    27   13   38 1
    28   14   39 1
    29   14   40 1
    30   15   23 1
    31   15   16 1
    32   15   41 1
    33   16   21 ar
    34   16   17 ar
    35   17   18 ar
    36   17   42 1
    37   18   19 ar
    38   18   43 1
    39   19   20 ar
    40   19   44 1
    41   20   21 ar
    42   20   45 1
    43   21   22 1
    44   22   27 ar
    45   22   23 ar
    46   23   24 ar
    47   24   25 ar
    48   24   46 1
    49   25   26 ar
    50   25   47 1
    51   26   27 ar
    52   26   48 1
    53   27   49 1
@<TRIPOS>MOLECULE
ZINC17087339
   54    57     0     0     0
SMALL
USER_CHARGES
[4-[bis(4-fluorophenyl)methyl]piperazin-1-yl]-(p-tolyl)methanone
@<TRIPOS>ATOM
      1 C1          7.8394   -0.0856   -5.1862 C.3       1 <0>        -0.1234
      2 C2          7.2037    0.2331   -3.8576 C.ar      1 <0>        -0.0625
      3 C3          6.3308    1.3012   -3.7502 C.ar      1 <0>        -0.1246
      4 C4          5.7455    1.5983   -2.5368 C.ar      1 <0>        -0.0878
      5 C5          6.0353    0.8184   -1.4161 C.ar      1 <0>        -0.1347
      6 C6          6.9204   -0.2548   -1.5302 C.ar      1 <0>        -0.0650
      7 C7          7.4952   -0.5441   -2.7506 C.ar      1 <0>        -0.1239
      8 C8          5.4120    1.1313   -0.1125 C.2       1 <0>         0.5630
      9 O1          6.1004    1.2150    0.8858 O.2       1 <0>        -0.5318
     10 N1          4.0805    1.3238   -0.0310 N.am      1 <0>        -0.6085
     11 C9          3.4291    1.5536    1.2675 C.3       1 <0>         0.1164
     12 C10         2.2521    0.5813    1.4004 C.3       1 <0>         0.0405
     13 N2          1.3731    0.7188    0.2315 N.3       1 <0>        -0.5294
     14 C11         2.0710    0.3475   -1.0066 C.3       1 <0>         0.0377
     15 C12         3.2405    1.3102   -1.2382 C.3       1 <0>         0.1014
     16 C13         0.1453   -0.0697    0.4005 C.3       1 <0>         0.1715
     17 C14        -0.7294    0.0958   -0.8154 C.ar      1 <0>        -0.0914
     18 C15        -0.8531    1.3359   -1.4137 C.ar      1 <0>        -0.0624
     19 C16        -1.6511    1.4879   -2.5317 C.ar      1 <0>        -0.1559
     20 C17        -2.3352    0.3997   -3.0463 C.ar      1 <0>         0.1020
     21 C18        -2.2148   -0.8408   -2.4432 C.ar      1 <0>        -0.1533
     22 C19        -1.4120   -0.9915   -1.3284 C.ar      1 <0>        -0.0816
     23 F1         -3.1194    0.5481   -4.1364 F         1 <0>        -0.1389
     24 C20        -0.5960    0.4104    1.6216 C.ar      1 <0>        -0.0914
     25 C21        -0.6621    1.7624    1.9023 C.ar      1 <0>        -0.0607
     26 C22        -1.3457    2.2042    3.0192 C.ar      1 <0>        -0.1560
     27 C23        -1.9554    1.2913    3.8630 C.ar      1 <0>         0.1020
     28 C24        -1.8840   -0.0629    3.5838 C.ar      1 <0>        -0.1537
     29 C25        -1.2044   -0.5020    2.4634 C.ar      1 <0>        -0.0819
     30 F2         -2.6200    1.7217    4.9577 F         1 <0>        -0.1390
     31 H1          7.4911    0.6344   -5.9414 H         1 <0>         0.0689
     32 H2          7.5575   -1.1037   -5.4927 H         1 <0>         0.0743
     33 H3          8.9336   -0.0201   -5.0942 H         1 <0>         0.0747
     34 H4          6.1075    1.9039   -4.6181 H         1 <0>         0.1300
     35 H5          5.0643    2.4323   -2.4543 H         1 <0>         0.1299
     36 H6          7.1522   -0.8594   -0.6659 H         1 <0>         0.1292
     37 H7          8.1774   -1.3764   -2.8411 H         1 <0>         0.1299
     38 H8          4.1532    1.3791    2.0769 H         1 <0>         0.0987
     39 H9          3.0664    2.5909    1.3173 H         1 <0>         0.0786
     40 H10         2.6324   -0.4494    1.4555 H         1 <0>         0.0425
     41 H11         1.6867    0.8128    2.3151 H         1 <0>         0.0948
     42 H12         2.4526   -0.6804   -0.9182 H         1 <0>         0.0427
     43 H13         1.3719    0.4075   -1.8537 H         1 <0>         0.0955
     44 H14         2.8595    2.3239   -1.4312 H         1 <0>         0.0808
     45 H15         3.8390    0.9737   -2.0976 H         1 <0>         0.1008
     46 H16         0.4310   -1.1251    0.5210 H         1 <0>         0.0637
     47 H17        -0.3226    2.1855   -1.0096 H         1 <0>         0.1412
     48 H18        -1.7443    2.4560   -3.0013 H         1 <0>         0.1365
     49 H19        -2.7477   -1.6904   -2.8440 H         1 <0>         0.1361
     50 H20        -1.3176   -1.9590   -0.8580 H         1 <0>         0.1308
     51 H21        -0.1829    2.4740    1.2462 H         1 <0>         0.1411
     52 H22        -1.4008    3.2608    3.2360 H         1 <0>         0.1363
     53 H23        -2.3596   -0.7758    4.2410 H         1 <0>         0.1360
     54 H24        -1.1489   -1.5583    2.2452 H         1 <0>         0.1305
@<TRIPOS>BOND
     1    1    2 1
     2    1   31 1
     3    1   32 1
     4    1   33 1
     5    2    7 ar
     6    2    3 ar
     7    3    4 ar
     8    3   34 1
     9    4    5 ar
    10    4   35 1
    11    5    6 ar
    12    5    8 1
    13    6    7 ar
    14    6   36 1
    15    7   37 1
    16    8    9 2
    17    8   10 am
    18   10   15 1
    19   10   11 1
    20   11   12 1
    21   11   38 1
    22   11   39 1
    23   12   13 1
    24   12   40 1
    25   12   41 1
    26   13   14 1
    27   13   16 1
    28   14   15 1
    29   14   42 1
    30   14   43 1
    31   15   44 1
    32   15   45 1
    33   16   17 1
    34   16   24 1
    35   16   46 1
    36   17   22 ar
    37   17   18 ar
    38   18   19 ar
    39   18   47 1
    40   19   20 ar
    41   19   48 1
    42   20   21 ar
    43   20   23 1
    44   21   22 ar
    45   21   49 1
    46   22   50 1
    47   24   29 ar
    48   24   25 ar
    49   25   26 ar
    50   25   51 1
    51   26   27 ar
    52   26   52 1
    53   27   28 ar
    54   27   30 1
    55   28   29 ar
    56   28   53 1
    57   29   54 1
@<TRIPOS>MOLECULE
ZINC19928958
   51    54     0     0     0
SMALL
USER_CHARGES
[4-[bis(4-fluorophenyl)methyl]piperazin-1-yl]-phenyl-methanone
@<TRIPOS>ATOM
      1 C1          7.2025    0.2318   -3.8579 C.ar      1 <0>        -0.0981
      2 C2          6.3310    1.3010   -3.7501 C.ar      1 <0>        -0.1231
      3 C3          5.7458    1.5981   -2.5366 C.ar      1 <0>        -0.0931
      4 C4          6.0349    0.8176   -1.4162 C.ar      1 <0>        -0.1281
      5 C5          6.9193   -0.2561   -1.5306 C.ar      1 <0>        -0.0704
      6 C6          7.4934   -0.5459   -2.7511 C.ar      1 <0>        -0.1215
      7 C7          5.4117    1.1305   -0.1125 C.2       1 <0>         0.5622
      8 O1          6.1000    1.2128    0.8860 O.2       1 <0>        -0.5311
      9 N1          4.0804    1.3244   -0.0312 N.am      1 <0>        -0.6082
     10 C8          3.4290    1.5542    1.2673 C.3       1 <0>         0.1163
     11 C9          2.2516    0.5824    1.3999 C.3       1 <0>         0.0404
     12 N2          1.3727    0.7204    0.2310 N.3       1 <0>        -0.5294
     13 C10         2.0706    0.3490   -1.0072 C.3       1 <0>         0.0376
     14 C11         3.2405    1.3113   -1.2385 C.3       1 <0>         0.1011
     15 C12         0.1446   -0.0677    0.3997 C.3       1 <0>         0.1715
     16 C13        -0.7299    0.0984   -0.8163 C.ar      1 <0>        -0.0915
     17 C14        -0.8531    1.3387   -1.4143 C.ar      1 <0>        -0.0625
     18 C15        -1.6509    1.4912   -2.5323 C.ar      1 <0>        -0.1559
     19 C16        -2.3355    0.4034   -3.0473 C.ar      1 <0>         0.1020
     20 C17        -2.2155   -0.8372   -2.4443 C.ar      1 <0>        -0.1533
     21 C18        -1.4129   -0.9884   -1.3295 C.ar      1 <0>        -0.0816
     22 F1         -3.1194    0.5523   -4.1374 F         1 <0>        -0.1388
     23 C19        -0.5966    0.4125    1.6209 C.ar      1 <0>        -0.0915
     24 C20        -0.6622    1.7645    1.9017 C.ar      1 <0>        -0.0607
     25 C21        -1.3457    2.2064    3.0187 C.ar      1 <0>        -0.1560
     26 C22        -1.9559    1.2936    3.8623 C.ar      1 <0>         0.1020
     27 C23        -1.8850   -0.0606    3.5828 C.ar      1 <0>        -0.1537
     28 C24        -1.2055   -0.4998    2.4624 C.ar      1 <0>        -0.0818
     29 F2         -2.6203    1.7241    4.9570 F         1 <0>        -0.1390
     30 H1          7.6580    0.0035   -4.8101 H         1 <0>         0.1283
     31 H2          6.1082    1.9041   -4.6178 H         1 <0>         0.1305
     32 H3          5.0657    2.4330   -2.4537 H         1 <0>         0.1299
     33 H4          7.1506   -0.8612   -0.6664 H         1 <0>         0.1291
     34 H5          8.1745   -1.3791   -2.8420 H         1 <0>         0.1305
     35 H6          4.1530    1.3792    2.0768 H         1 <0>         0.0989
     36 H7          3.0668    2.5916    1.3173 H         1 <0>         0.0788
     37 H8          2.6315   -0.4485    1.4548 H         1 <0>         0.0426
     38 H9          1.6862    0.8140    2.3146 H         1 <0>         0.0950
     39 H10         2.4518   -0.6791   -0.9190 H         1 <0>         0.0428
     40 H11         1.3716    0.4094   -1.8544 H         1 <0>         0.0957
     41 H12         2.8599    2.3252   -1.4314 H         1 <0>         0.0812
     42 H13         3.8389    0.9747   -2.0979 H         1 <0>         0.1008
     43 H14         0.4298   -1.1232    0.5200 H         1 <0>         0.0638
     44 H15        -0.3223    2.1880   -1.0100 H         1 <0>         0.1412
     45 H16        -1.7437    2.4594   -3.0018 H         1 <0>         0.1365
     46 H17        -2.7487   -1.6865   -2.8453 H         1 <0>         0.1361
     47 H18        -1.3190   -1.9561   -0.8593 H         1 <0>         0.1308
     48 H19        -0.1827    2.4760    1.2458 H         1 <0>         0.1411
     49 H20        -1.4004    3.2629    3.2357 H         1 <0>         0.1363
     50 H21        -2.3609   -0.7735    4.2399 H         1 <0>         0.1360
     51 H22        -1.1503   -1.5560    2.2440 H         1 <0>         0.1306
@<TRIPOS>BOND
     1    1    6 ar
     2    1    2 ar
     3    1   30 1
     4    2    3 ar
     5    2   31 1
     6    3    4 ar
     7    3   32 1
     8    4    5 ar
     9    4    7 1
    10    5    6 ar
    11    5   33 1
    12    6   34 1
    13    7    8 2
    14    7    9 am
    15    9   14 1
    16    9   10 1
    17   10   11 1
    18   10   35 1
    19   10   36 1
    20   11   12 1
    21   11   37 1
    22   11   38 1
    23   12   13 1
    24   12   15 1
    25   13   14 1
    26   13   39 1
    27   13   40 1
    28   14   41 1
    29   14   42 1
    30   15   16 1
    31   15   23 1
    32   15   43 1
    33   16   21 ar
    34   16   17 ar
    35   17   18 ar
    36   17   44 1
    37   18   19 ar
    38   18   45 1
    39   19   20 ar
    40   19   22 1
    41   20   21 ar
    42   20   46 1
    43   21   47 1
    44   23   28 ar
    45   23   24 ar
    46   24   25 ar
    47   24   48 1
    48   25   26 ar
    49   25   49 1
    50   26   27 ar
    51   26   29 1
    52   27   28 ar
    53   27   50 1
    54   28   51 1
@<TRIPOS>MOLECULE
ZINC04740635
   47    49     0     0     0
SMALL
USER_CHARGES

@<TRIPOS>ATOM
      1 C1         -1.3939    1.0108    1.1348 C.3       1 <0>         0.0269
      2 O1         -0.9149   -0.2798    0.7514 O.3       1 <0>        -0.3171
      3 C2          0.1720   -0.7572    1.4148 C.ar      1 <0>         0.1054
      4 C3          0.7606   -0.0025    2.4165 C.ar      1 <0>        -0.1756
      5 C4          1.8651   -0.4888    3.0907 C.ar      1 <0>        -0.0854
      6 C5          2.3862   -1.7295    2.7679 C.ar      1 <0>        -0.0497
      7 C6          1.8044   -2.4884    1.7689 C.ar      1 <0>        -0.0880
      8 C7          0.6923   -2.0084    1.0926 C.ar      1 <0>         0.1309
      9 N1          0.0972   -2.7781    0.0842 N.am      1 <0>        -0.6563
     10 C8          0.2394   -4.1183    0.0869 C.2       1 <0>         0.5272
     11 O2          0.7961   -4.6673    1.0142 O.2       1 <0>        -0.5086
     12 C9         -0.2932   -4.9348   -1.0623 C.3       1 <0>        -0.1224
     13 H1          0.1681   -4.6300   -2.0017 H         1 <0>         0.1256
     14 C10        -1.8341   -4.8352   -1.1446 C.3       1 <0>        -0.1486
     15 C11        -2.2736   -6.2210   -1.5631 C.2       1 <0>         0.5215
     16 O3         -3.3671   -6.4979   -2.0086 O.2       1 <0>        -0.5196
     17 N2         -1.2757   -7.1005   -1.3698 N.am      1 <0>        -0.6158
     18 C12        -0.0873   -6.4449   -0.8098 C.3       1 <0>         0.1171
     19 C13        -1.3622   -8.5299   -1.6791 C.3       1 <0>         0.1616
     20 C14        -1.6481   -8.7126   -3.1710 C.3       1 <0>        -0.1336
     21 C15        -1.7385  -10.2054   -3.4939 C.3       1 <0>        -0.1150
     22 C16        -2.8680  -10.8364   -2.6771 C.3       1 <0>        -0.1232
     23 C17        -2.5820  -10.6537   -1.1852 C.3       1 <0>        -0.1150
     24 C18        -2.4916   -9.1609   -0.8623 C.3       1 <0>        -0.1347
     25 Cl1         3.7735   -2.3343    3.6185 Cl        1 <0>        -0.0610
     26 H2         -0.6083    1.7505    0.9805 H         1 <0>         0.0592
     27 H3         -2.2619    1.2709    0.5291 H         1 <0>         0.1047
     28 H4         -1.6767    0.9954    2.1874 H         1 <0>         0.0591
     29 H5          0.3565    0.9663    2.6706 H         1 <0>         0.1433
     30 H6          2.3227    0.1012    3.8710 H         1 <0>         0.1391
     31 H7          2.2131   -3.4561    1.5181 H         1 <0>         0.1639
     32 H8         -0.4171   -2.3463   -0.6157 H         1 <0>         0.4196
     33 H9         -2.2524   -4.5801   -0.1710 H         1 <0>         0.1095
     34 H10        -2.1294   -4.0992   -1.8925 H         1 <0>         0.1132
     35 H11         0.8115   -6.7933   -1.3186 H         1 <0>         0.0882
     36 H12        -0.0167   -6.6422    0.2598 H         1 <0>         0.0932
     37 H13        -0.4183   -9.0137   -1.4281 H         1 <0>         0.0892
     38 H14        -2.5921   -8.2288   -3.4219 H         1 <0>         0.0791
     39 H15        -0.8435   -8.2630   -3.7528 H         1 <0>         0.0628
     40 H16        -1.9422  -10.3355   -4.5567 H         1 <0>         0.0663
     41 H17        -0.7946  -10.6892   -3.2430 H         1 <0>         0.0627
     42 H18        -3.8119  -10.3526   -2.9281 H         1 <0>         0.0645
     43 H19        -2.9323  -11.8999   -2.9072 H         1 <0>         0.0639
     44 H20        -3.3867  -11.1033   -0.6034 H         1 <0>         0.0663
     45 H21        -1.6381  -11.1375   -0.9343 H         1 <0>         0.0628
     46 H22        -2.2879   -9.0308    0.2005 H         1 <0>         0.0633
     47 H23        -3.4356   -8.6771   -1.1132 H         1 <0>         0.0793
@<TRIPOS>BOND
     1    1    2 1
     2    1   26 1
     3    1   27 1
     4    1   28 1
     5    2    3 1
     6    3    8 ar
     7    3    4 ar
     8    4    5 ar
     9    4   29 1
    10    5    6 ar
    11    5   30 1
    12    6    7 ar
    13    6   25 1
    14    7    8 ar
    15    7   31 1
    16    8    9 1
    17    9   10 am
    18    9   32 1
    19   10   11 2
    20   10   12 1
    21   12   13 1
    22   12   18 1
    23   12   14 1
    24   14   15 1
    25   14   33 1
    26   14   34 1
    27   15   16 2
    28   15   17 am
    29   17   18 1
    30   17   19 1
    31   18   35 1
    32   18   36 1
    33   19   24 1
    34   19   20 1
    35   19   37 1
    36   20   21 1
    37   20   38 1
    38   20   39 1
    39   21   22 1
    40   21   40 1
    41   21   41 1
    42   22   23 1
    43   22   42 1
    44   22   43 1
    45   23   24 1
    46   23   44 1
    47   23   45 1
    48   24   46 1
    49   24   47 1
@<TRIPOS>MOLECULE
ZINC04740636
   47    49     0     0     0
SMALL
USER_CHARGES

@<TRIPOS>ATOM
      1 C1         -1.3938    1.0108    1.1349 C.3       1 <0>         0.0270
      2 O1         -0.9149   -0.2798    0.7514 O.3       1 <0>        -0.3173
      3 C2          0.1721   -0.7572    1.4148 C.ar      1 <0>         0.1047
      4 C3          0.7607   -0.0025    2.4165 C.ar      1 <0>        -0.1755
      5 C4          1.8653   -0.4888    3.0906 C.ar      1 <0>        -0.0860
      6 C5          2.3863   -1.7294    2.7678 C.ar      1 <0>        -0.0491
      7 C6          1.8045   -2.4884    1.7688 C.ar      1 <0>        -0.0876
      8 C7          0.6924   -2.0084    1.0926 C.ar      1 <0>         0.1323
      9 N1          0.0972   -2.7781    0.0842 N.am      1 <0>        -0.6577
     10 C8          0.2394   -4.1183    0.0869 C.2       1 <0>         0.5212
     11 O2          0.7961   -4.6673    1.0142 O.2       1 <0>        -0.5058
     12 C9         -0.2932   -4.9348   -1.0623 C.3       1 <0>        -0.1242
     13 H1         -1.3678   -4.7913   -1.1752 H         1 <0>         0.1319
     14 C10         0.4512   -4.5951   -2.3744 C.3       1 <0>        -0.1487
     15 C11         1.5656   -5.6160   -2.4437 C.2       1 <0>         0.5168
     16 O3          2.5408   -5.5323   -3.1598 O.2       1 <0>        -0.5210
     17 N2          1.3178   -6.6290   -1.5956 N.am      1 <0>        -0.6113
     18 C12         0.0490   -6.4306   -0.8832 C.3       1 <0>         0.1154
     19 C13         2.2002   -7.7831   -1.4063 C.3       1 <0>         0.1639
     20 C14         3.5696   -7.3038   -0.9207 C.3       1 <0>        -0.1337
     21 C15         4.4911   -8.5091   -0.7230 C.3       1 <0>        -0.1146
     22 C16         4.6520   -9.2514   -2.0511 C.3       1 <0>        -0.1229
     23 C17         3.2826   -9.7306   -2.5367 C.3       1 <0>        -0.1146
     24 C18         2.3611   -8.5254   -2.7345 C.3       1 <0>        -0.1335
     25 Cl1         3.7737   -2.3342    3.6183 Cl        1 <0>        -0.0612
     26 H2         -0.6083    1.7505    0.9805 H         1 <0>         0.0592
     27 H3         -2.2620    1.2709    0.5293 H         1 <0>         0.1044
     28 H4         -1.6766    0.9954    2.1875 H         1 <0>         0.0590
     29 H5          0.3566    0.9663    2.6706 H         1 <0>         0.1433
     30 H6          2.3229    0.1012    3.8709 H         1 <0>         0.1391
     31 H7          2.2132   -3.4561    1.5180 H         1 <0>         0.1624
     32 H8         -0.4172   -2.3463   -0.6157 H         1 <0>         0.4190
     33 H9         -0.2161   -4.7002   -3.2298 H         1 <0>         0.1204
     34 H10         0.8606   -3.5859   -2.3304 H         1 <0>         0.1052
     35 H11         0.1687   -6.6661    0.1743 H         1 <0>         0.0994
     36 H12        -0.7317   -7.0514   -1.3226 H         1 <0>         0.0848
     37 H13         1.7664   -8.4544   -0.6652 H         1 <0>         0.0881
     38 H14         4.0034   -6.6325   -1.6618 H         1 <0>         0.0770
     39 H15         3.4549   -6.7750    0.0255 H         1 <0>         0.0652
     40 H16         5.4667   -8.1677   -0.3770 H         1 <0>         0.0657
     41 H17         4.0573   -9.1804    0.0182 H         1 <0>         0.0624
     42 H18         5.0858   -8.5801   -2.7923 H         1 <0>         0.0640
     43 H19         5.3085  -10.1100   -1.9103 H         1 <0>         0.0634
     44 H20         3.3972  -10.2594   -3.4829 H         1 <0>         0.0657
     45 H21         2.8488  -10.4019   -1.7956 H         1 <0>         0.0624
     46 H22         1.3855   -8.8668   -3.0804 H         1 <0>         0.0623
     47 H23         2.7949   -7.8541   -3.4756 H         1 <0>         0.0789
@<TRIPOS>BOND
     1    1    2 1
     2    1   26 1
     3    1   27 1
     4    1   28 1
     5    2    3 1
     6    3    8 ar
     7    3    4 ar
     8    4    5 ar
     9    4   29 1
    10    5    6 ar
    11    5   30 1
    12    6    7 ar
    13    6   25 1
    14    7    8 ar
    15    7   31 1
    16    8    9 1
    17    9   10 am
    18    9   32 1
    19   10   11 2
    20   10   12 1
    21   12   13 1
    22   12   18 1
    23   12   14 1
    24   14   15 1
    25   14   33 1
    26   14   34 1
    27   15   16 2
    28   15   17 am
    29   17   18 1
    30   17   19 1
    31   18   35 1
    32   18   36 1
    33   19   24 1
    34   19   20 1
    35   19   37 1
    36   20   21 1
    37   20   38 1
    38   20   39 1
    39   21   22 1
    40   21   40 1
    41   21   41 1
    42   22   23 1
    43   22   42 1
    44   22   43 1
    45   23   24 1
    46   23   44 1
    47   23   45 1
    48   24   46 1
    49   24   47 1
@<TRIPOS>MOLECULE
ZINC00851723
   43    45     0     0     0
SMALL
USER_CHARGES
N-(3-bromophenyl)-1-cyclohexyl-5-oxo-pyrrolidine-3-carboxamide
@<TRIPOS>ATOM
      1 C1         -1.1619    3.8037    0.6565 C.ar      1 <0>        -0.0943
      2 C2          0.0224    4.5148    0.6428 C.ar      1 <0>        -0.1050
      3 C3          1.1434    3.9825    0.0199 C.ar      1 <0>         0.1471
      4 C4          1.0706    2.7358   -0.5877 C.ar      1 <0>        -0.1159
      5 C5         -0.1167    2.0292   -0.5708 C.ar      1 <0>        -0.0732
      6 C6         -1.2335    2.5652    0.0464 C.ar      1 <0>        -0.1026
      7 Br1        -0.2179    0.3318   -1.3982 Br        1 <0>        -0.0425
      8 N1          2.3443    4.7005    0.0049 N.am      1 <0>        -0.6689
      9 C7          2.3246    6.0448   -0.0899 C.2       1 <0>         0.5296
     10 O1          1.2668    6.6381   -0.0775 O.2       1 <0>        -0.5084
     11 C8          3.6167    6.8106   -0.2111 C.3       1 <0>        -0.1228
     12 H1          4.2380    6.6660    0.6728 H         1 <0>         0.1259
     13 C9          4.3793    6.4096   -1.4951 C.3       1 <0>        -0.1488
     14 C10         4.9961    7.7033   -1.9796 C.2       1 <0>         0.5209
     15 O2          5.8944    7.7836   -2.7905 O.2       1 <0>        -0.5188
     16 N2          4.4041    8.7506   -1.3801 N.am      1 <0>        -0.6159
     17 C11         3.3486    8.3115   -0.4598 C.3       1 <0>         0.1179
     18 C12         4.7664   10.1506   -1.6148 C.3       1 <0>         0.1616
     19 C13         4.5659   10.4883   -3.0936 C.3       1 <0>        -0.1347
     20 C14         4.9442   11.9503   -3.3387 C.3       1 <0>        -0.1150
     21 C15         6.4106   12.1680   -2.9601 C.3       1 <0>        -0.1233
     22 C16         6.6111   11.8304   -1.4814 C.3       1 <0>        -0.1150
     23 C17         6.2327   10.3683   -1.2363 C.3       1 <0>        -0.1336
     24 H2         -2.0339    4.2175    1.1409 H         1 <0>         0.1377
     25 H3          0.0763    5.4839    1.1164 H         1 <0>         0.1463
     26 H4          1.9407    2.3193   -1.0733 H         1 <0>         0.1370
     27 H5         -2.1616    2.0130    0.0550 H         1 <0>         0.1356
     28 H6          3.1910    4.2307    0.0627 H         1 <0>         0.4156
     29 H7          5.1554    5.6795   -1.2656 H         1 <0>         0.1131
     30 H8          3.6896    6.0132   -2.2403 H         1 <0>         0.1092
     31 H9          2.3686    8.4489   -0.9167 H         1 <0>         0.0918
     32 H10         3.4100    8.8659    0.4767 H         1 <0>         0.0883
     33 H11         4.1341   10.7966   -1.0057 H         1 <0>         0.0892
     34 H12         5.1982    9.8423   -3.7027 H         1 <0>         0.0793
     35 H13         3.5212   10.3332   -3.3633 H         1 <0>         0.0632
     36 H14         4.3120   12.5963   -2.7296 H         1 <0>         0.0628
     37 H15         4.8014   12.1909   -4.3922 H         1 <0>         0.0665
     38 H16         6.6801   13.2096   -3.1348 H         1 <0>         0.0641
     39 H17         7.0429   11.5221   -3.5693 H         1 <0>         0.0646
     40 H18         5.9788   12.4764   -0.8722 H         1 <0>         0.0627
     41 H19         7.6557   11.9855   -1.2117 H         1 <0>         0.0665
     42 H20         6.3756   10.1278   -0.1828 H         1 <0>         0.0628
     43 H21         6.8650    9.7224   -1.8454 H         1 <0>         0.0792
@<TRIPOS>BOND
     1    1    6 ar
     2    1    2 ar
     3    1   24 1
     4    2    3 ar
     5    2   25 1
     6    3    4 ar
     7    3    8 1
     8    4    5 ar
     9    4   26 1
    10    5    6 ar
    11    5    7 1
    12    6   27 1
    13    8    9 am
    14    8   28 1
    15    9   10 2
    16    9   11 1
    17   11   12 1
    18   11   17 1
    19   11   13 1
    20   13   14 1
    21   13   29 1
    22   13   30 1
    23   14   15 2
    24   14   16 am
    25   16   17 1
    26   16   18 1
    27   17   31 1
    28   17   32 1
    29   18   23 1
    30   18   19 1
    31   18   33 1
    32   19   20 1
    33   19   34 1
    34   19   35 1
    35   20   21 1
    36   20   36 1
    37   20   37 1
    38   21   22 1
    39   21   38 1
    40   21   39 1
    41   22   23 1
    42   22   40 1
    43   22   41 1
    44   23   42 1
    45   23   43 1
@<TRIPOS>MOLECULE
ZINC00851724
   43    45     0     0     0
SMALL
USER_CHARGES
N-(3-bromophenyl)-1-cyclohexyl-5-oxo-pyrrolidine-3-carboxamide
@<TRIPOS>ATOM
      1 C1         -1.1617    3.8045    0.6575 C.ar      1 <0>        -0.0941
      2 C2          0.0227    4.5152    0.6434 C.ar      1 <0>        -0.1045
      3 C3          1.1434    3.9825    0.0202 C.ar      1 <0>         0.1483
      4 C4          1.0699    2.7359   -0.5875 C.ar      1 <0>        -0.1161
      5 C5         -0.1176    2.0296   -0.5701 C.ar      1 <0>        -0.0731
      6 C6         -1.2340    2.5660    0.0475 C.ar      1 <0>        -0.1027
      7 Br1        -0.2196    0.3323   -1.3975 Br        1 <0>        -0.0429
      8 N1          2.3443    4.7005    0.0040 N.am      1 <0>        -0.6705
      9 C7          2.3245    6.0448   -0.0908 C.2       1 <0>         0.5236
     10 O1          1.2667    6.6381   -0.0777 O.2       1 <0>        -0.5052
     11 C8          3.6166    6.8106   -0.2130 C.3       1 <0>        -0.1247
     12 H1          4.1699    6.4993   -1.0991 H         1 <0>         0.1326
     13 C9          4.4774    6.6507    1.0615 C.3       1 <0>        -0.1491
     14 C10         4.1001    7.8409    1.9157 C.2       1 <0>         0.5165
     15 O2          4.3329    7.9466    3.1013 O.2       1 <0>        -0.5207
     16 N2          3.4701    8.7645    1.1694 N.am      1 <0>        -0.6112
     17 C11         3.3572    8.3334   -0.2299 C.3       1 <0>         0.1151
     18 C12         2.9615   10.0376    1.6856 C.3       1 <0>         0.1638
     19 C13         4.1190   10.8503    2.2693 C.3       1 <0>        -0.1337
     20 C14         3.5878   12.1800    2.8083 C.3       1 <0>        -0.1147
     21 C15         2.5521   11.9098    3.9017 C.3       1 <0>        -0.1230
     22 C16         1.3946   11.0971    3.3180 C.3       1 <0>        -0.1147
     23 C17         1.9258    9.7675    2.7789 C.3       1 <0>        -0.1333
     24 H2         -2.0336    4.2188    1.1419 H         1 <0>         0.1372
     25 H3          0.0770    5.4846    1.1164 H         1 <0>         0.1448
     26 H4          1.9398    2.3191   -1.0733 H         1 <0>         0.1368
     27 H5         -2.1624    2.0144    0.0560 H         1 <0>         0.1356
     28 H6          3.1911    4.2307    0.0610 H         1 <0>         0.4147
     29 H7          4.2317    5.7204    1.5735 H         1 <0>         0.1046
     30 H8          5.5380    6.6812    0.8118 H         1 <0>         0.1208
     31 H9          4.1059    8.8368   -0.8416 H         1 <0>         0.0851
     32 H10         2.3569    8.5414   -0.6097 H         1 <0>         0.0991
     33 H11         2.4962   10.5985    0.8750 H         1 <0>         0.0882
     34 H12         4.5843   10.2895    3.0799 H         1 <0>         0.0790
     35 H13         4.8568   11.0428    1.4904 H         1 <0>         0.0625
     36 H14         3.1225   12.7408    1.9977 H         1 <0>         0.0625
     37 H15         4.4124   12.7590    3.2241 H         1 <0>         0.0661
     38 H16         2.1737   12.8571    4.2857 H         1 <0>         0.0637
     39 H17         3.0174   11.3490    4.7123 H         1 <0>         0.0641
     40 H18         0.9293   11.6580    2.5074 H         1 <0>         0.0625
     41 H19         0.6568   10.9047    4.0969 H         1 <0>         0.0657
     42 H20         1.1012    9.1885    2.3632 H         1 <0>         0.0646
     43 H21         2.3911    9.2066    3.5896 H         1 <0>         0.0769
@<TRIPOS>BOND
     1    1    6 ar
     2    1    2 ar
     3    1   24 1
     4    2    3 ar
     5    2   25 1
     6    3    4 ar
     7    3    8 1
     8    4    5 ar
     9    4   26 1
    10    5    6 ar
    11    5    7 1
    12    6   27 1
    13    8    9 am
    14    8   28 1
    15    9   10 2
    16    9   11 1
    17   11   12 1
    18   11   17 1
    19   11   13 1
    20   13   14 1
    21   13   29 1
    22   13   30 1
    23   14   15 2
    24   14   16 am
    25   16   17 1
    26   16   18 1
    27   17   31 1
    28   17   32 1
    29   18   23 1
    30   18   19 1
    31   18   33 1
    32   19   20 1
    33   19   34 1
    34   19   35 1
    35   20   21 1
    36   20   36 1
    37   20   37 1
    38   21   22 1
    39   21   38 1
    40   21   39 1
    41   22   23 1
    42   22   40 1
    43   22   41 1
    44   23   42 1
    45   23   43 1
@<TRIPOS>MOLECULE
ZINC04487712
   43    45     0     0     0
SMALL
USER_CHARGES
1-cyclohexyl-N-(3,5-difluorophenyl)-5-oxo-pyrrolidine-3-carboxamide
@<TRIPOS>ATOM
      1 C1          1.0163    2.1048    0.5975 C.ar      1 <0>        -0.1910
      2 C2         -0.0176    1.3950    0.0019 C.ar      1 <0>         0.2034
      3 C3         -1.0684    2.0753   -0.5989 C.ar      1 <0>        -0.1687
      4 C4         -1.0884    3.4586   -0.5937 C.ar      1 <0>         0.1534
      5 C5         -0.0565    4.1648    0.0012 C.ar      1 <0>        -0.2053
      6 C6          0.9949    3.4882    0.5963 C.ar      1 <0>         0.1533
      7 F1          2.0008    4.1793    1.1757 F         1 <0>        -0.1252
      8 F2         -2.1130    4.1211   -1.1740 F         1 <0>        -0.1244
      9 N1          0.0021   -0.0041    0.0020 N.am      1 <0>        -0.6695
     10 C7         -1.1504   -0.6943    0.1110 C.2       1 <0>         0.5241
     11 O1         -2.2108   -0.1057    0.1245 O.2       1 <0>        -0.5002
     12 C8         -1.1215   -2.1973    0.2162 C.3       1 <0>        -0.1238
     13 H1         -0.5951   -2.5132    1.1169 H         1 <0>         0.1353
     14 C9         -0.4878   -2.8282   -1.0452 C.3       1 <0>        -0.1502
     15 C10        -1.6678   -3.1264   -1.9436 C.2       1 <0>         0.5159
     16 O2         -1.5945   -3.3644   -3.1306 O.2       1 <0>        -0.5197
     17 N2         -2.8095   -3.0886   -1.2351 N.am      1 <0>        -0.6118
     18 C11        -2.5509   -2.7818    0.1766 C.3       1 <0>         0.1140
     19 C12        -4.1409   -3.3228   -1.7997 C.3       1 <0>         0.1635
     20 C13        -4.1991   -4.7277   -2.4029 C.3       1 <0>        -0.1335
     21 C14        -5.5896   -4.9724   -2.9925 C.3       1 <0>        -0.1148
     22 C15        -5.8704   -3.9369   -4.0833 C.3       1 <0>        -0.1230
     23 C16        -5.8122   -2.5321   -3.4801 C.3       1 <0>        -0.1148
     24 C17        -4.4218   -2.2874   -2.8905 C.3       1 <0>        -0.1336
     25 H2          1.8369    1.5775    1.0611 H         1 <0>         0.1482
     26 H3         -1.8713    1.5250   -1.0667 H         1 <0>         0.1577
     27 H4         -0.0716    5.2446    0.0008 H         1 <0>         0.1521
     28 H5          0.8452   -0.4772   -0.0763 H         1 <0>         0.4187
     29 H6          0.1889   -2.1219   -1.5262 H         1 <0>         0.1047
     30 H7          0.0403   -3.7465   -0.7883 H         1 <0>         0.1219
     31 H8         -2.6034   -3.6908    0.7759 H         1 <0>         0.0861
     32 H9         -3.2691   -2.0472    0.5407 H         1 <0>         0.1000
     33 H10        -4.8900   -3.2340   -1.0128 H         1 <0>         0.0886
     34 H11        -3.4500   -4.8166   -3.1897 H         1 <0>         0.0789
     35 H12        -3.9990   -5.4654   -1.6258 H         1 <0>         0.0626
     36 H13        -6.3386   -4.8835   -2.2057 H         1 <0>         0.0626
     37 H14        -5.6310   -5.9732   -3.4222 H         1 <0>         0.0662
     38 H15        -6.8610   -4.1112   -4.5033 H         1 <0>         0.0638
     39 H16        -5.1213   -4.0258   -4.8701 H         1 <0>         0.0642
     40 H17        -6.5613   -2.4432   -2.6932 H         1 <0>         0.0627
     41 H18        -6.0123   -1.7944   -4.2572 H         1 <0>         0.0660
     42 H19        -4.3803   -1.2866   -2.4607 H         1 <0>         0.0644
     43 H20        -3.6727   -2.3763   -3.6773 H         1 <0>         0.0771
@<TRIPOS>BOND
     1    1    6 ar
     2    1    2 ar
     3    1   25 1
     4    2    3 ar
     5    2    9 1
     6    3    4 ar
     7    3   26 1
     8    4    5 ar
     9    4    8 1
    10    5    6 ar
    11    5   27 1
    12    6    7 1
    13    9   10 am
    14    9   28 1
    15   10   11 2
    16   10   12 1
    17   12   13 1
    18   12   18 1
    19   12   14 1
    20   14   15 1
    21   14   29 1
    22   14   30 1
    23   15   16 2
    24   15   17 am
    25   17   18 1
    26   17   19 1
    27   18   31 1
    28   18   32 1
    29   19   24 1
    30   19   20 1
    31   19   33 1
    32   20   21 1
    33   20   34 1
    34   20   35 1
    35   21   22 1
    36   21   36 1
    37   21   37 1
    38   22   23 1
    39   22   38 1
    40   22   39 1
    41   23   24 1
    42   23   40 1
    43   23   41 1
    44   24   42 1
    45   24   43 1
@<TRIPOS>MOLECULE
ZINC04487713
   43    45     0     0     0
SMALL
USER_CHARGES
1-cyclohexyl-N-(3,5-difluorophenyl)-5-oxo-pyrrolidine-3-carboxamide
@<TRIPOS>ATOM
      1 C1         -0.7010    1.8876   -4.7474 C.ar      1 <0>        -0.1923
      2 C2         -1.2584    1.7186   -3.4870 C.ar      1 <0>         0.2061
      3 C3         -2.6141    1.9473   -3.2931 C.ar      1 <0>        -0.1703
      4 C4         -3.4046    2.3536   -4.3534 C.ar      1 <0>         0.1554
      5 C5         -2.8468    2.5216   -5.6096 C.ar      1 <0>        -0.2064
      6 C6         -1.4961    2.2884   -5.8062 C.ar      1 <0>         0.1552
      7 F1         -0.9542    2.4530   -7.0328 F         1 <0>        -0.1249
      8 F2         -4.7227    2.5817   -4.1641 F         1 <0>        -0.1242
      9 N1         -0.4562    1.3128   -2.4149 N.am      1 <0>        -0.6684
     10 C7         -0.7209    1.7554   -1.1697 C.2       1 <0>         0.5297
     11 O1         -1.5933    2.5789   -0.9916 O.2       1 <0>        -0.5015
     12 C8          0.0669    1.2270    0.0012 C.3       1 <0>        -0.1227
     13 H1         -0.0409    0.1456    0.0852 H         1 <0>         0.1277
     14 C9          1.5564    1.6278   -0.1079 C.3       1 <0>        -0.1496
     15 C10         1.9698    1.9113    1.3194 C.2       1 <0>         0.5211
     16 O2          3.1160    1.9844    1.7092 O.2       1 <0>        -0.5182
     17 N2          0.8820    2.0695    2.0931 N.am      1 <0>        -0.6156
     18 C11        -0.3526    1.9279    1.3124 C.3       1 <0>         0.1166
     19 C12         0.9236    2.3471    3.5309 C.3       1 <0>         0.1615
     20 C13         1.6682    3.6612    3.7753 C.3       1 <0>        -0.1347
     21 C14         1.7116    3.9511    5.2770 C.3       1 <0>        -0.1151
     22 C15         2.4377    2.8121    5.9956 C.3       1 <0>        -0.1233
     23 C16         1.6931    1.4981    5.7512 C.3       1 <0>        -0.1151
     24 C17         1.6497    1.2082    4.2495 C.3       1 <0>        -0.1335
     25 H2          0.3526    1.7065   -4.9010 H         1 <0>         0.1484
     26 H3         -3.0504    1.8122   -2.3145 H         1 <0>         0.1547
     27 H4         -3.4660    2.8352   -6.4370 H         1 <0>         0.1523
     28 H5          0.2906    0.7129   -2.5678 H         1 <0>         0.4196
     29 H6          2.1433    0.8065   -0.5191 H         1 <0>         0.1140
     30 H7          1.6671    2.5203   -0.7237 H         1 <0>         0.1099
     31 H8         -0.7771    2.9084    1.0968 H         1 <0>         0.0930
     32 H9         -1.0731    1.3149    1.8539 H         1 <0>         0.0888
     33 H10        -0.0934    2.4290    3.9147 H         1 <0>         0.0895
     34 H11         2.6851    3.5793    3.3916 H         1 <0>         0.0793
     35 H12         1.1509    4.4726    3.2634 H         1 <0>         0.0633
     36 H13         0.6947    4.0330    5.6607 H         1 <0>         0.0629
     37 H14         2.2421    4.8873    5.4511 H         1 <0>         0.0666
     38 H15         2.4686    3.0187    7.0654 H         1 <0>         0.0642
     39 H16         3.4546    2.7303    5.6118 H         1 <0>         0.0646
     40 H17         0.6762    1.5800    6.1349 H         1 <0>         0.0628
     41 H18         2.2104    0.6867    6.2631 H         1 <0>         0.0666
     42 H19         1.1192    0.2720    4.0754 H         1 <0>         0.0629
     43 H20         2.6666    1.1263    3.8658 H         1 <0>         0.0792
@<TRIPOS>BOND
     1    1    6 ar
     2    1    2 ar
     3    1   25 1
     4    2    3 ar
     5    2    9 1
     6    3    4 ar
     7    3   26 1
     8    4    5 ar
     9    4    8 1
    10    5    6 ar
    11    5   27 1
    12    6    7 1
    13    9   10 am
    14    9   28 1
    15   10   11 2
    16   10   12 1
    17   12   13 1
    18   12   18 1
    19   12   14 1
    20   14   15 1
    21   14   29 1
    22   14   30 1
    23   15   16 2
    24   15   17 am
    25   17   18 1
    26   17   19 1
    27   18   31 1
    28   18   32 1
    29   19   24 1
    30   19   20 1
    31   19   33 1
    32   20   21 1
    33   20   34 1
    34   20   35 1
    35   21   22 1
    36   21   36 1
    37   21   37 1
    38   22   23 1
    39   22   38 1
    40   22   39 1
    41   23   24 1
    42   23   40 1
    43   23   41 1
    44   24   42 1
    45   24   43 1
@<TRIPOS>MOLECULE
ZINC08816058
   49    51     0     0     0
SMALL
USER_CHARGES
(3S)-1-cyclohexyl-N-(3,5-dimethylphenyl)-5-oxo-pyrrolidine-3-carboxamide
@<TRIPOS>ATOM
      1 C1          6.4213    2.5142    3.2976 C.3       1 <0>        -0.1176
      2 C2          5.6225    2.3418    2.0314 C.ar      1 <0>        -0.0617
      3 C3          6.2046    2.6090    0.8059 C.ar      1 <0>        -0.1371
      4 C4          5.4750    2.4520   -0.3583 C.ar      1 <0>        -0.0619
      5 C5          4.1617    2.0285   -0.3002 C.ar      1 <0>        -0.1295
      6 C6          3.5741    1.7599    0.9291 C.ar      1 <0>         0.1563
      7 C7          4.3078    1.9236    2.0967 C.ar      1 <0>        -0.1537
      8 N1          2.2437    1.3306    0.9914 N.am      1 <0>        -0.6835
      9 C8          1.3484    1.7777    0.0887 C.2       1 <0>         0.5191
     10 O1          1.6713    2.6240   -0.7179 O.2       1 <0>        -0.5151
     11 C9         -0.0540    1.2262    0.0816 C.3       1 <0>        -0.1241
     12 H1          0.0848    0.1478   -0.0852 H         1 <0>         0.1226
     13 C10        -0.7974    1.5872    1.3885 C.3       1 <0>        -0.1468
     14 C11        -2.2183    1.8567    0.9448 C.2       1 <0>         0.5244
     15 O2         -3.1802    1.8984    1.6823 O.2       1 <0>        -0.5202
     16 N2         -2.2598    2.0425   -0.3858 N.am      1 <0>        -0.6142
     17 C12        -0.9217    1.9356   -0.9816 C.3       1 <0>         0.1166
     18 C13        -3.4827    2.3165   -1.1445 C.3       1 <0>         0.1628
     19 C14        -4.1208    3.6098   -0.6336 C.3       1 <0>        -0.1349
     20 C15        -5.3981    3.8959   -1.4260 C.3       1 <0>        -0.1156
     21 C16        -6.3804    2.7368   -1.2459 C.3       1 <0>        -0.1238
     22 C17        -5.7422    1.4435   -1.7568 C.3       1 <0>        -0.1155
     23 C18        -4.4650    1.1574   -0.9644 C.3       1 <0>        -0.1335
     24 C19         6.1134    2.7438   -1.6918 C.3       1 <0>        -0.1178
     25 H2          7.4382    2.8502    3.0467 H         1 <0>         0.0674
     26 H3          6.4737    1.5540    3.8316 H         1 <0>         0.0712
     27 H4          5.9350    3.2642    3.9386 H         1 <0>         0.0709
     28 H5          7.2313    2.9406    0.7578 H         1 <0>         0.1228
     29 H6          3.5924    1.9061   -1.2097 H         1 <0>         0.1323
     30 H7          3.8522    1.7201    3.0545 H         1 <0>         0.1247
     31 H8          1.9286    0.6282    1.7771 H         1 <0>         0.4360
     32 H9         -0.7373    0.7420    2.0900 H         1 <0>         0.1125
     33 H10        -0.3314    2.4742    1.8424 H         1 <0>         0.1102
     34 H11        -0.4976    2.9270   -1.1989 H         1 <0>         0.0949
     35 H12        -0.9381    1.3340   -1.9024 H         1 <0>         0.0873
     36 H13        -3.1931    2.4184   -2.2008 H         1 <0>         0.0883
     37 H14        -4.3675    3.5005    0.4328 H         1 <0>         0.0807
     38 H15        -3.4146    4.4432   -0.7630 H         1 <0>         0.0635
     39 H16        -5.8569    4.8258   -1.0587 H         1 <0>         0.0667
     40 H17        -5.1513    4.0051   -2.4924 H         1 <0>         0.0630
     41 H18        -6.6271    2.6276   -0.1795 H         1 <0>         0.0650
     42 H19        -7.2987    2.9425   -1.8155 H         1 <0>         0.0643
     43 H20        -6.4484    0.6101   -1.6274 H         1 <0>         0.0667
     44 H21        -5.4954    1.5527   -2.8232 H         1 <0>         0.0629
     45 H22        -4.0062    0.2275   -1.3316 H         1 <0>         0.0631
     46 H23        -4.7118    1.0482    0.1020 H         1 <0>         0.0806
     47 H24         5.3838    2.5631   -2.4950 H         1 <0>         0.0663
     48 H25         6.9843    2.0869   -1.8329 H         1 <0>         0.0715
     49 H26         6.4380    3.7944   -1.7208 H         1 <0>         0.0721
@<TRIPOS>BOND
     1    1    2 1
     2    1   25 1
     3    1   26 1
     4    1   27 1
     5    2    7 ar
     6    2    3 ar
     7    3    4 ar
     8    3   28 1
     9    4    5 ar
    10    4   24 1
    11    5    6 ar
    12    5   29 1
    13    6    7 ar
    14    6    8 1
    15    7   30 1
    16    8    9 am
    17    8   31 1
    18    9   10 2
    19    9   11 1
    20   11   12 1
    21   11   17 1
    22   11   13 1
    23   13   14 1
    24   13   32 1
    25   13   33 1
    26   14   15 2
    27   14   16 am
    28   16   17 1
    29   16   18 1
    30   17   34 1
    31   17   35 1
    32   18   23 1
    33   18   19 1
    34   18   36 1
    35   19   20 1
    36   19   37 1
    37   19   38 1
    38   20   21 1
    39   20   39 1
    40   20   40 1
    41   21   22 1
    42   21   41 1
    43   21   42 1
    44   22   23 1
    45   22   43 1
    46   22   44 1
    47   23   45 1
    48   23   46 1
    49   24   47 1
    50   24   48 1
    51   24   49 1
@<TRIPOS>MOLECULE
ZINC08816436
   49    51     0     0     0
SMALL
USER_CHARGES
(3R)-1-cyclohexyl-N-(3,5-dimethylphenyl)-5-oxo-pyrrolidine-3-carboxamide
@<TRIPOS>ATOM
      1 C1         -0.0967    0.8976    4.7248 C.3       1 <0>        -0.1175
      2 C2         -0.7573    1.4883    3.5059 C.ar      1 <0>        -0.0616
      3 C3          0.0047    1.8245    2.4020 C.ar      1 <0>        -0.1375
      4 C4         -0.5978    2.3659    1.2812 C.ar      1 <0>        -0.0622
      5 C5         -1.9631    2.5733    1.2616 C.ar      1 <0>        -0.1293
      6 C6         -2.7311    2.2372    2.3688 C.ar      1 <0>         0.1576
      7 C7         -2.1238    1.6880    3.4904 C.ar      1 <0>        -0.1543
      8 N1         -4.1145    2.4466    2.3522 N.am      1 <0>        -0.6850
      9 C8         -4.8020    2.3165    1.2003 C.2       1 <0>         0.5138
     10 O1         -4.2397    1.9254    0.1993 O.2       1 <0>        -0.5123
     11 C9         -6.2694    2.6568    1.1561 C.3       1 <0>        -0.1260
     12 H1         -6.3016    3.7291    1.3994 H         1 <0>         0.1310
     13 C10        -7.0765    1.7518    2.1155 C.3       1 <0>        -0.1481
     14 C11        -7.5346    0.6029    1.2444 C.2       1 <0>         0.5204
     15 O2         -7.9531   -0.4579    1.6572 O.2       1 <0>        -0.5216
     16 N2         -7.4094    0.9286   -0.0538 N.am      1 <0>        -0.6097
     17 C12        -6.8813    2.2885   -0.2137 C.3       1 <0>         0.1152
     18 C13        -7.7552    0.0400   -1.1660 C.3       1 <0>         0.1653
     19 C14        -9.2378   -0.3285   -1.0823 C.3       1 <0>        -0.1335
     20 C15        -9.5990   -1.2565   -2.2439 C.3       1 <0>        -0.1151
     21 C16        -8.7521   -2.5282   -2.1631 C.3       1 <0>        -0.1235
     22 C17        -7.2695   -2.1597   -2.2467 C.3       1 <0>        -0.1151
     23 C18        -6.9083   -1.2316   -1.0852 C.3       1 <0>        -0.1338
     24 C19         0.2363    2.7303    0.0802 C.3       1 <0>        -0.1174
     25 H2          0.9864    0.8152    4.5512 H         1 <0>         0.0674
     26 H3         -0.5138   -0.1013    4.9201 H         1 <0>         0.0709
     27 H4         -0.2805    1.5478    5.5928 H         1 <0>         0.0711
     28 H5          1.0725    1.6635    2.4150 H         1 <0>         0.1226
     29 H6         -2.4330    2.9969    0.3862 H         1 <0>         0.1318
     30 H7         -2.7189    1.4210    4.3512 H         1 <0>         0.1242
     31 H8         -4.6409    2.7174    3.2793 H         1 <0>         0.4345
     32 H9         -6.4256    1.4141    2.9354 H         1 <0>         0.1042
     33 H10        -7.9232    2.3191    2.5294 H         1 <0>         0.1203
     34 H11        -7.6797    3.0030   -0.4626 H         1 <0>         0.0844
     35 H12        -6.0999    2.3279   -0.9869 H         1 <0>         0.0996
     36 H13        -7.5440    0.5876   -2.0963 H         1 <0>         0.0874
     37 H14        -9.4351   -0.8405   -0.1289 H         1 <0>         0.0803
     38 H15        -9.8467    0.5857   -1.1403 H         1 <0>         0.0629
     39 H16       -10.6649   -1.5214   -2.1838 H         1 <0>         0.0664
     40 H17        -9.4017   -0.7445   -3.1973 H         1 <0>         0.0628
     41 H18        -8.9495   -3.0402   -1.2097 H         1 <0>         0.0645
     42 H19        -9.0118   -3.1954   -2.9982 H         1 <0>         0.0640
     43 H20        -6.6606   -3.0740   -2.1885 H         1 <0>         0.0659
     44 H21        -7.0721   -1.6478   -3.2001 H         1 <0>         0.0628
     45 H22        -5.8424   -0.9666   -1.1454 H         1 <0>         0.0647
     46 H23        -7.1055   -1.7436   -0.1318 H         1 <0>         0.0780
     47 H24        -0.4133    3.1431   -0.7057 H         1 <0>         0.0659
     48 H25         0.7452    1.8318   -0.2990 H         1 <0>         0.0718
     49 H26         0.9858    3.4820    0.3687 H         1 <0>         0.0715
@<TRIPOS>BOND
     1    1    2 1
     2    1   25 1
     3    1   26 1
     4    1   27 1
     5    2    7 ar
     6    2    3 ar
     7    3    4 ar
     8    3   28 1
     9    4    5 ar
    10    4   24 1
    11    5    6 ar
    12    5   29 1
    13    6    7 ar
    14    6    8 1
    15    7   30 1
    16    8    9 am
    17    8   31 1
    18    9   10 2
    19    9   11 1
    20   11   12 1
    21   11   17 1
    22   11   13 1
    23   13   14 1
    24   13   32 1
    25   13   33 1
    26   14   15 2
    27   14   16 am
    28   16   17 1
    29   16   18 1
    30   17   34 1
    31   17   35 1
    32   18   23 1
    33   18   19 1
    34   18   36 1
    35   19   20 1
    36   19   37 1
    37   19   38 1
    38   20   21 1
    39   20   39 1
    40   20   40 1
    41   21   22 1
    42   21   41 1
    43   21   42 1
    44   22   23 1
    45   22   43 1
    46   22   44 1
    47   23   45 1
    48   23   46 1
    49   24   47 1
    50   24   48 1
    51   24   49 1
@<TRIPOS>MOLECULE
ZINC20357436
   52    56     0     0     0
SMALL
USER_CHARGES
[4-(9H-fluoren-9-yl)piperazin-1-yl]-(p-tolyl)methanone
@<TRIPOS>ATOM
      1 C1         -0.9702   13.9687   -4.1204 C.3       1 <0>        -0.1238
      2 C2         -1.4457   12.5657   -3.8437 C.ar      1 <0>        -0.0589
      3 C3         -2.8015   12.2912   -3.8147 C.ar      1 <0>        -0.1271
      4 C4         -3.2435   11.0090   -3.5619 C.ar      1 <0>        -0.0570
      5 C5         -2.3196    9.9876   -3.3356 C.ar      1 <0>        -0.1404
      6 C6         -0.9534   10.2723   -3.3614 C.ar      1 <0>        -0.0981
      7 C7         -0.5246   11.5578   -3.6201 C.ar      1 <0>        -0.1293
      8 C8         -2.7861    8.6113   -3.0636 C.2       1 <0>         0.5616
      9 O1         -3.8555    8.2343   -3.5016 O.2       1 <0>        -0.5351
     10 N1         -2.0258    7.7746   -2.3299 N.am      1 <0>        -0.6082
     11 C9         -2.4058    6.3642   -2.1576 C.3       1 <0>         0.1160
     12 C10        -2.3842    6.0336   -0.6615 C.3       1 <0>         0.0420
     13 N2         -1.0756    6.3971   -0.1018 N.3       1 <0>        -0.5146
     14 C11        -0.8355    7.8427   -0.2034 C.3       1 <0>         0.0304
     15 C12        -0.7936    8.2476   -1.6808 C.3       1 <0>         0.0884
     16 C13        -0.9523    5.9394    1.2887 C.3       1 <0>         0.1643
     17 C14        -2.1858    6.3177    2.0715 C.ar      1 <0>        -0.1209
     18 C15        -2.7572    7.5373    2.3663 C.ar      1 <0>        -0.0964
     19 C16        -3.9183    7.5950    3.1167 C.ar      1 <0>        -0.1131
     20 C17        -4.5028    6.4304    3.5806 C.ar      1 <0>        -0.1126
     21 C18        -3.9383    5.2057    3.2901 C.ar      1 <0>        -0.0963
     22 C19        -2.7695    5.1396    2.5294 C.ar      1 <0>        -0.0476
     23 C20        -1.9626    3.9797    2.0761 C.ar      1 <0>        -0.0573
     24 C21        -0.8748    4.4331    1.3349 C.ar      1 <0>        -0.0758
     25 C22         0.0265    3.5358    0.8024 C.ar      1 <0>        -0.0797
     26 C23        -0.1473    2.1778    1.0031 C.ar      1 <0>        -0.1145
     27 C24        -1.2250    1.7176    1.7380 C.ar      1 <0>        -0.1142
     28 C25        -2.1314    2.6083    2.2748 C.ar      1 <0>        -0.0976
     29 H1         -1.8384   14.6269   -4.2717 H         1 <0>         0.0689
     30 H2         -0.3453   13.9722   -5.0256 H         1 <0>         0.0750
     31 H3         -0.3799   14.3310   -3.2659 H         1 <0>         0.0748
     32 H4         -3.5154   13.0824   -3.9900 H         1 <0>         0.1302
     33 H5         -4.3021   10.7960   -3.5396 H         1 <0>         0.1329
     34 H6         -0.2335    9.4873   -3.1827 H         1 <0>         0.1429
     35 H7          0.5323   11.7787   -3.6441 H         1 <0>         0.1301
     36 H8         -3.4160    6.2045   -2.5626 H         1 <0>         0.0980
     37 H9         -1.6903    5.7235   -2.6938 H         1 <0>         0.0775
     38 H10        -3.1743    6.6020   -0.1490 H         1 <0>         0.0462
     39 H11        -2.5578    4.9565   -0.5214 H         1 <0>         0.0881
     40 H12        -1.6466    8.3856    0.3040 H         1 <0>         0.0480
     41 H13         0.1248    8.0893    0.2730 H         1 <0>         0.0923
     42 H14         0.0781    7.7894   -2.1709 H         1 <0>         0.0826
     43 H15        -0.7300    9.3423   -1.7682 H         1 <0>         0.1131
     44 H16        -0.0442    6.4152    1.6873 H         1 <0>         0.1095
     45 H17        -2.3001    8.4480    2.0085 H         1 <0>         0.1219
     46 H18        -4.3668    8.5509    3.3436 H         1 <0>         0.1273
     47 H19        -5.4072    6.4798    4.1689 H         1 <0>         0.1279
     48 H20        -4.4000    4.2986    3.6511 H         1 <0>         0.1239
     49 H21         0.8688    3.8931    0.2286 H         1 <0>         0.1279
     50 H22         0.5593    1.4761    0.5850 H         1 <0>         0.1280
     51 H23        -1.3570    0.6570    1.8928 H         1 <0>         0.1269
     52 H24        -2.9713    2.2447    2.8483 H         1 <0>         0.1222
@<TRIPOS>BOND
     1    1    2 1
     2    1   29 1
     3    1   30 1
     4    1   31 1
     5    2    7 ar
     6    2    3 ar
     7    3    4 ar
     8    3   32 1
     9    4    5 ar
    10    4   33 1
    11    5    6 ar
    12    5    8 1
    13    6    7 ar
    14    6   34 1
    15    7   35 1
    16    8    9 2
    17    8   10 am
    18   10   15 1
    19   10   11 1
    20   11   12 1
    21   11   36 1
    22   11   37 1
    23   12   13 1
    24   12   38 1
    25   12   39 1
    26   13   14 1
    27   13   16 1
    28   14   15 1
    29   14   40 1
    30   14   41 1
    31   15   42 1
    32   15   43 1
    33   16   24 1
    34   16   17 1
    35   16   44 1
    36   17   22 ar
    37   17   18 ar
    38   18   19 ar
    39   18   45 1
    40   19   20 ar
    41   19   46 1
    42   20   21 ar
    43   20   47 1
    44   21   22 ar
    45   21   48 1
    46   22   23 1
    47   23   28 ar
    48   23   24 ar
    49   24   25 ar
    50   25   26 ar
    51   25   49 1
    52   26   27 ar
    53   26   50 1
    54   27   28 ar
    55   27   51 1
    56   28   52 1
@<TRIPOS>MOLECULE
ZINC00318537
   44    46     0     0     0
SMALL
USER_CHARGES
p-tolyl-[4-[3-(trifluoromethyl)phenyl]piperazin-1-yl]-methanone
@<TRIPOS>ATOM
      1 C1         -2.6983   10.7600   -5.8174 C.3       1 <0>        -0.1214
      2 C2         -1.8021   10.2717   -4.7086 C.ar      1 <0>        -0.0620
      3 C3         -0.5370   10.8112   -4.5574 C.ar      1 <0>        -0.1230
      4 C4          0.2883   10.3687   -3.5444 C.ar      1 <0>        -0.0646
      5 C5         -0.1555    9.3748   -2.6708 C.ar      1 <0>        -0.1363
      6 C6         -1.4310    8.8314   -2.8318 C.ar      1 <0>        -0.0888
      7 C7         -2.2482    9.2863   -3.8460 C.ar      1 <0>        -0.1242
      8 C8          0.7238    8.8954   -1.5832 C.2       1 <0>         0.5649
      9 O1          1.2729    9.6936   -0.8491 O.2       1 <0>        -0.5290
     10 N1          0.9168    7.5734   -1.4059 N.am      1 <0>        -0.6113
     11 C9          1.8512    7.0772   -0.3842 C.3       1 <0>         0.1159
     12 C10         2.8063    6.0763   -1.0431 C.3       1 <0>         0.0351
     13 N2          2.0255    5.0372   -1.7277 N.pl3     1 <0>        -0.4862
     14 C11         1.2182    5.6068   -2.8148 C.3       1 <0>         0.0409
     15 C12         0.1980    6.5886   -2.2285 C.3       1 <0>         0.1006
     16 C13         2.8552    4.0183   -2.2014 C.ar      1 <0>         0.1118
     17 C14         4.2273    4.0845   -1.9937 C.ar      1 <0>        -0.1398
     18 C15         5.0446    3.0757   -2.4637 C.ar      1 <0>        -0.0900
     19 C16         4.4988    2.0001   -3.1405 C.ar      1 <0>        -0.0986
     20 C17         3.1343    1.9338   -3.3538 C.ar      1 <0>        -0.1555
     21 C18         2.3103    2.9367   -2.8814 C.ar      1 <0>        -0.0914
     22 C19         2.5448    0.7632   -4.0976 C.3       1 <0>         0.5085
     23 F1          3.5674   -0.1167   -4.4682 F         1 <0>        -0.1754
     24 F2          1.6330    0.0972   -3.2716 F         1 <0>        -0.1747
     25 F3          1.8867    1.2224   -5.2436 F         1 <0>        -0.1761
     26 H1         -2.5325   10.1576   -6.7105 H         1 <0>         0.0758
     27 H2         -3.7398   10.6722   -5.5081 H         1 <0>         0.0705
     28 H3         -2.4708   11.8035   -6.0356 H         1 <0>         0.0704
     29 H4         -0.1948   11.5802   -5.2341 H         1 <0>         0.1306
     30 H5          1.2756   10.7906   -3.4275 H         1 <0>         0.1297
     31 H6         -1.7787    8.0589   -2.1618 H         1 <0>         0.1303
     32 H7         -3.2368    8.8693   -3.9694 H         1 <0>         0.1307
     33 H8          1.2946    6.5827    0.4119 H         1 <0>         0.0814
     34 H9          2.4208    7.9108    0.0268 H         1 <0>         0.1035
     35 H10         3.4339    5.6160   -0.2800 H         1 <0>         0.1003
     36 H11         3.4346    6.5953   -1.7669 H         1 <0>         0.0553
     37 H12         1.8686    6.1325   -3.5139 H         1 <0>         0.0543
     38 H13         0.6941    4.8061   -3.3367 H         1 <0>         0.0977
     39 H14        -0.5175    6.0470   -1.6098 H         1 <0>         0.0840
     40 H15        -0.3281    7.0994   -3.0349 H         1 <0>         0.1054
     41 H16         4.6542    4.9244   -1.4656 H         1 <0>         0.1372
     42 H17         6.1114    3.1268   -2.3029 H         1 <0>         0.1375
     43 H18         5.1403    1.2124   -3.5070 H         1 <0>         0.1393
     44 H19         1.2441    2.8821   -3.0445 H         1 <0>         0.1369
@<TRIPOS>BOND
     1    1    2 1
     2    1   26 1
     3    1   27 1
     4    1   28 1
     5    2    7 ar
     6    2    3 ar
     7    3    4 ar
     8    3   29 1
     9    4    5 ar
    10    4   30 1
    11    5    6 ar
    12    5    8 1
    13    6    7 ar
    14    6   31 1
    15    7   32 1
    16    8    9 2
    17    8   10 am
    18   10   15 1
    19   10   11 1
    20   11   12 1
    21   11   33 1
    22   11   34 1
    23   12   13 1
    24   12   35 1
    25   12   36 1
    26   13   14 1
    27   13   16 1
    28   14   15 1
    29   14   37 1
    30   14   38 1
    31   15   39 1
    32   15   40 1
    33   16   21 ar
    34   16   17 ar
    35   17   18 ar
    36   17   41 1
    37   18   19 ar
    38   18   42 1
    39   19   20 ar
    40   19   43 1
    41   20   21 ar
    42   20   22 1
    43   21   44 1
    44   22   23 1
    45   22   24 1
    46   22   25 1
@<TRIPOS>MOLECULE
ZINC14959298
   46    48     0     0     0
SMALL
USER_CHARGES
(3S)-1-cyclohexyl-5-oxo-N-[3-(trifluoromethyl)phenyl]pyrrolidine-3-carboxamide
@<TRIPOS>ATOM
      1 C1          2.2209    1.4135    0.5720 C.ar      1 <0>        -0.0993
      2 C2          1.1689    2.0859   -0.0229 C.ar      1 <0>        -0.0830
      3 C3          0.1399    1.3787   -0.6167 C.ar      1 <0>        -0.1643
      4 C4          0.1596   -0.0025   -0.6174 C.ar      1 <0>        -0.0741
      5 C5          1.2143   -0.6806   -0.0210 C.ar      1 <0>         0.1406
      6 C6          2.2465    0.0328    0.5746 C.ar      1 <0>        -0.1101
      7 N1          1.2374   -2.0796   -0.0204 N.am      1 <0>        -0.6690
      8 C7          0.0867   -2.7726    0.0890 C.2       1 <0>         0.5280
      9 O1         -0.9752   -2.1867    0.1024 O.2       1 <0>        -0.5068
     10 C8          0.1193   -4.2756    0.1946 C.3       1 <0>        -0.1224
     11 H1          0.5531   -4.7183   -0.7020 H         1 <0>         0.1265
     12 C9          0.8860   -4.7248    1.4601 C.3       1 <0>        -0.1484
     13 C10         0.1210   -5.9358    1.9469 C.2       1 <0>         0.5208
     14 O2          0.5414   -6.7495    2.7419 O.2       1 <0>        -0.5189
     15 N2         -1.0921   -5.9792    1.3696 N.am      1 <0>        -0.6155
     16 C11        -1.2926   -4.8416    0.4642 C.3       1 <0>         0.1172
     17 C12        -2.0862   -7.0275    1.6125 C.3       1 <0>         0.1613
     18 C13        -2.4510   -7.0499    3.0982 C.3       1 <0>        -0.1345
     19 C14        -3.4892   -8.1448    3.3519 C.3       1 <0>        -0.1151
     20 C15        -2.9084   -9.5017    2.9488 C.3       1 <0>        -0.1232
     21 C16        -2.5436   -9.4792    1.4631 C.3       1 <0>        -0.1151
     22 C17        -1.5054   -8.3843    1.2094 C.3       1 <0>        -0.1334
     23 C18        -1.0045    2.1155   -1.2637 C.3       1 <0>         0.5095
     24 F1         -2.0126    2.3336   -0.3186 F         1 <0>        -0.1737
     25 F2         -0.5503    3.3449   -1.7532 F         1 <0>        -0.1757
     26 F3         -1.5128    1.3521   -2.3201 F         1 <0>        -0.1753
     27 H2          3.0210    1.9687    1.0389 H         1 <0>         0.1420
     28 H3          1.1512    3.1658   -0.0236 H         1 <0>         0.1392
     29 H4         -0.6447   -0.5543   -1.0811 H         1 <0>         0.1531
     30 H5          3.0684   -0.4918    1.0390 H         1 <0>         0.1379
     31 H6          2.0817   -2.5507   -0.0988 H         1 <0>         0.4173
     32 H7          1.9111   -4.9969    1.2086 H         1 <0>         0.1132
     33 H8          0.8732   -3.9373    2.2136 H         1 <0>         0.1092
     34 H9         -1.9173   -4.0860    0.9405 H         1 <0>         0.0921
     35 H10        -1.7487   -5.1767   -0.4673 H         1 <0>         0.0887
     36 H11        -2.9797   -6.8248    1.0220 H         1 <0>         0.0894
     37 H12        -1.5575   -7.2526    3.6887 H         1 <0>         0.0793
     38 H13        -2.8648   -6.0833    3.3853 H         1 <0>         0.0632
     39 H14        -4.3827   -7.9421    2.7613 H         1 <0>         0.0629
     40 H15        -3.7491   -8.1608    4.4103 H         1 <0>         0.0666
     41 H16        -3.6481  -10.2816    3.1295 H         1 <0>         0.0641
     42 H17        -2.0149   -9.7043    3.5393 H         1 <0>         0.0646
     43 H18        -3.4371   -9.2765    0.8725 H         1 <0>         0.0628
     44 H19        -2.1298  -10.4458    1.1759 H         1 <0>         0.0665
     45 H20        -1.2455   -8.3683    0.1509 H         1 <0>         0.0629
     46 H21        -0.6119   -8.5870    1.7999 H         1 <0>         0.0791
@<TRIPOS>BOND
     1    1    6 ar
     2    1    2 ar
     3    1   27 1
     4    2    3 ar
     5    2   28 1
     6    3    4 ar
     7    3   23 1
     8    4    5 ar
     9    4   29 1
    10    5    6 ar
    11    5    7 1
    12    6   30 1
    13    7    8 am
    14    7   31 1
    15    8    9 2
    16    8   10 1
    17   10   11 1
    18   10   16 1
    19   10   12 1
    20   12   13 1
    21   12   32 1
    22   12   33 1
    23   13   14 2
    24   13   15 am
    25   15   16 1
    26   15   17 1
    27   16   34 1
    28   16   35 1
    29   17   22 1
    30   17   18 1
    31   17   36 1
    32   18   19 1
    33   18   37 1
    34   18   38 1
    35   19   20 1
    36   19   39 1
    37   19   40 1
    38   20   21 1
    39   20   41 1
    40   20   42 1
    41   21   22 1
    42   21   43 1
    43   21   44 1
    44   22   45 1
    45   22   46 1
    46   23   24 1
    47   23   25 1
    48   23   26 1
@<TRIPOS>MOLECULE
ZINC14959302
   46    48     0     0     0
SMALL
USER_CHARGES
(3R)-1-cyclohexyl-5-oxo-N-[3-(trifluoromethyl)phenyl]pyrrolidine-3-carboxamide
@<TRIPOS>ATOM
      1 C1         -5.8249   -6.4293    1.1909 C.ar      1 <0>        -0.0975
      2 C2         -7.1717   -6.5310    1.4882 C.ar      1 <0>        -0.0830
      3 C3         -7.9426   -5.3903    1.6155 C.ar      1 <0>        -0.1622
      4 C4         -7.3693   -4.1450    1.4465 C.ar      1 <0>        -0.0970
      5 C5         -6.0173   -4.0395    1.1480 C.ar      1 <0>         0.1455
      6 C6         -5.2470   -5.1875    1.0146 C.ar      1 <0>        -0.0889
      7 N1         -5.4335   -2.7795    0.9762 N.am      1 <0>        -0.6697
      8 C7         -4.1532   -2.5743    1.3438 C.2       1 <0>         0.5297
      9 O1         -3.5368   -3.4519    1.9105 O.2       1 <0>        -0.5070
     10 C8         -3.4874   -1.2545    1.0508 C.3       1 <0>        -0.1230
     11 H1         -3.9937   -0.4407    1.5699 H         1 <0>         0.1264
     12 C9         -3.4306   -0.9893   -0.4715 C.3       1 <0>        -0.1487
     13 C10        -2.0953   -0.3095   -0.6801 C.2       1 <0>         0.5209
     14 O2         -1.7791    0.3106   -1.6732 O.2       1 <0>        -0.5183
     15 N2         -1.3100   -0.4932    0.3953 N.am      1 <0>        -0.6161
     16 C11        -1.9855   -1.3023    1.4167 C.3       1 <0>         0.1182
     17 C12         0.0479    0.0403    0.5282 C.3       1 <0>         0.1615
     18 C13         0.0074    1.5669    0.4344 C.3       1 <0>        -0.1336
     19 C14         1.4255    2.1242    0.5732 C.3       1 <0>        -0.1151
     20 C15         2.3043    1.5674   -0.5487 C.3       1 <0>        -0.1234
     21 C16         2.3448    0.0408   -0.4550 C.3       1 <0>        -0.1151
     22 C17         0.9266   -0.5164   -0.5937 C.3       1 <0>        -0.1346
     23 C18        -9.4098   -5.5057    1.9396 C.3       1 <0>         0.5097
     24 F1        -10.1447   -5.5869    0.7519 F         1 <0>        -0.1747
     25 F2         -9.6295   -6.6569    2.7035 F         1 <0>        -0.1743
     26 F3         -9.8173   -4.3805    2.6641 F         1 <0>        -0.1764
     27 H2         -5.2254   -7.3222    1.0917 H         1 <0>         0.1415
     28 H3         -7.6223   -7.5035    1.6208 H         1 <0>         0.1396
     29 H4         -7.9720   -3.2544    1.5462 H         1 <0>         0.1405
     30 H5         -4.1962   -5.1089    0.7781 H         1 <0>         0.1441
     31 H6         -5.9502   -2.0538    0.5926 H         1 <0>         0.4166
     32 H7         -4.2450   -0.3314   -0.7748 H         1 <0>         0.1134
     33 H8         -3.4712   -1.9280   -1.0240 H         1 <0>         0.1093
     34 H9         -1.6198   -2.3287    1.3875 H         1 <0>         0.0918
     35 H10        -1.8254   -0.8720    2.4053 H         1 <0>         0.0884
     36 H11         0.4610   -0.2536    1.4931 H         1 <0>         0.0893
     37 H12        -0.4057    1.8609   -0.5305 H         1 <0>         0.0792
     38 H13        -0.6186    1.9636    1.2337 H         1 <0>         0.0629
     39 H14         1.3967    3.2118    0.5064 H         1 <0>         0.0666
     40 H15         1.8386    1.8302    1.5381 H         1 <0>         0.0628
     41 H16         3.3146    1.9644   -0.4499 H         1 <0>         0.0642
     42 H17         1.8912    1.8614   -1.5137 H         1 <0>         0.0646
     43 H18         2.7579   -0.2531    0.5099 H         1 <0>         0.0629
     44 H19         2.9708   -0.3558   -1.2543 H         1 <0>         0.0666
     45 H20         0.9554   -1.6040   -0.5270 H         1 <0>         0.0631
     46 H21         0.5135   -0.2225   -1.5586 H         1 <0>         0.0794
@<TRIPOS>BOND
     1    1    6 ar
     2    1    2 ar
     3    1   27 1
     4    2    3 ar
     5    2   28 1
     6    3    4 ar
     7    3   23 1
     8    4    5 ar
     9    4   29 1
    10    5    6 ar
    11    5    7 1
    12    6   30 1
    13    7    8 am
    14    7   31 1
    15    8    9 2
    16    8   10 1
    17   10   11 1
    18   10   16 1
    19   10   12 1
    20   12   13 1
    21   12   32 1
    22   12   33 1
    23   13   14 2
    24   13   15 am
    25   15   16 1
    26   15   17 1
    27   16   34 1
    28   16   35 1
    29   17   22 1
    30   17   18 1
    31   17   36 1
    32   18   19 1
    33   18   37 1
    34   18   38 1
    35   19   20 1
    36   19   39 1
    37   19   40 1
    38   20   21 1
    39   20   41 1
    40   20   42 1
    41   21   22 1
    42   21   43 1
    43   21   44 1
    44   22   45 1
    45   22   46 1
    46   23   24 1
    47   23   25 1
    48   23   26 1
@<TRIPOS>MOLECULE
ZINC00048204
   46    48     0     0     0
SMALL
USER_CHARGES

@<TRIPOS>ATOM
      1 C1         -1.2646    1.1832    0.1814 C.3       1 <0>        -0.1178
      2 C2         -0.5840   -0.1578    0.0844 C.ar      1 <0>        -0.1043
      3 C3         -0.5693   -0.8402   -1.1166 C.ar      1 <0>        -0.0900
      4 C4          0.0546   -2.0704   -1.2070 C.ar      1 <0>        -0.1182
      5 C5          0.6669   -2.6223   -0.0950 C.ar      1 <0>        -0.0228
      6 C6          0.6553   -1.9442    1.1092 C.ar      1 <0>        -0.1095
      7 C7          0.0336   -0.7058    1.2008 C.ar      1 <0>         0.1519
      8 N1          0.0251   -0.0140    2.4170 N.am      1 <0>        -0.6666
      9 C8         -0.0564   -0.6934    3.5782 C.2       1 <0>         0.5272
     10 O1         -0.0401   -1.9061    3.5737 O.2       1 <0>        -0.5059
     11 C9         -0.1678    0.0539    4.8821 C.3       1 <0>        -0.1227
     12 H1         -1.0554    0.6864    4.8924 H         1 <0>         0.1249
     13 C10         1.1073    0.8853    5.1541 C.3       1 <0>        -0.1491
     14 C11         1.3088    0.7769    6.6495 C.2       1 <0>         0.5212
     15 O2          2.0246    1.5013    7.3083 O.2       1 <0>        -0.5191
     16 N2          0.5788   -0.2387    7.1420 N.am      1 <0>        -0.6155
     17 C12        -0.1703   -0.9217    6.0799 C.3       1 <0>         0.1171
     18 C13         0.5354   -0.6154    8.5571 C.3       1 <0>         0.1614
     19 C14         0.0178    0.5639    9.3831 C.3       1 <0>        -0.1335
     20 C15        -0.0275    0.1705   10.8610 C.3       1 <0>        -0.1150
     21 C16         1.3790   -0.2040   11.3324 C.3       1 <0>        -0.1233
     22 C17         1.8966   -1.3833   10.5064 C.3       1 <0>        -0.1151
     23 C18         1.9420   -0.9899    9.0285 C.3       1 <0>        -0.1346
     24 Cl1         1.4493   -4.1675   -0.2130 Cl        1 <0>        -0.0628
     25 H2         -0.5494    1.9715   -0.0535 H         1 <0>         0.0759
     26 H3         -2.0933    1.2221   -0.5256 H         1 <0>         0.0758
     27 H4         -1.6434    1.3261    1.1934 H         1 <0>         0.0659
     28 H5         -1.0462   -0.4121   -1.9860 H         1 <0>         0.1378
     29 H6          0.0641   -2.6022   -2.1470 H         1 <0>         0.1361
     30 H7          1.1324   -2.3752    1.9770 H         1 <0>         0.1508
     31 H8          0.0778    0.9545    2.4244 H         1 <0>         0.4153
     32 H9          1.9595    0.4617    4.6227 H         1 <0>         0.1095
     33 H10         0.9540    1.9248    4.8642 H         1 <0>         0.1131
     34 H11        -1.1921   -1.1179    6.4045 H         1 <0>         0.0880
     35 H12         0.3255   -1.8536    5.8083 H         1 <0>         0.0930
     36 H13        -0.1302   -1.4689    8.6856 H         1 <0>         0.0892
     37 H14         0.6834    1.4175    9.2546 H         1 <0>         0.0791
     38 H15        -0.9842    0.8308    9.0473 H         1 <0>         0.0627
     39 H16        -0.3962    1.0107   11.4495 H         1 <0>         0.0664
     40 H17        -0.6931   -0.6830   10.9895 H         1 <0>         0.0627
     41 H18         2.0446    0.6495   11.2039 H         1 <0>         0.0646
     42 H19         1.3467   -0.4843   12.3853 H         1 <0>         0.0641
     43 H20         2.8987   -1.6501   10.8422 H         1 <0>         0.0665
     44 H21         1.2310   -2.2369   10.6349 H         1 <0>         0.0628
     45 H22         2.3107   -1.8300    8.4400 H         1 <0>         0.0633
     46 H23         2.6076   -0.1363    8.9000 H         1 <0>         0.0794
@<TRIPOS>BOND
     1    1    2 1
     2    1   25 1
     3    1   26 1
     4    1   27 1
     5    2    7 ar
     6    2    3 ar
     7    3    4 ar
     8    3   28 1
     9    4    5 ar
    10    4   29 1
    11    5    6 ar
    12    5   24 1
    13    6    7 ar
    14    6   30 1
    15    7    8 1
    16    8    9 am
    17    8   31 1
    18    9   10 2
    19    9   11 1
    20   11   12 1
    21   11   17 1
    22   11   13 1
    23   13   14 1
    24   13   32 1
    25   13   33 1
    26   14   15 2
    27   14   16 am
    28   16   17 1
    29   16   18 1
    30   17   34 1
    31   17   35 1
    32   18   23 1
    33   18   19 1
    34   18   36 1
    35   19   20 1
    36   19   37 1
    37   19   38 1
    38   20   21 1
    39   20   39 1
    40   20   40 1
    41   21   22 1
    42   21   41 1
    43   21   42 1
    44   22   23 1
    45   22   43 1
    46   22   44 1
    47   23   45 1
    48   23   46 1
@<TRIPOS>MOLECULE
ZINC51492080
   46    48     0     0     0
SMALL
USER_CHARGES

@<TRIPOS>ATOM
      1 C1         -1.2644    1.1834    0.1814 C.3       1 <0>        -0.1177
      2 C2         -0.5840   -0.1577    0.0844 C.ar      1 <0>        -0.1047
      3 C3         -0.5693   -0.8401   -1.1166 C.ar      1 <0>        -0.0900
      4 C4          0.0544   -2.0704   -1.2070 C.ar      1 <0>        -0.1188
      5 C5          0.6666   -2.6224   -0.0950 C.ar      1 <0>        -0.0230
      6 C6          0.6551   -1.9443    1.1092 C.ar      1 <0>        -0.1093
      7 C7          0.0336   -0.7058    1.2008 C.ar      1 <0>         0.1528
      8 N1          0.0251   -0.0140    2.4170 N.am      1 <0>        -0.6679
      9 C8         -0.0564   -0.6934    3.5782 C.2       1 <0>         0.5211
     10 O1         -0.0401   -1.9061    3.5737 O.2       1 <0>        -0.5030
     11 C9         -0.1678    0.0539    4.8821 C.3       1 <0>        -0.1250
     12 H1          0.6907    0.7094    5.0283 H         1 <0>         0.1321
     13 C10        -1.4909    0.8511    4.9518 C.3       1 <0>        -0.1483
     14 C11        -2.4516   -0.0850    5.6513 C.2       1 <0>         0.5168
     15 O2         -3.6583    0.0367    5.6590 O.2       1 <0>        -0.5212
     16 N2         -1.7734   -1.0714    6.2627 N.am      1 <0>        -0.6109
     17 C12        -0.3252   -0.9237    6.0678 C.3       1 <0>         0.1152
     18 C13        -2.3984   -2.1547    7.0255 C.3       1 <0>         0.1640
     19 C14        -3.3358   -2.9469    6.1119 C.3       1 <0>        -0.1334
     20 C15        -3.9885   -4.0783    6.9086 C.3       1 <0>        -0.1146
     21 C16        -4.7885   -3.4877    8.0715 C.3       1 <0>        -0.1229
     22 C17        -3.8510   -2.6956    8.9850 C.3       1 <0>        -0.1146
     23 C18        -3.1983   -1.5641    8.1884 C.3       1 <0>        -0.1333
     24 Cl1         1.4488   -4.1677   -0.2129 Cl        1 <0>        -0.0634
     25 H2         -0.5490    1.9716   -0.0535 H         1 <0>         0.0760
     26 H3         -2.0931    1.2224   -0.5256 H         1 <0>         0.0761
     27 H4         -1.6432    1.3263    1.1934 H         1 <0>         0.0652
     28 H5         -1.0461   -0.4120   -1.9860 H         1 <0>         0.1378
     29 H6          0.0639   -2.6021   -2.1470 H         1 <0>         0.1360
     30 H7          1.1321   -2.3754    1.9770 H         1 <0>         0.1506
     31 H8          0.0778    0.9545    2.4244 H         1 <0>         0.4146
     32 H9         -1.3563    1.7636    5.5327 H         1 <0>         0.1205
     33 H10        -1.8484    1.0853    3.9491 H         1 <0>         0.1042
     34 H11         0.1234   -1.8869    5.8247 H         1 <0>         0.0990
     35 H12         0.1356   -0.5075    6.9636 H         1 <0>         0.0851
     36 H13        -1.6256   -2.8172    7.4155 H         1 <0>         0.0881
     37 H14        -4.1085   -2.2844    5.7219 H         1 <0>         0.0766
     38 H15        -2.7659   -3.3676    5.2835 H         1 <0>         0.0648
     39 H16        -4.6564   -4.6426    6.2578 H         1 <0>         0.0656
     40 H17        -3.2158   -4.7408    7.2986 H         1 <0>         0.0625
     41 H18        -5.5612   -2.8252    7.6815 H         1 <0>         0.0640
     42 H19        -5.2535   -4.2937    8.6390 H         1 <0>         0.0637
     43 H20        -4.4209   -2.2748    9.8135 H         1 <0>         0.0660
     44 H21        -3.0783   -3.3580    9.3751 H         1 <0>         0.0625
     45 H22        -2.5305   -0.9998    8.8392 H         1 <0>         0.0624
     46 H23        -3.9710   -0.9016    7.7984 H         1 <0>         0.0788
@<TRIPOS>BOND
     1    1    2 1
     2    1   25 1
     3    1   26 1
     4    1   27 1
     5    2    7 ar
     6    2    3 ar
     7    3    4 ar
     8    3   28 1
     9    4    5 ar
    10    4   29 1
    11    5    6 ar
    12    5   24 1
    13    6    7 ar
    14    6   30 1
    15    7    8 1
    16    8    9 am
    17    8   31 1
    18    9   10 2
    19    9   11 1
    20   11   12 1
    21   11   17 1
    22   11   13 1
    23   13   14 1
    24   13   32 1
    25   13   33 1
    26   14   15 2
    27   14   16 am
    28   16   17 1
    29   16   18 1
    30   17   34 1
    31   17   35 1
    32   18   23 1
    33   18   19 1
    34   18   36 1
    35   19   20 1
    36   19   37 1
    37   19   38 1
    38   20   21 1
    39   20   39 1
    40   20   40 1
    41   21   22 1
    42   21   41 1
    43   21   42 1
    44   22   23 1
    45   22   43 1
    46   22   44 1
    47   23   45 1
    48   23   46 1
@<TRIPOS>MOLECULE
ZINC00758204
   38    40     0     0     0
SMALL
USER_CHARGES
[4-(3-chlorophenyl)piperazin-1-yl]-(3,4-dichlorophenyl)-methanone
@<TRIPOS>ATOM
      1 C1          0.7947    2.4099   -3.8582 C.ar      1 <0>        -0.0797
      2 C2         -0.1657    1.8028   -3.0726 C.ar      1 <0>        -0.1353
      3 C3         -1.4266    2.3731   -2.9541 C.ar      1 <0>         0.1228
      4 C4         -1.7149    3.5585   -3.6186 C.ar      1 <0>        -0.1646
      5 C5         -0.7498    4.1610   -4.4030 C.ar      1 <0>        -0.0070
      6 C6          0.5040    3.5867   -4.5227 C.ar      1 <0>        -0.1356
      7 Cl1        -1.1103    5.6389   -5.2394 Cl        1 <0>        -0.0665
      8 N1         -2.4014    1.7583   -2.1650 N.pl3     1 <0>        -0.4848
      9 C7         -2.6232    0.3695   -2.5892 C.3       1 <0>         0.0427
     10 C8         -3.5596   -0.3221   -1.5927 C.3       1 <0>         0.1155
     11 N2         -4.7790    0.4890   -1.4572 N.am      1 <0>        -0.6093
     12 C9         -4.6320    1.9235   -1.1678 C.3       1 <0>         0.0943
     13 C10        -3.6533    2.5267   -2.1810 C.3       1 <0>         0.0313
     14 C11        -5.9988   -0.0676   -1.5942 C.2       1 <0>         0.5652
     15 O1         -6.1016   -1.2326   -1.9257 O.2       1 <0>        -0.5221
     16 C12        -7.2114    0.7384   -1.3414 C.ar      1 <0>        -0.1178
     17 C13        -7.1987    1.7362   -0.3647 C.ar      1 <0>        -0.0806
     18 C14        -8.3314    2.4886   -0.1361 C.ar      1 <0>        -0.1034
     19 C15        -9.4841    2.2496   -0.8658 C.ar      1 <0>        -0.0096
     20 C16        -9.5051    1.2572   -1.8332 C.ar      1 <0>        -0.0381
     21 C17        -8.3756    0.5014   -2.0742 C.ar      1 <0>        -0.0425
     22 Cl2       -10.9541    0.9649   -2.7435 Cl        1 <0>        -0.0341
     23 Cl3       -10.9080    3.1970   -0.5680 Cl        1 <0>        -0.0350
     24 H1          1.7739    1.9644   -3.9536 H         1 <0>         0.1362
     25 H2          0.0623    0.8831   -2.5544 H         1 <0>         0.1329
     26 H3         -2.6933    4.0062   -3.5258 H         1 <0>         0.1372
     27 H4          1.2566    4.0588   -5.1369 H         1 <0>         0.1339
     28 H5         -3.0759    0.3599   -3.5807 H         1 <0>         0.0536
     29 H6         -1.6699   -0.1583   -2.6191 H         1 <0>         0.0999
     30 H7         -3.0663   -0.4062   -0.6244 H         1 <0>         0.0836
     31 H8         -3.8193   -1.3154   -1.9587 H         1 <0>         0.1055
     32 H9         -4.2417    2.0553   -0.1586 H         1 <0>         0.0880
     33 H10        -5.6004    2.4160   -1.2562 H         1 <0>         0.1070
     34 H11        -3.4472    3.5634   -1.9148 H         1 <0>         0.1009
     35 H12        -4.0917    2.4871   -3.1782 H         1 <0>         0.0561
     36 H13        -6.3020    1.9208    0.2083 H         1 <0>         0.1528
     37 H14        -8.3209    3.2632    0.6164 H         1 <0>         0.1531
     38 H15        -8.3926   -0.2720   -2.8279 H         1 <0>         0.1537
@<TRIPOS>BOND
     1    1    6 ar
     2    1    2 ar
     3    1   24 1
     4    2    3 ar
     5    2   25 1
     6    3    4 ar
     7    3    8 1
     8    4    5 ar
     9    4   26 1
    10    5    6 ar
    11    5    7 1
    12    6   27 1
    13    8   13 1
    14    8    9 1
    15    9   10 1
    16    9   28 1
    17    9   29 1
    18   10   11 1
    19   10   30 1
    20   10   31 1
    21   11   12 1
    22   11   14 am
    23   12   13 1
    24   12   32 1
    25   12   33 1
    26   13   34 1
    27   13   35 1
    28   14   15 2
    29   14   16 1
    30   16   21 ar
    31   16   17 ar
    32   17   18 ar
    33   17   36 1
    34   18   19 ar
    35   18   37 1
    36   19   20 ar
    37   19   23 1
    38   20   21 ar
    39   20   22 1
    40   21   38 1
@<TRIPOS>MOLECULE
ZINC00196130
   41    43     0     0     0
SMALL
USER_CHARGES
[4-(3-chlorophenyl)piperazin-1-yl]-(p-tolyl)methanone
@<TRIPOS>ATOM
      1 C1          1.1359    3.5930   -0.0588 C.3       1 <0>        -0.1216
      2 C2          1.1658    2.0863   -0.0487 C.ar      1 <0>        -0.0598
      3 C3          0.3404    1.3868    0.8137 C.ar      1 <0>        -0.1255
      4 C4          0.3625    0.0074    0.8276 C.ar      1 <0>        -0.0603
      5 C5          1.2201   -0.6823   -0.0308 C.ar      1 <0>        -0.1401
      6 C6          2.0502    0.0294   -0.8983 C.ar      1 <0>        -0.0871
      7 C7          2.0183    1.4086   -0.9021 C.ar      1 <0>        -0.1269
      8 C8          1.2495   -2.1605   -0.0210 C.2       1 <0>         0.5645
      9 O1          0.2147   -2.7881    0.0921 O.2       1 <0>        -0.5308
     10 N1          2.4235   -2.8120   -0.1374 N.am      1 <0>        -0.6124
     11 C9          3.6968   -2.0760   -0.1543 C.3       1 <0>         0.1020
     12 C10         4.6331   -2.7086    0.8875 C.3       1 <0>         0.0415
     13 N2          4.7458   -4.1497    0.6258 N.pl3     1 <0>        -0.4864
     14 C11         3.4496   -4.8228    0.7830 C.3       1 <0>         0.0363
     15 C12         2.4651   -4.2773   -0.2570 C.3       1 <0>         0.1155
     16 C13         5.7152   -4.7329    1.4450 C.ar      1 <0>         0.1239
     17 C14         5.3808   -5.8027    2.2660 C.ar      1 <0>        -0.1674
     18 C15         6.3424   -6.3808    3.0710 C.ar      1 <0>        -0.0780
     19 C16         7.6350   -5.8893    3.0692 C.ar      1 <0>        -0.1364
     20 C17         7.9708   -4.8205    2.2568 C.ar      1 <0>        -0.0085
     21 C18         7.0138   -4.2409    1.4448 C.ar      1 <0>        -0.1333
     22 Cl1         9.5947   -4.2069    2.2578 Cl        1 <0>        -0.0651
     23 H1          1.8630    3.9756    0.6575 H         1 <0>         0.0760
     24 H2          1.3838    3.9546   -1.0567 H         1 <0>         0.0705
     25 H3          0.1391    3.9384    0.2157 H         1 <0>         0.0705
     26 H4         -0.3260    1.9216    1.4742 H         1 <0>         0.1306
     27 H5         -0.2820   -0.5374    1.5014 H         1 <0>         0.1314
     28 H6          2.7163   -0.4984   -1.5647 H         1 <0>         0.1314
     29 H7          2.6598    1.9606   -1.5731 H         1 <0>         0.1305
     30 H8          4.1464   -2.1449   -1.1449 H         1 <0>         0.0837
     31 H9          3.5189   -1.0307    0.0982 H         1 <0>         0.1044
     32 H10         4.2287   -2.5510    1.8873 H         1 <0>         0.0533
     33 H11         5.6184   -2.2479    0.8164 H         1 <0>         0.0976
     34 H12         3.0617   -4.6357    1.7843 H         1 <0>         0.0549
     35 H13         3.5766   -5.8954    0.6362 H         1 <0>         0.0995
     36 H14         1.4725   -4.6881   -0.0723 H         1 <0>         0.1034
     37 H15         2.7953   -4.5537   -1.2583 H         1 <0>         0.0808
     38 H16         4.3706   -6.1845    2.2716 H         1 <0>         0.1336
     39 H17         6.0835   -7.2149    3.7064 H         1 <0>         0.1341
     40 H18         8.3839   -6.3403    3.7034 H         1 <0>         0.1337
     41 H19         7.2759   -3.4068    0.8108 H         1 <0>         0.1363
@<TRIPOS>BOND
     1    1    2 1
     2    1   23 1
     3    1   24 1
     4    1   25 1
     5    2    7 ar
     6    2    3 ar
     7    3    4 ar
     8    3   26 1
     9    4    5 ar
    10    4   27 1
    11    5    6 ar
    12    5    8 1
    13    6    7 ar
    14    6   28 1
    15    7   29 1
    16    8    9 2
    17    8   10 am
    18   10   15 1
    19   10   11 1
    20   11   12 1
    21   11   30 1
    22   11   31 1
    23   12   13 1
    24   12   32 1
    25   12   33 1
    26   13   14 1
    27   13   16 1
    28   14   15 1
    29   14   34 1
    30   14   35 1
    31   15   36 1
    32   15   37 1
    33   16   21 ar
    34   16   17 ar
    35   17   18 ar
    36   17   38 1
    37   18   19 ar
    38   18   39 1
    39   19   20 ar
    40   19   40 1
    41   20   21 ar
    42   20   22 1
    43   21   41 1
@<TRIPOS>MOLECULE
ZINC00038887
   38    39     0     0     0
SMALL
USER_CHARGES
2-(4-chloro-2-methyl-phenoxy)-N-(2-methyl-3-nitro-phenyl)-acetamide
@<TRIPOS>ATOM
      1 C1          3.8968    4.4913    0.9629 C.3       1 <0>        -0.1098
      2 C2          2.4978    3.9535    1.1199 C.ar      1 <0>        -0.0943
      3 C3          1.4455    4.8198    1.3459 C.ar      1 <0>        -0.0731
      4 C4          0.1611    4.3265    1.4905 C.ar      1 <0>        -0.0640
      5 C5         -0.0731    2.9653    1.4040 C.ar      1 <0>        -0.0750
      6 C6          0.9771    2.0957    1.1834 C.ar      1 <0>        -0.1938
      7 C7          2.2659    2.5885    1.0381 C.ar      1 <0>         0.1280
      8 O1          3.2998    1.7347    0.8154 O.3       1 <0>        -0.2826
      9 C8          2.9871    0.3422    0.7425 C.3       1 <0>         0.0414
     10 C9          4.2486   -0.4434    0.4925 C.2       1 <0>         0.5196
     11 O2          5.3108    0.1324    0.3871 O.2       1 <0>        -0.4852
     12 N1          4.1963   -1.7860    0.3860 N.am      1 <0>        -0.6619
     13 C10         5.3473   -2.5063    0.0478 C.ar      1 <0>         0.1490
     14 C11         6.4122   -1.8654   -0.5723 C.ar      1 <0>        -0.0845
     15 C12         7.5468   -2.5790   -0.9044 C.ar      1 <0>        -0.0991
     16 C13         7.6235   -3.9304   -0.6202 C.ar      1 <0>        -0.0680
     17 C14         6.5652   -4.5712   -0.0031 C.ar      1 <0>        -0.0267
     18 C15         5.4295   -3.8619    0.3365 C.ar      1 <0>        -0.0510
     19 C16         4.2789   -4.5599    1.0148 C.3       1 <0>        -0.1322
     20 N2          6.6513   -6.0177    0.2988 N.pl3     1 <0>         0.0312
     21 O3          7.7002   -6.6135    0.1305 O.2       1 <0>        -0.1590
     22 O4          5.6733   -6.6121    0.7155 O.3       1 <0>        -0.1556
     23 Cl1        -1.1595    5.4170    1.7744 Cl        1 <0>        -0.0654
     24 H1          4.0874    4.7067   -0.0885 H         1 <0>         0.0742
     25 H2          4.0019    5.4062    1.5460 H         1 <0>         0.0701
     26 H3          4.6129    3.7501    1.3176 H         1 <0>         0.0767
     27 H4          1.6256    5.8828    1.4093 H         1 <0>         0.1430
     28 H5         -1.0770    2.5824    1.5131 H         1 <0>         0.1385
     29 H6          0.7945    1.0331    1.1196 H         1 <0>         0.1375
     30 H7          2.5391    0.0208    1.6827 H         1 <0>         0.1023
     31 H8          2.2842    0.1699   -0.0726 H         1 <0>         0.1038
     32 H9          3.3609   -2.2529    0.5438 H         1 <0>         0.4188
     33 H10         6.3528   -0.8103   -0.7948 H         1 <0>         0.1725
     34 H11         8.3751   -2.0814   -1.3868 H         1 <0>         0.1538
     35 H12         8.5122   -4.4862   -0.8806 H         1 <0>         0.1561
     36 H13         3.6624   -5.0562    0.2654 H         1 <0>         0.0931
     37 H14         4.6652   -5.2999    1.7157 H         1 <0>         0.1043
     38 H15         3.6771   -3.8283    1.5539 H         1 <0>         0.0674
@<TRIPOS>BOND
     1    1    2 1
     2    1   24 1
     3    1   25 1
     4    1   26 1
     5    2    7 ar
     6    2    3 ar
     7    3    4 ar
     8    3   27 1
     9    4    5 ar
    10    4   23 1
    11    5    6 ar
    12    5   28 1
    13    6    7 ar
    14    6   29 1
    15    7    8 1
    16    8    9 1
    17    9   10 1
    18    9   30 1
    19    9   31 1
    20   10   11 2
    21   10   12 am
    22   12   13 1
    23   12   32 1
    24   13   18 ar
    25   13   14 ar
    26   14   15 ar
    27   14   33 1
    28   15   16 ar
    29   15   34 1
    30   16   17 ar
    31   16   35 1
    32   17   18 ar
    33   17   20 1
    34   18   19 1
    35   19   36 1
    36   19   37 1
    37   19   38 1
    38   20   21 2
    39   20   22 1
@<TRIPOS>MOLECULE
ZINC00038499
   30    31     0     0     0
SMALL
USER_CHARGES
(2-bromo-4-methyl-phenyl) 2-nitrobenzoate
@<TRIPOS>ATOM
      1 C1          5.2267   -2.4158   -0.5258 C.3       1 <0>        -0.1181
      2 C2          4.0768   -1.4422   -0.5562 C.ar      1 <0>        -0.0689
      3 C3          3.8331   -0.6277    0.5344 C.ar      1 <0>        -0.0914
      4 C4          2.7793    0.2650    0.5099 C.ar      1 <0>        -0.0970
      5 C5          1.9649    0.3447   -0.6104 C.ar      1 <0>         0.0999
      6 C6          2.2080   -0.4775   -1.7020 C.ar      1 <0>        -0.0864
      7 C7          3.2672   -1.3654   -1.6742 C.ar      1 <0>        -0.0823
      8 Br1         1.0957   -0.3785   -3.2280 Br        1 <0>        -0.0360
      9 O1          0.9273    1.2224   -0.6369 O.3       1 <0>        -0.2793
     10 C8         -0.2848    0.7472   -0.2907 C.2       1 <0>         0.4990
     11 O2         -0.4277   -0.4350   -0.0500 O.2       1 <0>        -0.4307
     12 C9         -1.4413    1.6625   -0.2095 C.ar      1 <0>        -0.0489
     13 C10        -1.7292    2.5247   -1.2697 C.ar      1 <0>        -0.0690
     14 C11        -2.8132    3.3736   -1.1890 C.ar      1 <0>        -0.0711
     15 C12        -3.6091    3.3792   -0.0569 C.ar      1 <0>        -0.0888
     16 C13        -3.3265    2.5314    0.9992 C.ar      1 <0>        -0.0560
     17 C14        -2.2482    1.6736    0.9299 C.ar      1 <0>        -0.0033
     18 N1         -1.9470    0.7676    2.0610 N.pl3     1 <0>         0.0181
     19 O3         -2.7169    0.6912    3.0017 O.2       1 <0>        -0.1485
     20 O4         -0.9294    0.0984    2.0510 O.3       1 <0>        -0.1314
     21 H1          4.8857   -3.3684   -0.1205 H         1 <0>         0.0791
     22 H2          5.6030   -2.5654   -1.5379 H         1 <0>         0.0725
     23 H3          6.0233   -2.0178    0.1028 H         1 <0>         0.0741
     24 H4          4.4672   -0.6899    1.4064 H         1 <0>         0.1415
     25 H5          2.5892    0.9003    1.3624 H         1 <0>         0.1421
     26 H6          3.4594   -2.0029   -2.5245 H         1 <0>         0.1421
     27 H7         -1.1067    2.5240   -2.1522 H         1 <0>         0.1588
     28 H8         -3.0390    4.0386   -2.0096 H         1 <0>         0.1564
     29 H9         -4.4545    4.0486    0.0026 H         1 <0>         0.1581
     30 H10        -3.9513    2.5413    1.8801 H         1 <0>         0.1653
@<TRIPOS>BOND
     1    1    2 1
     2    1   21 1
     3    1   22 1
     4    1   23 1
     5    2    7 ar
     6    2    3 ar
     7    3    4 ar
     8    3   24 1
     9    4    5 ar
    10    4   25 1
    11    5    6 ar
    12    5    9 1
    13    6    7 ar
    14    6    8 1
    15    7   26 1
    16    9   10 1
    17   10   11 2
    18   10   12 1
    19   12   17 ar
    20   12   13 ar
    21   13   14 ar
    22   13   27 1
    23   14   15 ar
    24   14   28 1
    25   15   16 ar
    26   15   29 1
    27   16   17 ar
    28   16   30 1
    29   17   18 1
    30   18   19 2
    31   18   20 1
@<TRIPOS>MOLECULE
ZINC00103336
   36    37     0     0     0
SMALL
USER_CHARGES
N-(5-chloro-2-methoxy-phenyl)-4-methoxy-3-nitro-benzamide
@<TRIPOS>ATOM
      1 C1         -1.7711    7.3689    1.5179 C.3       1 <0>         0.0267
      2 O1         -1.5809    6.0420    1.0229 O.3       1 <0>        -0.3190
      3 C2         -2.6512    5.4427    0.4358 C.ar      1 <0>         0.1056
      4 C3         -3.8573    6.1172    0.3382 C.ar      1 <0>        -0.1749
      5 C4         -4.9447    5.5072   -0.2591 C.ar      1 <0>        -0.0838
      6 C5         -4.8325    4.2227   -0.7615 C.ar      1 <0>        -0.0487
      7 C6         -3.6303    3.5449   -0.6725 C.ar      1 <0>        -0.0869
      8 C7         -2.5370    4.1493   -0.0691 C.ar      1 <0>         0.1313
      9 N1         -1.3199    3.4631    0.0271 N.am      1 <0>        -0.6546
     10 C8         -1.3034    2.1155    0.0161 C.2       1 <0>         0.5667
     11 O2         -2.3489    1.4945    0.0242 O.2       1 <0>        -0.5038
     12 C9         -0.0165    1.3935   -0.0060 C.ar      1 <0>        -0.1768
     13 C10         1.1862    2.1053   -0.0212 C.ar      1 <0>         0.0059
     14 C11         2.3846    1.4280   -0.0479 C.ar      1 <0>        -0.2173
     15 C12         2.3994    0.0380   -0.0589 C.ar      1 <0>         0.2244
     16 C13         1.2057   -0.6736   -0.0438 C.ar      1 <0>        -0.0884
     17 C14         0.0028   -0.0036   -0.0175 C.ar      1 <0>         0.0460
     18 N2          1.2273   -2.1536   -0.0555 N.pl3     1 <0>         0.0333
     19 O3          0.1817   -2.7781   -0.0419 O.2       1 <0>        -0.1658
     20 O4          2.2908   -2.7470   -0.0788 O.3       1 <0>        -0.1303
     21 O5          3.5828   -0.6260   -0.0847 O.3       1 <0>        -0.2738
     22 C15         4.7714    0.1671   -0.0991 C.3       1 <0>         0.0145
     23 Cl1        -6.2019    3.4628   -1.5103 Cl        1 <0>        -0.0586
     24 H1         -2.0603    8.0250    0.6969 H         1 <0>         0.0598
     25 H2         -2.5561    7.3655    2.2741 H         1 <0>         0.0598
     26 H3         -0.8420    7.7284    1.9603 H         1 <0>         0.1044
     27 H4         -3.9480    7.1200    0.7286 H         1 <0>         0.1441
     28 H5         -5.8841    6.0348   -0.3342 H         1 <0>         0.1401
     29 H6         -3.5436    2.5442   -1.0692 H         1 <0>         0.1647
     30 H7         -0.4888    3.9577    0.1017 H         1 <0>         0.4160
     31 H8          1.1755    3.1852   -0.0127 H         1 <0>         0.1495
     32 H9          3.3143    1.9774   -0.0601 H         1 <0>         0.1620
     33 H10        -0.9244   -0.5573   -0.0062 H         1 <0>         0.1757
     34 H11         5.6438   -0.4861   -0.1195 H         1 <0>         0.1175
     35 H12         4.7731    0.8033   -0.9842 H         1 <0>         0.0673
     36 H13         4.8041    0.7890    0.7955 H         1 <0>         0.0673
@<TRIPOS>BOND
     1    1    2 1
     2    1   24 1
     3    1   25 1
     4    1   26 1
     5    2    3 1
     6    3    8 ar
     7    3    4 ar
     8    4    5 ar
     9    4   27 1
    10    5    6 ar
    11    5   28 1
    12    6    7 ar
    13    6   23 1
    14    7    8 ar
    15    7   29 1
    16    8    9 1
    17    9   10 am
    18    9   30 1
    19   10   11 2
    20   10   12 1
    21   12   17 ar
    22   12   13 ar
    23   13   14 ar
    24   13   31 1
    25   14   15 ar
    26   14   32 1
    27   15   16 ar
    28   15   21 1
    29   16   17 ar
    30   16   18 1
    31   17   33 1
    32   18   19 2
    33   18   20 1
    34   21   22 1
    35   22   34 1
    36   22   35 1
    37   22   36 1
@<TRIPOS>MOLECULE
ZINC00102780
   32    33     0     0     0
SMALL
USER_CHARGES
4-chloro-N-(5-chloro-2-methoxy-phenyl)-3-nitro-benzamide
@<TRIPOS>ATOM
      1 C1         -1.7683    7.3699    1.5181 C.3       1 <0>         0.0265
      2 O1         -1.5790    6.0427    1.0232 O.3       1 <0>        -0.3189
      3 C2         -2.6497    5.4443    0.4357 C.ar      1 <0>         0.1078
      4 C3         -3.8551    6.1199    0.3376 C.ar      1 <0>        -0.1748
      5 C4         -4.9429    5.5110   -0.2601 C.ar      1 <0>        -0.0819
      6 C5         -4.8317    4.2262   -0.7620 C.ar      1 <0>        -0.0492
      7 C6         -3.6302    3.5473   -0.6725 C.ar      1 <0>        -0.0861
      8 C7         -2.5364    4.1509   -0.0691 C.ar      1 <0>         0.1285
      9 N1         -1.3199    3.4638    0.0271 N.am      1 <0>        -0.6514
     10 C8         -1.3044    2.1162    0.0161 C.2       1 <0>         0.5625
     11 O2         -2.3502    1.4961    0.0242 O.2       1 <0>        -0.4976
     12 C9         -0.0165    1.3923   -0.0060 C.ar      1 <0>        -0.1314
     13 C10         1.1863    2.1018   -0.0212 C.ar      1 <0>        -0.0243
     14 C11         2.3848    1.4208   -0.0475 C.ar      1 <0>        -0.1139
     15 C12         2.3974    0.0355   -0.0588 C.ar      1 <0>         0.0374
     16 C13         1.2079   -0.6736   -0.0438 C.ar      1 <0>        -0.0472
     17 C14         0.0028   -0.0036   -0.0175 C.ar      1 <0>         0.0179
     18 N2          1.2301   -2.1536   -0.0555 N.pl3     1 <0>         0.0237
     19 O3          0.1847   -2.7785   -0.0419 O.2       1 <0>        -0.1485
     20 O4          2.2938   -2.7465   -0.0788 O.3       1 <0>        -0.1282
     21 Cl1         3.9105   -0.8149   -0.0914 Cl        1 <0>         0.0113
     22 Cl2        -6.2015    3.4675   -1.5114 Cl        1 <0>        -0.0577
     23 H1         -2.0566    8.0262    0.6970 H         1 <0>         0.0602
     24 H2         -2.5535    7.3672    2.2741 H         1 <0>         0.0601
     25 H3         -0.8390    7.7285    1.9608 H         1 <0>         0.1050
     26 H4         -3.9451    7.1229    0.7280 H         1 <0>         0.1448
     27 H5         -5.8817    6.0395   -0.3359 H         1 <0>         0.1408
     28 H6         -3.5444    2.5463   -1.0689 H         1 <0>         0.1644
     29 H7         -0.4884    3.9578    0.1017 H         1 <0>         0.4173
     30 H8          1.1776    3.1817   -0.0128 H         1 <0>         0.1566
     31 H9          3.3156    1.9683   -0.0597 H         1 <0>         0.1682
     32 H10        -0.9242   -0.5577   -0.0061 H         1 <0>         0.1780
@<TRIPOS>BOND
     1    1    2 1
     2    1   23 1
     3    1   24 1
     4    1   25 1
     5    2    3 1
     6    3    8 ar
     7    3    4 ar
     8    4    5 ar
     9    4   26 1
    10    5    6 ar
    11    5   27 1
    12    6    7 ar
    13    6   22 1
    14    7    8 ar
    15    7   28 1
    16    8    9 1
    17    9   10 am
    18    9   29 1
    19   10   11 2
    20   10   12 1
    21   12   17 ar
    22   12   13 ar
    23   13   14 ar
    24   13   30 1
    25   14   15 ar
    26   14   31 1
    27   15   16 ar
    28   15   21 1
    29   16   17 ar
    30   16   18 1
    31   17   32 1
    32   18   19 2
    33   18   20 1
@<TRIPOS>MOLECULE
ZINC00050619
   49    51     0     0     0
SMALL
USER_CHARGES
5-[(4-diethylaminophenyl)methylene]-2-(1-piperidyl)thiazol-4-one
@<TRIPOS>ATOM
      1 C1          6.8841   -9.0431    1.1621 C.3       1 <0>        -0.1740
      2 C2          7.0573   -8.5349    2.5948 C.3       1 <0>         0.1154
      3 N1          8.1270   -7.5347    2.6322 N.pl3     1 <0>        -0.6205
      4 C3          9.5108   -7.9508    2.8733 C.3       1 <0>         0.1149
      5 C4          9.7933   -7.9357    4.3769 C.3       1 <0>        -0.1727
      6 C5          7.8287   -6.1895    2.4387 C.ar      1 <0>         0.2460
      7 C6          8.8472   -5.2405    2.4747 C.ar      1 <0>        -0.2147
      8 C7          8.5579   -3.9139    2.2856 C.ar      1 <0>        -0.0320
      9 C8          7.2351   -3.5136    2.0553 C.ar      1 <0>        -0.1612
     10 C9          6.2130   -4.4714    2.0252 C.ar      1 <0>         0.0130
     11 C10         6.5125   -5.7963    2.2102 C.ar      1 <0>        -0.2087
     12 C11         6.9204   -2.0947    1.8521 C.2       1 <0>         0.0812
     13 C12         5.9816   -1.7313    0.9412 C.2       1 <0>        -0.2543
     14 C13         5.2720   -2.5504   -0.0683 C.2       1 <0>         0.5447
     15 O1          5.4824   -3.7468   -0.1902 O.2       1 <0>        -0.4576
     16 N2          4.3984   -1.9195   -0.8220 N.2       1 <0>        -0.6657
     17 C14         4.1648   -0.6221   -0.7038 C.2       1 <0>         0.4966
     18 S1          5.2545   -0.1287    0.6224 S.3       1 <0>        -0.0759
     19 N3          3.2933    0.1538   -1.4215 N.pl3     1 <0>        -0.5289
     20 C15         2.4699   -0.4346   -2.4867 C.3       1 <0>         0.1121
     21 C16         2.6852    0.3656   -3.7752 C.3       1 <0>        -0.1373
     22 C17         2.4009    1.8450   -3.5057 C.3       1 <0>        -0.1243
     23 C18         3.3719    2.3677   -2.4446 C.3       1 <0>        -0.1369
     24 C19         3.1645    1.5903   -1.1410 C.3       1 <0>         0.1099
     25 H1          6.0882   -9.7874    1.1343 H         1 <0>         0.0651
     26 H2          6.6249   -8.2094    0.5097 H         1 <0>         0.0615
     27 H3          7.8159   -9.4948    0.8217 H         1 <0>         0.0558
     28 H4          7.3165   -9.3687    3.2473 H         1 <0>         0.0745
     29 H5          6.1255   -8.0833    2.9353 H         1 <0>         0.0776
     30 H6          9.6600   -8.9586    2.4857 H         1 <0>         0.0745
     31 H7         10.1900   -7.2634    2.3691 H         1 <0>         0.0774
     32 H8         10.8229   -8.2452    4.5563 H         1 <0>         0.0650
     33 H9          9.6442   -6.9279    4.7645 H         1 <0>         0.0596
     34 H10         9.1141   -8.6231    4.8812 H         1 <0>         0.0562
     35 H11         9.8665   -5.5501    2.6523 H         1 <0>         0.1250
     36 H12         9.3485   -3.1787    2.3136 H         1 <0>         0.1243
     37 H13         5.1913   -4.1668    1.8528 H         1 <0>         0.1208
     38 H14         5.7258   -6.5357    2.1835 H         1 <0>         0.1235
     39 H15         7.4356   -1.3396    2.4273 H         1 <0>         0.1401
     40 H16         1.4187   -0.3923   -2.2016 H         1 <0>         0.0827
     41 H17         2.7634   -1.4720   -2.6475 H         1 <0>         0.1052
     42 H18         2.0088    0.0000   -4.5478 H         1 <0>         0.0857
     43 H19         3.7162    0.2481   -4.1090 H         1 <0>         0.0715
     44 H20         2.5295    2.4132   -4.4270 H         1 <0>         0.0734
     45 H21         1.3773    1.9590   -3.1489 H         1 <0>         0.0696
     46 H22         4.3966    2.2314   -2.7903 H         1 <0>         0.0734
     47 H23         3.1843    3.4272   -2.2701 H         1 <0>         0.0877
     48 H24         2.1699    1.7977   -0.7462 H         1 <0>         0.0902
     49 H25         3.9170    1.8890   -0.4112 H         1 <0>         0.0909
@<TRIPOS>BOND
     1    1    2 1
     2    1   25 1
     3    1   26 1
     4    1   27 1
     5    2    3 1
     6    2   28 1
     7    2   29 1
     8    3    4 1
     9    3    6 1
    10    4    5 1
    11    4   30 1
    12    4   31 1
    13    5   32 1
    14    5   33 1
    15    5   34 1
    16    6   11 ar
    17    6    7 ar
    18    7    8 ar
    19    7   35 1
    20    8    9 ar
    21    8   36 1
    22    9   10 ar
    23    9   12 1
    24   10   11 ar
    25   10   37 1
    26   11   38 1
    27   12   13 2
    28   12   39 1
    29   13   18 1
    30   13   14 1
    31   14   15 2
    32   14   16 1
    33   16   17 2
    34   17   18 1
    35   17   19 1
    36   19   24 1
    37   19   20 1
    38   20   21 1
    39   20   40 1
    40   20   41 1
    41   21   22 1
    42   21   42 1
    43   21   43 1
    44   22   23 1
    45   22   44 1
    46   22   45 1
    47   23   24 1
    48   23   46 1
    49   23   47 1
    50   24   48 1
    51   24   49 1
@<TRIPOS>MOLECULE
ZINC00038812
   34    36     0     0     0
SMALL
USER_CHARGES
3-chloro-N-(4-methyl-3-nitro-phenyl)-benzothiophene-2-carboxamide
@<TRIPOS>ATOM
      1 C1          6.6233   11.8462    0.5814 C.3       1 <0>        -0.1401
      2 C2          5.6141   10.7436    0.3894 C.ar      1 <0>        -0.0249
      3 C3          4.3833   10.8180    1.0158 C.ar      1 <0>        -0.1025
      4 C4          3.4541    9.8122    0.8374 C.ar      1 <0>        -0.0839
      5 C5          3.7607    8.7197    0.0361 C.ar      1 <0>         0.1407
      6 C6          4.9975    8.6480   -0.5914 C.ar      1 <0>        -0.0556
      7 C7          5.9205    9.6601   -0.4130 C.ar      1 <0>        -0.0303
      8 N1          7.2391    9.5844   -1.0811 N.pl3     1 <0>         0.0315
      9 O1          7.4920    8.6542   -1.8257 O.2       1 <0>        -0.1560
     10 O2          8.0713   10.4522   -0.8863 O.3       1 <0>        -0.1551
     11 N2          2.8240    7.6971   -0.1427 N.am      1 <0>        -0.6636
     12 C8          3.2355    6.4190   -0.2593 C.2       1 <0>         0.6038
     13 O3          4.4245    6.1645   -0.3058 O.2       1 <0>        -0.4774
     14 C9          2.2494    5.3339   -0.3301 C.2       1 <0>        -0.2113
     15 C10         2.4679    3.9957   -0.4481 C.2       1 <0>         0.0381
     16 C11         1.3758    3.1090   -0.4998 C.ar      1 <0>        -0.1136
     17 C12         1.3974    1.6957   -0.6204 C.ar      1 <0>        -0.0491
     18 C13         0.2416    0.9838   -0.6568 C.ar      1 <0>        -0.1220
     19 C14        -0.9994    1.6051   -0.5834 C.ar      1 <0>        -0.0654
     20 C15        -1.0659    2.9779   -0.4586 C.ar      1 <0>        -0.0842
     21 C16         0.0993    3.7140   -0.4212 C.ar      1 <0>        -0.0859
     22 S1          0.4691    5.4446   -0.2826 S.3       1 <0>         0.1002
     23 Cl1         4.0901    3.3837   -0.5352 Cl        1 <0>        -0.0121
     24 H1          6.5730   12.5356   -0.2615 H         1 <0>         0.0876
     25 H2          6.4033   12.3835    1.5038 H         1 <0>         0.0755
     26 H3          7.6235   11.4170    0.6406 H         1 <0>         0.1067
     27 H4          4.1471   11.6657    1.6419 H         1 <0>         0.1544
     28 H5          2.4915    9.8731    1.3233 H         1 <0>         0.1485
     29 H6          5.2373    7.8021   -1.2186 H         1 <0>         0.1707
     30 H7          1.8779    7.9076   -0.1830 H         1 <0>         0.4173
     31 H8          2.3441    1.1798   -0.6843 H         1 <0>         0.1350
     32 H9          0.2878   -0.0912   -0.7495 H         1 <0>         0.1375
     33 H10        -1.9049    1.0176   -0.6189 H         1 <0>         0.1440
     34 H11        -2.0240    3.4725   -0.3966 H         1 <0>         0.1414
@<TRIPOS>BOND
     1    1    2 1
     2    1   24 1
     3    1   25 1
     4    1   26 1
     5    2    7 ar
     6    2    3 ar
     7    3    4 ar
     8    3   27 1
     9    4    5 ar
    10    4   28 1
    11    5    6 ar
    12    5   11 1
    13    6    7 ar
    14    6   29 1
    15    7    8 1
    16    8    9 2
    17    8   10 1
    18   11   12 am
    19   11   30 1
    20   12   13 2
    21   12   14 1
    22   14   22 1
    23   14   15 2
    24   15   16 1
    25   15   23 1
    26   16   21 ar
    27   16   17 ar
    28   17   18 ar
    29   17   31 1
    30   18   19 ar
    31   18   32 1
    32   19   20 ar
    33   19   33 1
    34   20   21 ar
    35   20   34 1
    36   21   22 1
@<TRIPOS>MOLECULE
ZINC00102894
   31    32     0     0     0
SMALL
USER_CHARGES
N-(2,4-dichlorophenyl)-4-methyl-3-nitro-benzamide
@<TRIPOS>ATOM
      1 C1         -7.4871   -2.9720   -0.5229 C.3       1 <0>        -0.1496
      2 C2         -6.1270   -2.3336   -0.4067 C.ar      1 <0>         0.0181
      3 C3         -6.0154   -0.9554   -0.3508 C.ar      1 <0>        -0.1259
      4 C4         -4.7739   -0.3649   -0.2386 C.ar      1 <0>        -0.0307
      5 C5         -3.6277   -1.1605   -0.1922 C.ar      1 <0>        -0.1463
      6 C6         -3.7472   -2.5499   -0.2491 C.ar      1 <0>         0.0137
      7 C7         -4.9955   -3.1279   -0.3559 C.ar      1 <0>        -0.0561
      8 N1         -5.1242   -4.6012   -0.4169 N.pl3     1 <0>         0.0303
      9 O1         -4.1373   -5.3044   -0.2944 O.2       1 <0>        -0.1514
     10 O2         -6.2172   -5.1104   -0.5895 O.3       1 <0>        -0.1504
     11 C8         -2.2936   -0.5343   -0.0772 C.2       1 <0>         0.5679
     12 O3         -1.2976   -1.2298   -0.0320 O.2       1 <0>        -0.4964
     13 N2         -2.1815    0.8077   -0.0225 N.am      1 <0>        -0.6617
     14 C9         -0.9160    1.4051   -0.0303 C.ar      1 <0>         0.1637
     15 C10         0.1661    0.7351   -0.5858 C.ar      1 <0>        -0.1072
     16 C11         1.4130    1.3290   -0.5969 C.ar      1 <0>        -0.0790
     17 C12         1.5863    2.5886   -0.0504 C.ar      1 <0>        -0.0412
     18 C13         0.5115    3.2570    0.5087 C.ar      1 <0>        -0.0783
     19 C14        -0.7387    2.6676    0.5227 C.ar      1 <0>        -0.0583
     20 Cl1        -2.0872    3.5065    1.2237 Cl        1 <0>        -0.0507
     21 Cl2         3.1553    3.3313   -0.0659 Cl        1 <0>        -0.0517
     22 H1         -7.8268   -3.2857    0.4642 H         1 <0>         0.0943
     23 H2         -8.1923   -2.2518   -0.9379 H         1 <0>         0.0809
     24 H3         -7.4261   -3.8402   -1.1790 H         1 <0>         0.1133
     25 H4         -6.9027   -0.3409   -0.3905 H         1 <0>         0.1585
     26 H5         -4.6885    0.7107   -0.1905 H         1 <0>         0.1456
     27 H6         -2.8647   -3.1711   -0.2092 H         1 <0>         0.1699
     28 H7         -2.9780    1.3595    0.0222 H         1 <0>         0.4145
     29 H8          0.0318   -0.2477   -1.0128 H         1 <0>         0.1658
     30 H9          2.2537    0.8099   -1.0329 H         1 <0>         0.1476
     31 H10         0.6494    4.2400    0.9342 H         1 <0>         0.1510
@<TRIPOS>BOND
     1    1    2 1
     2    1   22 1
     3    1   23 1
     4    1   24 1
     5    2    7 ar
     6    2    3 ar
     7    3    4 ar
     8    3   25 1
     9    4    5 ar
    10    4   26 1
    11    5    6 ar
    12    5   11 1
    13    6    7 ar
    14    6   27 1
    15    7    8 1
    16    8    9 2
    17    8   10 1
    18   11   12 2
    19   11   13 am
    20   13   14 1
    21   13   28 1
    22   14   19 ar
    23   14   15 ar
    24   15   16 ar
    25   15   29 1
    26   16   17 ar
    27   16   30 1
    28   17   18 ar
    29   17   21 1
    30   18   19 ar
    31   18   31 1
    32   19   20 1
@<TRIPOS>MOLECULE
ZINC00038831
   42    43     0     0     0
SMALL
USER_CHARGES
N-(4-diethylaminophenyl)-2-nitro-benzamide
@<TRIPOS>ATOM
      1 C1         -6.5042   -2.8350   -0.3018 C.3       1 <0>        -0.1741
      2 C2         -6.2571   -2.1800   -1.6622 C.3       1 <0>         0.1191
      3 N1         -6.1823   -0.7262   -1.4979 N.pl3     1 <0>        -0.6279
      4 C3         -7.3970    0.0862   -1.6020 C.3       1 <0>         0.1177
      5 C4         -7.5988    0.5179   -3.0559 C.3       1 <0>        -0.1725
      6 C5         -4.9510   -0.1137   -1.2415 C.ar      1 <0>         0.2106
      7 C6         -4.8800    1.2646   -1.0857 C.ar      1 <0>        -0.1780
      8 C7         -3.6649    1.8690   -0.8322 C.ar      1 <0>        -0.0661
      9 C8         -2.5136    1.0988   -0.7331 C.ar      1 <0>         0.0839
     10 C9         -2.5836   -0.2787   -0.8945 C.ar      1 <0>        -0.0899
     11 C10        -3.7995   -0.8839   -1.1423 C.ar      1 <0>        -0.1791
     12 N2         -1.2808    1.7121   -0.4759 N.am      1 <0>        -0.6572
     13 C11        -1.2243    2.8118    0.3011 C.2       1 <0>         0.5538
     14 O1         -2.2277    3.2167    0.8554 O.2       1 <0>        -0.4780
     15 C12         0.0590    3.5222    0.4843 C.ar      1 <0>        -0.0679
     16 C13         0.7778    3.9689   -0.6260 C.ar      1 <0>        -0.0888
     17 C14         1.9720    4.6358   -0.4479 C.ar      1 <0>        -0.0701
     18 C15         2.4631    4.8531    0.8275 C.ar      1 <0>        -0.0977
     19 C16         1.7586    4.4080    1.9318 C.ar      1 <0>        -0.0565
     20 C17         0.5602    3.7442    1.7678 C.ar      1 <0>        -0.0067
     21 N3         -0.1920    3.2682    2.9505 N.pl3     1 <0>         0.0180
     22 O2          0.1821    3.5664    4.0706 O.2       1 <0>        -0.1621
     23 O3         -1.1850    2.5784    2.8035 O.3       1 <0>        -0.1192
     24 H1         -6.5599   -3.9167   -0.4241 H         1 <0>         0.0636
     25 H2         -5.6861   -2.5875    0.3746 H         1 <0>         0.0594
     26 H3         -7.4427   -2.4676    0.1133 H         1 <0>         0.0560
     27 H4         -7.0752   -2.4276   -2.3386 H         1 <0>         0.0727
     28 H5         -5.3186   -2.5475   -2.0773 H         1 <0>         0.0748
     29 H6         -8.2555   -0.5003   -1.2746 H         1 <0>         0.0731
     30 H7         -7.2985    0.9695   -0.9710 H         1 <0>         0.0759
     31 H8         -7.6972   -0.3654   -3.6868 H         1 <0>         0.0554
     32 H9         -8.5025    1.1223   -3.1333 H         1 <0>         0.0638
     33 H10        -6.7403    1.1044   -3.3832 H         1 <0>         0.0583
     34 H11        -5.7754    1.8637   -1.1631 H         1 <0>         0.1257
     35 H12        -3.6098    2.9407   -0.7107 H         1 <0>         0.1311
     36 H13        -1.6874   -0.8771   -0.8218 H         1 <0>         0.1235
     37 H14        -3.8545   -1.9556   -1.2635 H         1 <0>         0.1265
     38 H15        -0.4677    1.3452   -0.8571 H         1 <0>         0.4081
     39 H16         0.3978    3.7960   -1.6221 H         1 <0>         0.1535
     40 H17         2.5272    4.9852   -1.3058 H         1 <0>         0.1520
     41 H18         3.4007    5.3721    0.9614 H         1 <0>         0.1543
     42 H19         2.1478    4.5801    2.9244 H         1 <0>         0.1610
@<TRIPOS>BOND
     1    1    2 1
     2    1   24 1
     3    1   25 1
     4    1   26 1
     5    2    3 1
     6    2   27 1
     7    2   28 1
     8    3    4 1
     9    3    6 1
    10    4    5 1
    11    4   29 1
    12    4   30 1
    13    5   31 1
    14    5   32 1
    15    5   33 1
    16    6   11 ar
    17    6    7 ar
    18    7    8 ar
    19    7   34 1
    20    8    9 ar
    21    8   35 1
    22    9   10 ar
    23    9   12 1
    24   10   11 ar
    25   10   36 1
    26   11   37 1
    27   12   13 am
    28   12   38 1
    29   13   14 2
    30   13   15 1
    31   15   20 ar
    32   15   16 ar
    33   16   17 ar
    34   16   39 1
    35   17   18 ar
    36   17   40 1
    37   18   19 ar
    38   18   41 1
    39   19   20 ar
    40   19   42 1
    41   20   21 1
    42   21   22 2
    43   21   23 1
@<TRIPOS>MOLECULE
ZINC00060108
   27    28     0     0     0
SMALL
USER_CHARGES

@<TRIPOS>ATOM
      1 C1         -0.0169    1.3923    0.0097 C.ar      1 <0>        -0.0942
      2 C2          1.1699    2.0952    0.0021 C.ar      1 <0>        -0.0912
      3 C3          2.3783    1.4192   -0.0135 C.ar      1 <0>         0.0015
      4 C4          2.4039    0.0344   -0.0216 C.ar      1 <0>        -0.0297
      5 C5          1.2245   -0.6800   -0.0142 C.ar      1 <0>        -0.0317
      6 C6          0.0021   -0.0041    0.0020 C.ar      1 <0>         0.0941
      7 N1         -1.1720   -0.7073    0.0099 N.2       1 <0>        -0.4574
      8 C7         -2.1330   -0.3618    0.8193 C.2       1 <0>         0.2132
      9 C8         -3.3955   -1.1180    0.8278 C.ar      1 <0>        -0.0795
     10 C9         -4.4313   -0.7466    1.6910 C.ar      1 <0>        -0.0555
     11 C10        -5.6110   -1.4589    1.6934 C.ar      1 <0>        -0.1153
     12 C11        -5.7733   -2.5412    0.8433 C.ar      1 <0>        -0.0007
     13 C12        -4.7528   -2.9160   -0.0141 C.ar      1 <0>        -0.1150
     14 C13        -3.5676   -2.2086   -0.0319 C.ar      1 <0>         0.0171
     15 Cl1        -2.2918   -2.6747   -1.1130 Cl        1 <0>        -0.0100
     16 Cl2        -7.2633   -3.4320    0.8539 Cl        1 <0>        -0.0461
     17 N2          3.7001   -0.6802   -0.0388 N.pl3     1 <0>         0.0300
     18 O1          3.7239   -1.8889   -0.0459 O.2       1 <0>        -0.1545
     19 O2          4.7349   -0.0551   -0.0457 O.3       1 <0>        -0.1280
     20 Cl3         3.8676    2.3112   -0.0235 Cl        1 <0>        -0.0007
     21 H1         -0.9587    1.9207    0.0260 H         1 <0>         0.1524
     22 H2          1.1567    3.1751    0.0081 H         1 <0>         0.1611
     23 H3          1.2457   -1.7598   -0.0213 H         1 <0>         0.1673
     24 H4         -2.0030    0.4795    1.4840 H         1 <0>         0.1237
     25 H5         -4.3067    0.0964    2.3546 H         1 <0>         0.1509
     26 H6         -6.4113   -1.1730    2.3599 H         1 <0>         0.1482
     27 H7         -4.8861   -3.7608   -0.6737 H         1 <0>         0.1502
@<TRIPOS>BOND
     1    1    6 ar
     2    1    2 ar
     3    1   21 1
     4    2    3 ar
     5    2   22 1
     6    3    4 ar
     7    3   20 1
     8    4    5 ar
     9    4   17 1
    10    5    6 ar
    11    5   23 1
    12    6    7 1
    13    7    8 2
    14    8    9 1
    15    8   24 1
    16    9   14 ar
    17    9   10 ar
    18   10   11 ar
    19   10   25 1
    20   11   12 ar
    21   11   26 1
    22   12   13 ar
    23   12   16 1
    24   13   14 ar
    25   13   27 1
    26   14   15 1
    27   17   18 2
    28   17   19 1
@<TRIPOS>MOLECULE
ZINC00089683
   42    43     0     0     0
SMALL
USER_CHARGES

@<TRIPOS>ATOM
      1 C1         -1.6120    1.2816   -1.0651 C.3       1 <0>        -0.1515
      2 C2         -1.2709   -0.1950   -0.8545 C.3       1 <0>         0.0628
      3 O1         -0.3449   -0.6177   -1.8574 O.3       1 <0>        -0.3369
      4 C3          0.0606   -1.9027   -1.8136 C.2       1 <0>         0.5520
      5 O2         -0.3610   -2.6441   -0.9469 O.2       1 <0>        -0.5308
      6 C4          1.0109   -2.4068   -2.8118 C.2       1 <0>        -0.3905
      7 C5          1.5092   -3.6904   -2.8972 C.2       1 <0>         0.3017
      8 N1          2.3566   -3.8108   -3.9294 N.pl3     1 <0>        -0.6078
      9 C6          2.4816   -2.6035   -4.6088 C.2       1 <0>        -0.0079
     10 C7          3.2547   -2.3614   -5.7022 C.2       1 <0>        -0.0074
     11 C8          3.4053   -0.9923   -6.2049 C.ar      1 <0>        -0.0741
     12 C9          3.5772    0.0720   -5.3104 C.ar      1 <0>        -0.0501
     13 C10         3.7182    1.3586   -5.7929 C.ar      1 <0>         0.0913
     14 C11         3.6902    1.5998   -7.1620 C.ar      1 <0>        -0.1482
     15 C12         3.5213    0.5575   -8.0522 C.ar      1 <0>        -0.1781
     16 C13         3.3840   -0.7405   -7.5872 C.ar      1 <0>         0.1204
     17 O3          3.2238   -1.7646   -8.4636 O.3       1 <0>        -0.3138
     18 C14         3.2120   -1.4331   -9.8536 C.3       1 <0>         0.0262
     19 O4          3.8847    2.3929   -4.9259 O.3       1 <0>        -0.3132
     20 C15         4.0245    3.6976   -5.4918 C.3       1 <0>         0.0272
     21 C16         1.6097   -1.6410   -3.9173 C.2       1 <0>         0.4263
     22 O5          1.4253   -0.4680   -4.1969 O.2       1 <0>        -0.4157
     23 C17         1.1492   -4.8094   -1.9543 C.3       1 <0>        -0.1295
     24 H1         -0.7025    1.8782   -0.9944 H         1 <0>         0.0666
     25 H2         -2.0581    1.4145   -2.0507 H         1 <0>         0.0659
     26 H3         -2.3184    1.6040   -0.3001 H         1 <0>         0.0777
     27 H4         -0.8248   -0.3279    0.1311 H         1 <0>         0.0654
     28 H5         -2.1804   -0.7916   -0.9252 H         1 <0>         0.0650
     29 H6          2.8196   -4.6287   -4.1696 H         1 <0>         0.4285
     30 H7          3.7574   -3.1776   -6.1996 H         1 <0>         0.1448
     31 H8          3.5989   -0.1129   -4.2466 H         1 <0>         0.1377
     32 H9          3.8008    2.6085   -7.5315 H         1 <0>         0.1332
     33 H10         3.5005    0.7542   -9.1140 H         1 <0>         0.1347
     34 H11         3.0772   -2.3405  -10.4424 H         1 <0>         0.1018
     35 H12         2.3923   -0.7437  -10.0558 H         1 <0>         0.0569
     36 H13         4.1575   -0.9624  -10.1229 H         1 <0>         0.0570
     37 H14         3.1328    3.9405   -6.0697 H         1 <0>         0.0548
     38 H15         4.1500    4.4286   -4.6930 H         1 <0>         0.1007
     39 H16         4.8974    3.7190   -6.1443 H         1 <0>         0.0537
     40 H17         0.2795   -5.3425   -2.3384 H         1 <0>         0.1030
     41 H18         1.9897   -5.4983   -1.8702 H         1 <0>         0.0832
     42 H19         0.9179   -4.3969   -0.9722 H         1 <0>         0.1169
@<TRIPOS>BOND
     1    1    2 1
     2    1   24 1
     3    1   25 1
     4    1   26 1
     5    2    3 1
     6    2   27 1
     7    2   28 1
     8    3    4 1
     9    4    5 2
    10    4    6 1
    11    6   21 1
    12    6    7 2
    13    7    8 1
    14    7   23 1
    15    8    9 1
    16    8   29 1
    17    9   10 2
    18    9   21 1
    19   10   11 1
    20   10   30 1
    21   11   16 ar
    22   11   12 ar
    23   12   13 ar
    24   12   31 1
    25   13   14 ar
    26   13   19 1
    27   14   15 ar
    28   14   32 1
    29   15   16 ar
    30   15   33 1
    31   16   17 1
    32   17   18 1
    33   18   34 1
    34   18   35 1
    35   18   36 1
    36   19   20 1
    37   20   37 1
    38   20   38 1
    39   20   39 1
    40   21   22 2
    41   23   40 1
    42   23   41 1
    43   23   42 1
@<TRIPOS>MOLECULE
ZINC00096779
   44    46     0     0     0
SMALL
USER_CHARGES
4-[(4-diethylaminophenyl)methylene]-2-phenyl-oxazol-5-one
@<TRIPOS>ATOM
      1 C1          8.5473    2.6900   -1.1465 C.3       1 <0>        -0.1742
      2 C2          8.1481    2.9886    0.3001 C.3       1 <0>         0.1128
      3 N1          7.1948    4.1008    0.3239 N.pl3     1 <0>        -0.6158
      4 C3          7.6797    5.4790    0.4315 C.3       1 <0>         0.1126
      5 C4          7.7812    5.8702    1.9071 C.3       1 <0>        -0.1731
      6 C5          5.8300    3.8483    0.2445 C.ar      1 <0>         0.2555
      7 C6          4.9256    4.9078    0.2675 C.ar      1 <0>        -0.2149
      8 C7          3.5842    4.6654    0.1893 C.ar      1 <0>        -0.0207
      9 C8          3.1171    3.3463    0.0863 C.ar      1 <0>        -0.1848
     10 C9          4.0320    2.2826    0.0699 C.ar      1 <0>         0.0086
     11 C10         5.3716    2.5366    0.1419 C.ar      1 <0>        -0.2093
     12 C11         1.6806    3.0805    0.0022 C.2       1 <0>         0.1125
     13 C12         1.2128    2.0653   -0.8076 C.2       1 <0>        -0.1251
     14 C13         1.9859    1.2689   -1.7765 C.2       1 <0>         0.4764
     15 O1          3.1714    1.3655   -2.0333 O.2       1 <0>        -0.4179
     16 O2          1.0969    0.4091   -2.3188 O.3       1 <0>        -0.2924
     17 C14        -0.1099    0.6280   -1.7618 C.2       1 <0>         0.3240
     18 N2         -0.0633    1.5878   -0.8801 N.2       1 <0>        -0.4630
     19 C15        -1.3327   -0.1247   -2.1066 C.ar      1 <0>        -0.0410
     20 C16        -2.5406    0.1701   -1.4705 C.ar      1 <0>        -0.0616
     21 C17        -3.6801   -0.5333   -1.8012 C.ar      1 <0>        -0.1249
     22 C18        -3.6260   -1.5365   -2.7528 C.ar      1 <0>        -0.0915
     23 C19        -2.4315   -1.8374   -3.3832 C.ar      1 <0>        -0.1239
     24 C20        -1.2854   -1.1384   -3.0660 C.ar      1 <0>        -0.0782
     25 H1          9.2565    1.8626   -1.1642 H         1 <0>         0.0669
     26 H2          7.6603    2.4207   -1.7199 H         1 <0>         0.0612
     27 H3          9.0093    3.5741   -1.5858 H         1 <0>         0.0569
     28 H4          9.0351    3.2580    0.8735 H         1 <0>         0.0771
     29 H5          7.6861    2.1045    0.7394 H         1 <0>         0.0789
     30 H6          8.6627    5.5556   -0.0332 H         1 <0>         0.0770
     31 H7          6.9851    6.1491   -0.0751 H         1 <0>         0.0790
     32 H8          6.7982    5.7936    2.3718 H         1 <0>         0.0600
     33 H9          8.4757    5.2002    2.4137 H         1 <0>         0.0571
     34 H10         8.1419    6.8957    1.9872 H         1 <0>         0.0668
     35 H11         5.2862    5.9227    0.3468 H         1 <0>         0.1286
     36 H12         2.8840    5.4874    0.2065 H         1 <0>         0.1288
     37 H13         3.6775    1.2652   -0.0048 H         1 <0>         0.1206
     38 H14         6.0770    1.7189    0.1242 H         1 <0>         0.1269
     39 H15         0.9864    3.6787    0.5737 H         1 <0>         0.1521
     40 H16        -2.5833    0.9498   -0.7244 H         1 <0>         0.1410
     41 H17        -4.6157   -0.3036   -1.3131 H         1 <0>         0.1340
     42 H18        -4.5202   -2.0874   -3.0044 H         1 <0>         0.1301
     43 H19        -2.3964   -2.6215   -4.1249 H         1 <0>         0.1327
     44 H20        -0.3536   -1.3747   -3.5583 H         1 <0>         0.1343
@<TRIPOS>BOND
     1    1    2 1
     2    1   25 1
     3    1   26 1
     4    1   27 1
     5    2    3 1
     6    2   28 1
     7    2   29 1
     8    3    4 1
     9    3    6 1
    10    4    5 1
    11    4   30 1
    12    4   31 1
    13    5   32 1
    14    5   33 1
    15    5   34 1
    16    6   11 ar
    17    6    7 ar
    18    7    8 ar
    19    7   35 1
    20    8    9 ar
    21    8   36 1
    22    9   10 ar
    23    9   12 1
    24   10   11 ar
    25   10   37 1
    26   11   38 1
    27   12   13 2
    28   12   39 1
    29   13   18 1
    30   13   14 1
    31   14   15 2
    32   14   16 1
    33   16   17 1
    34   17   18 2
    35   17   19 1
    36   19   24 ar
    37   19   20 ar
    38   20   21 ar
    39   20   40 1
    40   21   22 ar
    41   21   41 1
    42   22   23 ar
    43   22   42 1
    44   23   24 ar
    45   23   43 1
    46   24   44 1
@<TRIPOS>MOLECULE
ZINC00103353
   32    33     0     0     0
SMALL
USER_CHARGES
N-(3,5-dichlorophenyl)-4-methoxy-3-nitro-benzamide
@<TRIPOS>ATOM
      1 C1          4.7551    1.3532   -0.0751 C.3       1 <0>         0.0143
      2 O1          3.5453    2.1134   -0.0496 O.3       1 <0>        -0.2732
      3 C2          2.3804    1.4172   -0.0346 C.ar      1 <0>         0.2259
      4 C3          2.4034    0.0272   -0.0444 C.ar      1 <0>        -0.2173
      5 C4          1.2239   -0.6828   -0.0293 C.ar      1 <0>         0.0056
      6 C5          0.0023   -0.0042   -0.0042 C.ar      1 <0>        -0.1789
      7 C6         -0.0165    1.3929    0.0056 C.ar      1 <0>         0.0470
      8 C7          1.1678    2.0957   -0.0096 C.ar      1 <0>        -0.0882
      9 N1          1.1491    3.5758    0.0002 N.pl3     1 <0>         0.0328
     10 O2          0.0869    4.1713    0.0217 O.2       1 <0>        -0.1651
     11 O3          2.1960    4.1981   -0.0132 O.3       1 <0>        -0.1290
     12 C8         -1.2644   -0.7612    0.0116 C.2       1 <0>         0.5698
     13 O4         -2.3263   -0.1692    0.0331 O.2       1 <0>        -0.4994
     14 N2         -1.2442   -2.1088    0.0021 N.am      1 <0>        -0.6660
     15 C9         -2.4390   -2.8268    0.1148 C.ar      1 <0>         0.1692
     16 C10        -2.4629   -4.0344    0.8001 C.ar      1 <0>        -0.1315
     17 C11        -3.6464   -4.7393    0.9149 C.ar      1 <0>        -0.0050
     18 C12        -4.8045   -4.2480    0.3383 C.ar      1 <0>        -0.1139
     19 C13        -4.7822   -3.0479   -0.3505 C.ar      1 <0>        -0.0047
     20 C14        -3.6025   -2.3362   -0.4634 C.ar      1 <0>        -0.1085
     21 Cl1        -6.2371   -2.4354   -1.0728 Cl        1 <0>        -0.0444
     22 Cl2        -3.6787   -6.2454    1.7776 Cl        1 <0>        -0.0469
     23 H1          4.8043    0.7189    0.8099 H         1 <0>         0.0677
     24 H2          4.7743    0.7309   -0.9697 H         1 <0>         0.0677
     25 H3          5.6093    2.0302   -0.0849 H         1 <0>         0.1180
     26 H4          3.3478   -0.4964   -0.0642 H         1 <0>         0.1626
     27 H5          1.2426   -1.7626   -0.0366 H         1 <0>         0.1493
     28 H6         -0.9585    1.9210    0.0205 H         1 <0>         0.1757
     29 H7         -0.4010   -2.5806   -0.0828 H         1 <0>         0.4146
     30 H8         -1.5585   -4.4203    1.2468 H         1 <0>         0.1450
     31 H9         -5.7273   -4.8023    0.4256 H         1 <0>         0.1485
     32 H10        -3.5858   -1.3994   -1.0004 H         1 <0>         0.1585
@<TRIPOS>BOND
     1    1    2 1
     2    1   23 1
     3    1   24 1
     4    1   25 1
     5    2    3 1
     6    3    8 ar
     7    3    4 ar
     8    4    5 ar
     9    4   26 1
    10    5    6 ar
    11    5   27 1
    12    6    7 ar
    13    6   12 1
    14    7    8 ar
    15    7   28 1
    16    8    9 1
    17    9   10 2
    18    9   11 1
    19   12   13 2
    20   12   14 am
    21   14   15 1
    22   14   29 1
    23   15   20 ar
    24   15   16 ar
    25   16   17 ar
    26   16   30 1
    27   17   18 ar
    28   17   22 1
    29   18   19 ar
    30   18   31 1
    31   19   20 ar
    32   19   21 1
    33   20   32 1
@<TRIPOS>MOLECULE
ZINC00103151
   28    29     0     0     0
SMALL
USER_CHARGES
N-(3,5-dichlorophenyl)-2-nitro-benzamide
@<TRIPOS>ATOM
      1 C1         -0.7349    9.3796   -1.3791 C.ar      1 <0>        -0.0694
      2 C2         -1.0628   10.1255   -0.2605 C.ar      1 <0>        -0.0936
      3 C3         -1.5962    9.5093    0.8573 C.ar      1 <0>        -0.0553
      4 C4         -1.8049    8.1454    0.8635 C.ar      1 <0>        -0.0044
      5 C5         -1.4764    7.3873   -0.2614 C.ar      1 <0>        -0.0722
      6 C6         -0.9331    8.0146   -1.3840 C.ar      1 <0>        -0.0863
      7 C7         -1.6973    5.9257   -0.2618 C.2       1 <0>         0.5588
      8 O1         -2.7991    5.4774   -0.0110 O.2       1 <0>        -0.4656
      9 N1         -0.6772    5.0901   -0.5403 N.am      1 <0>        -0.6619
     10 C8         -0.9089    3.7152   -0.6479 C.ar      1 <0>         0.1770
     11 C9         -2.1134    3.2508   -1.1600 C.ar      1 <0>        -0.1084
     12 C10        -2.3401    1.8913   -1.2649 C.ar      1 <0>        -0.0023
     13 C11        -1.3681    0.9932   -0.8601 C.ar      1 <0>        -0.1152
     14 C12        -0.1692    1.4533   -0.3445 C.ar      1 <0>        -0.0028
     15 C13         0.0648    2.8118   -0.2424 C.ar      1 <0>        -0.1307
     16 Cl1         1.0446    0.3232    0.1688 Cl        1 <0>        -0.0476
     17 Cl2        -3.8456    1.3099   -1.9044 Cl        1 <0>        -0.0463
     18 N2         -2.3753    7.4878    2.0606 N.pl3     1 <0>         0.0178
     19 O2         -2.7713    8.1613    2.9949 O.2       1 <0>        -0.1552
     20 O3         -2.4488    6.2730    2.1112 O.3       1 <0>        -0.1244
     21 H1         -0.3188    9.8668   -2.2486 H         1 <0>         0.1537
     22 H2         -0.9011   11.1933   -0.2601 H         1 <0>         0.1559
     23 H3         -1.8496   10.0971    1.7272 H         1 <0>         0.1627
     24 H4         -0.6723    7.4329   -2.2558 H         1 <0>         0.1545
     25 H5          0.2178    5.4424   -0.6661 H         1 <0>         0.4168
     26 H6         -2.8721    3.9513   -1.4765 H         1 <0>         0.1512
     27 H7         -1.5474   -0.0686   -0.9425 H         1 <0>         0.1482
     28 H8          1.0024    3.1704    0.1559 H         1 <0>         0.1449
@<TRIPOS>BOND
     1    1    6 ar
     2    1    2 ar
     3    1   21 1
     4    2    3 ar
     5    2   22 1
     6    3    4 ar
     7    3   23 1
     8    4    5 ar
     9    4   18 1
    10    5    6 ar
    11    5    7 1
    12    6   24 1
    13    7    8 2
    14    7    9 am
    15    9   10 1
    16    9   25 1
    17   10   15 ar
    18   10   11 ar
    19   11   12 ar
    20   11   26 1
    21   12   13 ar
    22   12   17 1
    23   13   14 ar
    24   13   27 1
    25   14   15 ar
    26   14   16 1
    27   15   28 1
    28   18   19 2
    29   18   20 1
@<TRIPOS>MOLECULE
ZINC00473688
   38    40     0     0     0
SMALL
USER_CHARGES
methyl 7-(2-nitrobenzoyl)amino-6-thiabicyclo[3.3.0]octa-7,9-diene-8-carboxylate
@<TRIPOS>ATOM
      1 C1          2.2198    1.0826    0.0693 C.3       1 <0>         0.0309
      2 O1          0.9953    1.8628    0.0594 O.3       1 <0>        -0.3508
      3 C2         -0.1668    1.1784    0.0361 C.2       1 <0>         0.5298
      4 O2         -0.1561   -0.0380    0.0243 O.2       1 <0>        -0.4944
      5 C3         -1.4410    1.8995    0.0188 C.2       1 <0>        -0.1929
      6 C4         -2.1250    2.2608    1.2604 C.2       1 <0>        -0.0925
      7 C5         -3.2850    2.9224    1.1019 C.2       1 <0>        -0.2306
      8 S1         -3.4851    3.0706   -0.6567 S.3       1 <0>         0.2956
      9 C6         -2.0407    2.2700   -1.1743 C.2       1 <0>         0.0744
     10 N1         -1.5936    2.0513   -2.4667 N.am      1 <0>        -0.6099
     11 C7         -2.3198    2.4895   -3.5141 C.2       1 <0>         0.5563
     12 O3         -3.3671    3.0766   -3.3244 O.2       1 <0>        -0.4519
     13 C8         -1.8428    2.2560   -4.8933 C.ar      1 <0>        -0.0714
     14 C9         -1.5468    0.9610   -5.3232 C.ar      1 <0>        -0.0854
     15 C10        -1.1062    0.7497   -6.6130 C.ar      1 <0>        -0.0680
     16 C11        -0.9480    1.8188   -7.4773 C.ar      1 <0>        -0.0905
     17 C12        -1.2344    3.1051   -7.0562 C.ar      1 <0>        -0.0541
     18 C13        -1.6806    3.3299   -5.7701 C.ar      1 <0>        -0.0018
     19 N2         -1.9861    4.7069   -5.3211 N.pl3     1 <0>         0.0179
     20 O4         -1.9586    5.6275   -6.1180 O.2       1 <0>        -0.1500
     21 O5         -2.2649    4.9193   -4.1546 O.3       1 <0>        -0.1271
     22 C14        -3.9254    3.2625    2.4205 C.3       1 <0>        -0.0323
     23 C15        -2.7920    3.0994    3.4572 C.3       1 <0>        -0.1154
     24 C16        -1.8708    2.0803    2.7576 C.3       1 <0>        -0.0619
     25 H1          2.2629    0.4627   -0.8262 H         1 <0>         0.0628
     26 H2          3.0783    1.7540    0.0882 H         1 <0>         0.1048
     27 H3          2.2374    0.4454    0.9535 H         1 <0>         0.0660
     28 H4         -0.7579    1.5827   -2.6180 H         1 <0>         0.4194
     29 H5         -1.6662    0.1262   -4.6484 H         1 <0>         0.1549
     30 H6         -0.8802   -0.2519   -6.9478 H         1 <0>         0.1553
     31 H7         -0.5991    1.6483   -8.4851 H         1 <0>         0.1576
     32 H8         -1.1081    3.9351   -7.7355 H         1 <0>         0.1647
     33 H9         -4.2885    4.2902    2.4128 H         1 <0>         0.0827
     34 H10        -4.7405    2.5720    2.6366 H         1 <0>         0.0869
     35 H11        -2.2746    4.0446    3.6215 H         1 <0>         0.0790
     36 H12        -3.1762    2.6991    4.3955 H         1 <0>         0.0857
     37 H13        -2.1281    1.0664    3.0643 H         1 <0>         0.0827
     38 H14        -0.8275    2.2924    2.9913 H         1 <0>         0.0737
@<TRIPOS>BOND
     1    1    2 1
     2    1   25 1
     3    1   26 1
     4    1   27 1
     5    2    3 1
     6    3    4 2
     7    3    5 1
     8    5    9 2
     9    5    6 1
    10    6   24 1
    11    6    7 2
    12    7    8 1
    13    7   22 1
    14    8    9 1
    15    9   10 1
    16   10   11 am
    17   10   28 1
    18   11   12 2
    19   11   13 1
    20   13   18 ar
    21   13   14 ar
    22   14   15 ar
    23   14   29 1
    24   15   16 ar
    25   15   30 1
    26   16   17 ar
    27   16   31 1
    28   17   18 ar
    29   17   32 1
    30   18   19 1
    31   19   20 2
    32   19   21 1
    33   22   23 1
    34   22   33 1
    35   22   34 1
    36   23   24 1
    37   23   35 1
    38   23   36 1
    39   24   37 1
    40   24   38 1
@<TRIPOS>MOLECULE
ZINC00115750
   40    42     0     0     0
SMALL
USER_CHARGES
5-[(4-ethoxy-3-methyl-phenyl)methylene]-2-phenyl-thiazol-4-one
@<TRIPOS>ATOM
      1 C1          4.0522    5.1871    1.0643 C.3       1 <0>        -0.1532
      2 C2          2.6126    4.7439    0.7957 C.3       1 <0>         0.0519
      3 O1          2.5245    3.3216    0.9014 O.3       1 <0>        -0.3082
      4 C3          1.3060    2.7623    0.6902 C.ar      1 <0>         0.1588
      5 C4          0.2157    3.5710    0.3871 C.ar      1 <0>        -0.2197
      6 C5         -1.0219    3.0096    0.1720 C.ar      1 <0>        -0.0440
      7 C6         -1.1816    1.6197    0.2536 C.ar      1 <0>        -0.1387
      8 C7         -0.0809    0.8105    0.5649 C.ar      1 <0>        -0.0044
      9 C8          1.1523    1.3832    0.7780 C.ar      1 <0>        -0.1251
     10 C9          2.3385    0.5138    1.1068 C.3       1 <0>        -0.1031
     11 C10        -2.4974    1.0147    0.0198 C.2       1 <0>         0.0926
     12 C11        -2.5952   -0.1584   -0.6613 C.2       1 <0>        -0.2633
     13 C12        -1.5566   -0.9212   -1.3901 C.2       1 <0>         0.5231
     14 O2         -0.4008   -0.5335   -1.4565 O.2       1 <0>        -0.4231
     15 N1         -1.9462   -2.0411   -1.9588 N.2       1 <0>        -0.5966
     16 C13        -3.1972   -2.4690   -1.9004 C.2       1 <0>         0.3344
     17 S1         -4.0162   -1.2092   -0.9350 S.3       1 <0>        -0.0545
     18 C14        -3.7759   -3.6926   -2.4904 C.ar      1 <0>        -0.0665
     19 C15        -5.1310   -3.9827   -2.3153 C.ar      1 <0>        -0.0644
     20 C16        -5.6660   -5.1248   -2.8737 C.ar      1 <0>        -0.1258
     21 C17        -4.8613   -5.9878   -3.5967 C.ar      1 <0>        -0.0748
     22 C18        -3.5169   -5.7093   -3.7696 C.ar      1 <0>        -0.1283
     23 C19        -2.9696   -4.5682   -3.2213 C.ar      1 <0>        -0.0437
     24 H1          4.3462    4.8783    2.0674 H         1 <0>         0.0672
     25 H2          4.7165    4.7266    0.3330 H         1 <0>         0.0674
     26 H3          4.1194    6.2720    0.9837 H         1 <0>         0.0799
     27 H4          2.3185    5.0527   -0.2074 H         1 <0>         0.0640
     28 H5          1.9483    5.2044    1.5270 H         1 <0>         0.0641
     29 H6          0.3408    4.6417    0.3209 H         1 <0>         0.1335
     30 H7         -1.8678    3.6386   -0.0632 H         1 <0>         0.1314
     31 H8         -0.1990   -0.2608    0.6330 H         1 <0>         0.1292
     32 H9          2.8381    0.2169    0.1847 H         1 <0>         0.0705
     33 H10         3.0345    1.0708    1.7341 H         1 <0>         0.0702
     34 H11         2.0009   -0.3752    1.6396 H         1 <0>         0.0640
     35 H12        -3.3885    1.5009    0.3885 H         1 <0>         0.1491
     36 H13        -5.7591   -3.3125   -1.7472 H         1 <0>         0.1346
     37 H14        -6.7145   -5.3484   -2.7427 H         1 <0>         0.1376
     38 H15        -5.2845   -6.8831   -4.0277 H         1 <0>         0.1343
     39 H16        -2.8947   -6.3872   -4.3350 H         1 <0>         0.1372
     40 H17        -1.9201   -4.3523   -3.3564 H         1 <0>         0.1423
@<TRIPOS>BOND
     1    1    2 1
     2    1   24 1
     3    1   25 1
     4    1   26 1
     5    2    3 1
     6    2   27 1
     7    2   28 1
     8    3    4 1
     9    4    9 ar
    10    4    5 ar
    11    5    6 ar
    12    5   29 1
    13    6    7 ar
    14    6   30 1
    15    7    8 ar
    16    7   11 1
    17    8    9 ar
    18    8   31 1
    19    9   10 1
    20   10   32 1
    21   10   33 1
    22   10   34 1
    23   11   12 2
    24   11   35 1
    25   12   17 1
    26   12   13 1
    27   13   14 2
    28   13   15 1
    29   15   16 2
    30   16   17 1
    31   16   18 1
    32   18   23 ar
    33   18   19 ar
    34   19   20 ar
    35   19   36 1
    36   20   21 ar
    37   20   37 1
    38   21   22 ar
    39   21   38 1
    40   22   23 ar
    41   22   39 1
    42   23   40 1
