@<TRIPOS>MOLECULE
ZINC04228232
   46    48     0     0     0
SMALL
USER_CHARGES
2-amino-4-[[5-(6-aminopurin-9-yl)-3,4-dihydroxy-tetrahydrofuran-2-yl]methylsulfanyl]butanoic acid
@<TRIPOS>ATOM
      1 C1          3.8176   -3.6131    2.4220 C.ar      1 <0>         0.3467
      2 N1          3.8812   -4.7432    1.7415 N.ar      1 <0>        -0.5735
      3 C2          3.2200   -4.8967    0.5990 C.ar      1 <0>         0.4480
      4 C3          2.4450   -3.8245    0.1245 C.ar      1 <0>        -0.0679
      5 C4          2.4150   -2.6416    0.8820 C.ar      1 <0>         0.3043
      6 N2          3.1057   -2.5831    2.0162 N.ar      1 <0>        -0.5273
      7 N3          1.5939   -1.7779    0.2022 N.pl3     1 <0>        -0.4718
      8 C5          1.1623   -2.4217   -0.9192 C.2       1 <0>         0.2723
      9 N4          1.6629   -3.6223   -0.9629 N.2       1 <0>        -0.4524
     10 C6          1.2492   -0.4120    0.6044 C.3       1 <0>         0.3206
     11 H1          1.1941   -0.3353    1.6903 H         1 <0>         0.1255
     12 C7          2.2740    0.6028    0.0367 C.3       1 <0>         0.0349
     13 H2          2.5932    0.3143   -0.9647 H         1 <0>         0.0880
     14 C8          1.4475    1.9113   -0.0015 C.3       1 <0>         0.0507
     15 H3          1.6594    2.4699   -0.9132 H         1 <0>         0.0883
     16 C9         -0.0174    1.4332    0.0099 C.3       1 <0>         0.1083
     17 H4         -0.5174    1.7922    0.9095 H         1 <0>         0.1084
     18 O1          0.0021   -0.0041    0.0020 O.3       1 <0>        -0.3461
     19 C10        -0.7432    1.9505   -1.2337 C.3       1 <0>        -0.0976
     20 S1         -2.4954    1.4893   -1.1468 S.3       1 <0>        -0.1983
     21 C11        -3.2038    2.1672   -2.6730 C.3       1 <0>        -0.1141
     22 C12        -4.6986    1.8454   -2.7283 C.3       1 <0>        -0.1100
     23 C13        -5.2961    2.4171   -4.0156 C.3       1 <0>        -0.0114
     24 H5         -4.7385    2.0409   -4.8733 H         1 <0>         0.1410
     25 C14        -6.7385    1.9959   -4.1302 C.2       1 <0>         0.4540
     26 O2         -7.6185    2.7648   -3.8232 O.co2     1 <0>        -0.6140
     27 O3          1.7219    2.7101    1.1512 O.3       1 <0>        -0.5381
     28 O4          3.3979    0.7348    0.9094 O.3       1 <0>        -0.5265
     29 N5          3.2930   -6.0845   -0.1072 N.pl3     1 <0>        -0.7437
     30 H6          4.3708   -3.5309    3.3459 H         1 <0>         0.2070
     31 H7          0.5027   -1.9980   -1.6620 H         1 <0>         0.2259
     32 H8         -0.6551    3.0359   -1.2806 H         1 <0>         0.1030
     33 H9         -0.2955    1.5108   -2.1249 H         1 <0>         0.0954
     34 H10        -3.0640    3.2480   -2.6897 H         1 <0>         0.0727
     35 H11        -2.7044    1.7229   -3.5340 H         1 <0>         0.0955
     36 H12        -4.8384    0.7645   -2.7116 H         1 <0>         0.1232
     37 H13        -5.1980    2.2897   -1.8674 H         1 <0>         0.0940
     38 H14        -5.7247    4.2568   -3.1970 H         1 <0>         0.4359
     39 H15        -4.2547    4.1925   -3.9722 H         1 <0>         0.4165
     40 H16         2.6306    3.0380    1.1952 H         1 <0>         0.3888
     41 H17         4.0670    1.3592    0.5971 H         1 <0>         0.3846
     42 H18         2.3775   -6.4773   -0.1943 H         1 <0>         0.3706
     43 H19         3.8313   -6.8174    0.2306 H         1 <0>         0.3742
     44 O5         -7.0455    0.7667   -4.5733 O.co2     1 <0>        -0.6970
     45 N6         -5.2265    3.8890   -4.0058 N.4       1 <0>        -0.6272
     46 H20        -5.6618    4.2531   -4.8615 H         1 <0>         0.4385
@<TRIPOS>BOND
     1    1    6 ar
     2    1    2 ar
     3    1   30 1
     4    2    3 ar
     5    3    4 ar
     6    3   29 1
     7    4    9 1
     8    4    5 ar
     9    5    6 ar
    10    5    7 1
    11    7    8 1
    12    7   10 1
    13    8    9 2
    14    8   31 1
    15   10   11 1
    16   10   18 1
    17   10   12 1
    18   12   13 1
    19   12   14 1
    20   12   28 1
    21   14   15 1
    22   14   16 1
    23   14   27 1
    24   16   17 1
    25   16   18 1
    26   16   19 1
    27   19   20 1
    28   19   32 1
    29   19   33 1
    30   20   21 1
    31   21   22 1
    32   21   34 1
    33   21   35 1
    34   22   23 1
    35   22   36 1
    36   22   37 1
    37   23   24 1
    38   23   25 1
    39   23   45 1
    40   25   26 2
    41   25   44 1
    42   27   40 1
    43   28   41 1
    44   29   42 1
    45   29   43 1
    46   38   45 1
    47   39   45 1
    48   45   46 1
