@<TRIPOS>MOLECULE
ZINC03966243
   84    88     0     0     0
SMALL
USER_CHARGES
N-(4-isopropoxyphenyl)-4-[6-methoxy-7-[3-(1-piperidyl)propoxy]quinazolin-4-yl]-piperazine-1-carboxamide
@<TRIPOS>ATOM
      1 C1          6.7701    4.5264   -1.2575 C.3       1 <0>        -0.1499
      2 C2          6.4967    3.0958   -0.7889 C.3       1 <0>         0.0769
      3 C3          7.4744    2.7298    0.3295 C.3       1 <0>        -0.1825
      4 O1          5.1571    3.0025   -0.3001 O.3       1 <0>        -0.3102
      5 C4          4.5717    1.7757   -0.3338 C.ar      1 <0>         0.1230
      6 C5          5.3083    0.6665   -0.7228 C.ar      1 <0>        -0.1923
      7 C6          4.7144   -0.5798   -0.7568 C.ar      1 <0>        -0.0743
      8 C7          3.3799   -0.7224   -0.4016 C.ar      1 <0>         0.1159
      9 C8          2.6432    0.3881   -0.0124 C.ar      1 <0>        -0.1027
     10 C9          3.2383    1.6338    0.0213 C.ar      1 <0>        -0.1355
     11 N1          2.7765   -1.9869   -0.4364 N.am      1 <0>        -0.6831
     12 C10         3.4836   -3.0808   -0.0903 C.2       1 <0>         0.7095
     13 O2          4.6669   -2.9820    0.1717 O.2       1 <0>        -0.5659
     14 N2          2.8793   -4.2842   -0.0346 N.am      1 <0>        -0.6302
     15 C11         1.4784   -4.4454   -0.4527 C.3       1 <0>         0.1163
     16 C12         1.4049   -5.6100   -1.4530 C.3       1 <0>         0.0464
     17 N3          2.0146   -6.8039   -0.8522 N.pl3     1 <0>        -0.4805
     18 C13         3.4424   -6.5929   -0.5788 C.3       1 <0>         0.0482
     19 C14         3.6012   -5.4698    0.4515 C.3       1 <0>         0.1328
     20 C15         1.8226   -7.9122   -1.6510 C.ar      1 <0>         0.3962
     21 C16         0.6195   -8.6545   -1.5866 C.ar      1 <0>        -0.1386
     22 C17        -0.4268   -8.2967   -0.7272 C.ar      1 <0>        -0.1287
     23 C18        -1.5707   -9.0425   -0.7073 C.ar      1 <0>         0.1093
     24 C19        -1.7117  -10.1606   -1.5416 C.ar      1 <0>         0.1588
     25 C20        -0.6998  -10.5302   -2.3993 C.ar      1 <0>        -0.1794
     26 C21         0.4818   -9.7794   -2.4366 C.ar      1 <0>         0.1794
     27 N4          1.4973  -10.0975   -3.2547 N.ar      1 <0>        -0.5194
     28 C22         2.5920   -9.3751   -3.2679 C.ar      1 <0>         0.3256
     29 N5          2.7631   -8.3137   -2.4959 N.ar      1 <0>        -0.5577
     30 O3         -2.8592  -10.8868   -1.5038 O.3       1 <0>        -0.2941
     31 C23        -2.9427  -12.0141   -2.3780 C.3       1 <0>         0.0564
     32 C24        -4.2971  -12.7020   -2.1952 C.3       1 <0>        -0.1506
     33 C25        -4.3865  -13.9090   -3.1312 C.3       1 <0>        -0.0020
     34 C26        -5.8040  -15.1525   -1.6130 C.3       1 <0>        -0.0079
     35 C27        -7.2186  -15.7022   -1.4158 C.3       1 <0>        -0.1471
     36 C28        -7.5007  -16.7656   -2.4807 C.3       1 <0>        -0.1398
     37 C29        -7.3247  -16.1452   -3.8695 C.3       1 <0>        -0.1477
     38 C30        -5.9070  -15.5827   -3.9956 C.3       1 <0>        -0.0015
     39 O4         -2.5839   -8.6973    0.1313 O.3       1 <0>        -0.3038
     40 C31        -2.3802   -7.5484    0.9564 C.3       1 <0>         0.0216
     41 H1          6.6397    5.2137   -0.4216 H         1 <0>         0.0680
     42 H2          7.7918    4.5976   -1.6304 H         1 <0>         0.0781
     43 H3          6.0735    4.7871   -2.0543 H         1 <0>         0.0652
     44 H4          6.6271    2.4085   -1.6248 H         1 <0>         0.0735
     45 H5          7.2796    1.7107    0.6634 H         1 <0>         0.0633
     46 H6          8.4962    2.8010   -0.0433 H         1 <0>         0.0733
     47 H7          7.3440    3.4171    1.1654 H         1 <0>         0.0686
     48 H8          6.3476    0.7769   -0.9947 H         1 <0>         0.1332
     49 H9          5.2879   -1.4432   -1.0601 H         1 <0>         0.1408
     50 H10         1.6050    0.2778    0.2637 H         1 <0>         0.1308
     51 H11         2.6653    2.4978    0.3240 H         1 <0>         0.1354
     52 H12         1.8499   -2.0748   -0.7096 H         1 <0>         0.4030
     53 H13         0.8598   -4.6663    0.4171 H         1 <0>         0.0856
     54 H14         1.1308   -3.5290   -0.9296 H         1 <0>         0.0889
     55 H15         1.9431   -5.3458   -2.3633 H         1 <0>         0.0616
     56 H16         0.3620   -5.8162   -1.6938 H         1 <0>         0.0941
     57 H17         3.9521   -6.3150   -1.5013 H         1 <0>         0.0689
     58 H18         3.8770   -7.5117   -0.1852 H         1 <0>         0.0954
     59 H19         4.6578   -5.2309    0.5728 H         1 <0>         0.1082
     60 H20         3.1850   -5.7851    1.4083 H         1 <0>         0.0782
     61 H21        -0.3280   -7.4373   -0.0806 H         1 <0>         0.1573
     62 H22        -0.8167  -11.3925   -3.0389 H         1 <0>         0.1519
     63 H23         3.3895   -9.6593   -3.9384 H         1 <0>         0.1992
     64 H24        -2.8407  -11.6812   -3.4109 H         1 <0>         0.0778
     65 H25        -2.1435  -12.7168   -2.1421 H         1 <0>         0.0777
     66 H26        -4.3991  -13.0349   -1.1623 H         1 <0>         0.1002
     67 H27        -5.0963  -11.9993   -2.4311 H         1 <0>         0.1003
     68 H28        -4.2845  -13.5761   -4.1641 H         1 <0>         0.1340
     69 H29        -3.5873  -14.6117   -2.8953 H         1 <0>         0.1355
     70 H30        -5.0816  -15.9614   -1.5040 H         1 <0>         0.1310
     71 H31        -5.6051  -14.3849   -0.8651 H         1 <0>         0.1299
     72 H32        -7.9407  -14.8913   -1.5110 H         1 <0>         0.0877
     73 H33        -7.3012  -16.1486   -0.4248 H         1 <0>         0.1122
     74 H34        -8.5225  -17.1289   -2.3709 H         1 <0>         0.0942
     75 H35        -6.8042  -17.5956   -2.3615 H         1 <0>         0.0818
     76 H36        -8.0484  -15.3413   -4.0033 H         1 <0>         0.0877
     77 H37        -7.4825  -16.9083   -4.6316 H         1 <0>         0.1125
     78 H38        -5.7830  -15.1275   -4.9782 H         1 <0>         0.1289
     79 H39        -5.1842  -16.3896   -3.8752 H         1 <0>         0.1307
     80 H40        -3.2625   -7.3845    1.5752 H         1 <0>         0.1075
     81 H41        -1.5126   -7.7098    1.5962 H         1 <0>         0.0622
     82 H42        -2.2103   -6.6748    0.3272 H         1 <0>         0.0599
     83 N6         -5.7075  -14.5479   -2.9586 N.4       1 <0>        -0.3926
     84 H43        -6.4386  -13.8336   -3.0559 H         1 <0>         0.4277
@<TRIPOS>BOND
     1    1    2 1
     2    1   41 1
     3    1   42 1
     4    1   43 1
     5    2    3 1
     6    2    4 1
     7    2   44 1
     8    3   45 1
     9    3   46 1
    10    3   47 1
    11    4    5 1
    12    5   10 ar
    13    5    6 ar
    14    6    7 ar
    15    6   48 1
    16    7    8 ar
    17    7   49 1
    18    8    9 ar
    19    8   11 1
    20    9   10 ar
    21    9   50 1
    22   10   51 1
    23   11   12 am
    24   11   52 1
    25   12   13 2
    26   12   14 am
    27   14   19 1
    28   14   15 1
    29   15   16 1
    30   15   53 1
    31   15   54 1
    32   16   17 1
    33   16   55 1
    34   16   56 1
    35   17   18 1
    36   17   20 1
    37   18   19 1
    38   18   57 1
    39   18   58 1
    40   19   59 1
    41   19   60 1
    42   20   29 ar
    43   20   21 ar
    44   21   26 ar
    45   21   22 ar
    46   22   23 ar
    47   22   61 1
    48   23   24 ar
    49   23   39 1
    50   24   25 ar
    51   24   30 1
    52   25   26 ar
    53   25   62 1
    54   26   27 ar
    55   27   28 ar
    56   28   29 ar
    57   28   63 1
    58   30   31 1
    59   31   32 1
    60   31   64 1
    61   31   65 1
    62   32   33 1
    63   32   66 1
    64   32   67 1
    65   33   68 1
    66   33   69 1
    67   33   83 1
    68   34   35 1
    69   34   70 1
    70   34   71 1
    71   34   83 1
    72   35   36 1
    73   35   72 1
    74   35   73 1
    75   36   37 1
    76   36   74 1
    77   36   75 1
    78   37   38 1
    79   37   76 1
    80   37   77 1
    81   38   78 1
    82   38   79 1
    83   38   83 1
    84   39   40 1
    85   40   80 1
    86   40   81 1
    87   40   82 1
    88   83   84 1
@<TRIPOS>MOLECULE
ZINC16052821
   50    53     0     0     0
SMALL
USER_CHARGES

@<TRIPOS>ATOM
      1 C1         -0.0148    1.3773    0.0271 C.ar      1 <0>        -0.1006
      2 C2          1.1716    2.0914    0.0302 C.ar      1 <0>        -0.1016
      3 C3          2.3828    1.4293    0.0152 C.ar      1 <0>        -0.0956
      4 C4          2.4121    0.0419   -0.0025 C.ar      1 <0>         0.0831
      5 C5          1.2157   -0.6782   -0.0051 C.ar      1 <0>         0.0779
      6 C6          0.0033   -0.0028    0.0095 C.ar      1 <0>        -0.0977
      7 N1          1.5496   -2.0286   -0.0233 N.pl3     1 <0>        -0.6071
      8 C7          2.9058   -2.1322   -0.0315 C.2       1 <0>         0.6537
      9 N2          3.4491   -0.8854   -0.0191 N.pl3     1 <0>        -0.4829
     10 C8          4.8803   -0.5726   -0.0226 C.3       1 <0>         0.1315
     11 C9          5.3859   -0.4812    1.4185 C.3       1 <0>         0.0390
     12 N3          6.8210   -0.1676    1.4150 N.3       1 <0>        -0.5323
     13 C10         7.6013   -1.2767    0.8472 C.3       1 <0>         0.0116
     14 C11         9.0808   -0.8849    0.8076 C.3       1 <0>         0.0628
     15 O1          9.5125   -0.5386    2.1263 O.3       1 <0>        -0.3839
     16 C12         8.7744    0.5386    2.7095 C.3       1 <0>         0.0637
     17 C13         7.2918    0.1613    2.7684 C.3       1 <0>         0.0189
     18 N4          3.5905   -3.2699   -0.0492 N.2       1 <0>        -0.6639
     19 C14         2.9482   -4.4386    0.0513 C.2       1 <0>         0.5488
     20 O2          1.7300   -4.4653    0.0626 O.2       1 <0>        -0.5763
     21 C15         3.7176   -5.7006    0.1488 C.ar      1 <0>        -0.1075
     22 C16         5.1123   -5.6728    0.1419 C.ar      1 <0>        -0.0106
     23 C17         5.8234   -6.8515    0.2330 C.ar      1 <0>        -0.1304
     24 C18         5.1559   -8.0596    0.3311 C.ar      1 <0>        -0.0328
     25 C19         3.7731   -8.0937    0.3380 C.ar      1 <0>        -0.0609
     26 C20         3.0507   -6.9209    0.2537 C.ar      1 <0>        -0.0058
     27 N5          3.0668   -9.3903    0.4428 N.pl3     1 <0>         0.0335
     28 O3          3.6984  -10.4181    0.5222 O.2       1 <0>        -0.1541
     29 O4          1.8582   -9.4215    0.4490 O.3       1 <0>        -0.1545
     30 H1         -0.9585    1.9025    0.0430 H         1 <0>         0.1394
     31 H2          1.1492    3.1711    0.0439 H         1 <0>         0.1397
     32 H3          3.3059    1.9900    0.0170 H         1 <0>         0.1362
     33 H4         -0.9242   -0.5561    0.0069 H         1 <0>         0.1359
     34 H5          5.4226   -1.3581   -0.5488 H         1 <0>         0.1067
     35 H6          5.0426    0.3806   -0.5257 H         1 <0>         0.1049
     36 H7          4.8436    0.3043    1.9448 H         1 <0>         0.0822
     37 H8          5.2236   -1.4345    1.9217 H         1 <0>         0.0490
     38 H9          7.4764   -2.1644    1.4672 H         1 <0>         0.0488
     39 H10         7.2531   -1.4864   -0.1642 H         1 <0>         0.0900
     40 H11         9.6701   -1.7252    0.4406 H         1 <0>         0.1005
     41 H12         9.2132   -0.0297    0.1450 H         1 <0>         0.0613
     42 H13         9.1421    0.7279    3.7180 H         1 <0>         0.1004
     43 H14         8.8979    1.4353    2.1021 H         1 <0>         0.0619
     44 H15         6.7176    1.0013    3.1593 H         1 <0>         0.0882
     45 H16         7.1619   -0.7035    3.4191 H         1 <0>         0.0461
     46 H17         5.6344   -4.7305    0.0650 H         1 <0>         0.1570
     47 H18         6.9032   -6.8313    0.2274 H         1 <0>         0.1544
     48 H19         5.7169   -8.9797    0.4022 H         1 <0>         0.1579
     49 H20         1.9711   -6.9484    0.2641 H         1 <0>         0.1626
     50 H21         0.9230   -2.7690   -0.0286 H         1 <0>         0.4510
@<TRIPOS>BOND
     1    1    6 ar
     2    1    2 ar
     3    1   30 1
     4    2    3 ar
     5    2   31 1
     6    3    4 ar
     7    3   32 1
     8    4    9 1
     9    4    5 ar
    10    5    6 ar
    11    5    7 1
    12    6   33 1
    13    7    8 1
    14    7   50 1
    15    8    9 1
    16    8   18 2
    17    9   10 1
    18   10   11 1
    19   10   34 1
    20   10   35 1
    21   11   12 1
    22   11   36 1
    23   11   37 1
    24   12   17 1
    25   12   13 1
    26   13   14 1
    27   13   38 1
    28   13   39 1
    29   14   15 1
    30   14   40 1
    31   14   41 1
    32   15   16 1
    33   16   17 1
    34   16   42 1
    35   16   43 1
    36   17   44 1
    37   17   45 1
    38   18   19 1
    39   19   20 2
    40   19   21 1
    41   21   26 ar
    42   21   22 ar
    43   22   23 ar
    44   22   46 1
    45   23   24 ar
    46   23   47 1
    47   24   25 ar
    48   24   48 1
    49   25   26 ar
    50   25   27 1
    51   26   49 1
    52   27   28 2
    53   27   29 1
@<TRIPOS>MOLECULE
ZINC16052821
   51    54     0     0     0
SMALL
USER_CHARGES

@<TRIPOS>ATOM
      1 C1          1.0221    1.4333    1.3244 C.ar      1 <0>        -0.0902
      2 C2          2.3583    1.7574    1.1596 C.ar      1 <0>        -0.0952
      3 C3          3.2495    0.8163    0.6846 C.ar      1 <0>        -0.1033
      4 C4          2.8050   -0.4604    0.3706 C.ar      1 <0>         0.0728
      5 C5          1.4575   -0.7872    0.5368 C.ar      1 <0>         0.1001
      6 C6          0.5697    0.1664    1.0151 C.ar      1 <0>        -0.0918
      7 N1          1.3064   -2.1146    0.1488 N.pl3     1 <0>        -0.5961
      8 H1          0.4771   -2.6178    0.1556 H         1 <0>         0.4521
      9 C7          2.5211   -2.5853   -0.2422 C.2       1 <0>         0.6625
     10 N2          2.7656   -3.8155   -0.6783 N.2       1 <0>        -0.6562
     11 C8          4.0239   -4.2053   -0.9093 C.2       1 <0>         0.5805
     12 O1          4.5078   -4.0756   -2.0201 O.2       1 <0>        -0.5133
     13 C9          4.8293   -4.7948    0.1852 C.ar      1 <0>        -0.1778
     14 C10         4.2762   -4.9499    1.4565 C.ar      1 <0>        -0.0176
     15 C11         5.0313   -5.5000    2.4717 C.ar      1 <0>        -0.1162
     16 C12         6.3346   -5.8975    2.2309 C.ar      1 <0>        -0.0200
     17 C13         6.8888   -5.7459    0.9727 C.ar      1 <0>        -0.0559
     18 C14         6.1418   -5.2022   -0.0525 C.ar      1 <0>        -0.0155
     19 N3          8.2839   -6.1732    0.7237 N.pl3     1 <0>         0.0286
     20 O2          8.9378   -6.6543    1.6196 O.2       1 <0>        -0.1353
     21 O3          8.7695   -6.0413   -0.3756 O.3       1 <0>        -0.1547
     22 N4          3.4455   -1.5958   -0.1151 N.pl3     1 <0>        -0.5372
     23 C15         4.8709   -1.7065   -0.4348 C.3       1 <0>         0.0901
     24 C16         5.0926   -1.3521   -1.9066 C.3       1 <0>        -0.0384
     25 N5          6.5241   -1.4462   -2.2227 N.4       1 <0>        -0.3800
     26 C17         7.2566   -0.4017   -1.4936 C.3       1 <0>        -0.0539
     27 C18         8.7477   -0.5021   -1.8245 C.3       1 <0>         0.0369
     28 O4          8.9263   -0.3795   -3.2383 O.3       1 <0>        -0.3531
     29 C19         8.2121   -1.3615   -3.9942 C.3       1 <0>         0.0358
     30 C20         6.7199   -1.2627   -3.6674 C.3       1 <0>        -0.0413
     31 H2          0.3318    2.1737    1.7008 H         1 <0>         0.1460
     32 H3          2.7046    2.7509    1.4034 H         1 <0>         0.1435
     33 H4          4.2908    1.0732    0.5571 H         1 <0>         0.1292
     34 H5         -0.4731   -0.0825    1.1454 H         1 <0>         0.1437
     35 H6          3.2592   -4.6397    1.6456 H         1 <0>         0.1502
     36 H7          4.6043   -5.6203    3.4564 H         1 <0>         0.1617
     37 H8          6.9217   -6.3277    3.0289 H         1 <0>         0.1665
     38 H9          6.5740   -5.0885   -1.0356 H         1 <0>         0.1607
     39 H10         5.4386   -1.0203    0.1936 H         1 <0>         0.1218
     40 H11         5.2059   -2.7277   -0.2525 H         1 <0>         0.1100
     41 H12         4.5352   -2.0464   -2.5354 H         1 <0>         0.1555
     42 H13         4.7457   -0.3355   -2.0917 H         1 <0>         0.1413
     43 H14         6.8834    0.5785   -1.7903 H         1 <0>         0.1446
     44 H15         7.1120   -0.5370   -0.4218 H         1 <0>         0.1369
     45 H16         9.2875    0.2985   -1.3187 H         1 <0>         0.1446
     46 H17         9.1303   -1.4669   -1.4916 H         1 <0>         0.0831
     47 H18         8.3641   -1.1829   -5.0587 H         1 <0>         0.1460
     48 H19         8.5763   -2.3557   -3.7356 H         1 <0>         0.0856
     49 H20         6.1770   -2.0372   -4.2092 H         1 <0>         0.1474
     50 H21         6.3470   -0.2822   -3.9632 H         1 <0>         0.1409
     51 H22         6.8702   -2.3536   -1.9488 H         1 <0>         0.4241
@<TRIPOS>BOND
     1    1    6 ar
     2    1    2 ar
     3    1   31 1
     4    2    3 ar
     5    2   32 1
     6    3    4 ar
     7    3   33 1
     8    4   22 1
     9    4    5 ar
    10    5    6 ar
    11    5    7 1
    12    6   34 1
    13    7    8 1
    14    7    9 1
    15    9   10 2
    16    9   22 1
    17   10   11 1
    18   11   12 2
    19   11   13 1
    20   13   18 ar
    21   13   14 ar
    22   14   15 ar
    23   14   35 1
    24   15   16 ar
    25   15   36 1
    26   16   17 ar
    27   16   37 1
    28   17   18 ar
    29   17   19 1
    30   18   38 1
    31   19   20 2
    32   19   21 1
    33   22   23 1
    34   23   24 1
    35   23   39 1
    36   23   40 1
    37   24   25 1
    38   24   41 1
    39   24   42 1
    40   25   30 1
    41   25   26 1
    42   25   51 1
    43   26   27 1
    44   26   43 1
    45   26   44 1
    46   27   28 1
    47   27   45 1
    48   27   46 1
    49   28   29 1
    50   29   30 1
    51   29   47 1
    52   29   48 1
    53   30   49 1
    54   30   50 1
@<TRIPOS>MOLECULE
ZINC03964325
   57    59     0     0     0
SMALL
USER_CHARGES

@<TRIPOS>ATOM
      1 C1          0.1489    2.0884    0.1150 C.3       1 <0>        -0.1876
      2 C2          0.1348    0.5603    0.1888 C.3       1 <0>        -0.0191
      3 N1         -1.2520    0.0881    0.2979 N.4       1 <0>        -0.3822
      4 C3         -1.9779    0.4111   -0.9377 C.3       1 <0>        -0.0142
      5 C4         -3.4549    0.0484   -0.7712 C.3       1 <0>        -0.1895
      6 C5         -1.2593   -1.3663    0.5041 C.3       1 <0>        -0.0265
      7 C6         -0.6131   -1.6936    1.8518 C.3       1 <0>         0.0952
      8 N2         -0.6203   -3.1440    2.0575 N.am      1 <0>        -0.7289
      9 C7         -0.0988   -3.6675    3.1846 C.2       1 <0>         0.6111
     10 O1          0.3779   -2.9358    4.0309 O.2       1 <0>        -0.5184
     11 C8         -0.1061   -5.1270    3.3915 C.2       1 <0>        -0.2420
     12 C9          0.9071   -6.0320    3.0089 C.2       1 <0>        -0.0577
     13 C10         0.4868   -7.2892    3.3960 C.2       1 <0>        -0.0075
     14 N3         -0.7476   -7.1595    3.9982 N.pl3     1 <0>        -0.4910
     15 H1         -1.2731   -7.8879    4.3645 H         1 <0>         0.4270
     16 C11        -1.1044   -5.8642    4.0022 C.2       1 <0>         0.1158
     17 C12        -2.3825   -5.3072    4.5743 C.3       1 <0>        -0.0999
     18 C13         1.1957   -8.4957    3.2079 C.2       1 <0>         0.0729
     19 C14         0.5100   -9.6674    2.9570 C.2       1 <0>        -0.1889
     20 C15         1.0648  -11.0377    2.8871 C.ar      1 <0>        -0.0736
     21 C16         2.3472  -11.5557    3.0375 C.ar      1 <0>        -0.1000
     22 C17         2.5553  -12.9162    2.9116 C.ar      1 <0>         0.0861
     23 C18         1.4888  -13.7593    2.6366 C.ar      1 <0>        -0.1139
     24 C19         0.2139  -13.2531    2.4856 C.ar      1 <0>        -0.1021
     25 C20        -0.0144  -11.8871    2.6092 C.ar      1 <0>         0.1282
     26 N4         -1.1765  -11.1301    2.5069 N.am      1 <0>        -0.6466
     27 C21        -0.9294   -9.8245    2.7079 C.2       1 <0>         0.5595
     28 O2         -1.7538   -8.9280    2.6842 O.2       1 <0>        -0.5156
     29 F1          3.7984  -13.4252    3.0561 F         1 <0>        -0.1318
     30 C22         2.1990   -5.6919    2.3116 C.3       1 <0>        -0.0931
     31 H2          1.1793    2.4435    0.1331 H         1 <0>         0.1076
     32 H3         -0.3308    2.4121   -0.8087 H         1 <0>         0.0811
     33 H4         -0.3916    2.4984    0.9682 H         1 <0>         0.0809
     34 H5          0.5888    0.1488   -0.7126 H         1 <0>         0.1317
     35 H6          0.6996    0.2334    1.0619 H         1 <0>         0.1337
     36 H7         -1.8867    1.4775   -1.1444 H         1 <0>         0.1351
     37 H8         -1.5554   -0.1571   -1.7664 H         1 <0>         0.1307
     38 H9         -3.5537   -1.0316   -0.6617 H         1 <0>         0.0802
     39 H10        -3.8523    0.5414    0.1160 H         1 <0>         0.0808
     40 H11        -4.0109    0.3769   -1.6492 H         1 <0>         0.1074
     41 H12        -2.2871   -1.7292    0.4963 H         1 <0>         0.1397
     42 H13        -0.6973   -1.8494   -0.2952 H         1 <0>         0.1376
     43 H14         0.4147   -1.3306    1.8596 H         1 <0>         0.0893
     44 H15        -1.1751   -1.2105    2.6511 H         1 <0>         0.0890
     45 H16        -1.0005   -3.7277    1.3824 H         1 <0>         0.4099
     46 H17        -3.1529   -5.3000    3.8032 H         1 <0>         0.0840
     47 H18        -2.7087   -5.9289    5.4080 H         1 <0>         0.0782
     48 H19        -2.2103   -4.2898    4.9254 H         1 <0>         0.0840
     49 H20         2.2744   -8.5020    3.2604 H         1 <0>         0.1589
     50 H21         3.1765  -10.8977    3.2512 H         1 <0>         0.1436
     51 H22         1.6578  -14.8215    2.5394 H         1 <0>         0.1485
     52 H23        -0.6084  -13.9196    2.2712 H         1 <0>         0.1415
     53 H24        -2.0541  -11.4980    2.3189 H         1 <0>         0.4217
     54 H25         2.9686   -5.4822    3.0545 H         1 <0>         0.0785
     55 H26         2.5107   -6.5337    1.6932 H         1 <0>         0.0726
     56 H27         2.0522   -4.8138    1.6827 H         1 <0>         0.0634
     57 H28        -1.7009    0.5410    1.0799 H         1 <0>         0.4247
@<TRIPOS>BOND
     1    1    2 1
     2    1   31 1
     3    1   32 1
     4    1   33 1
     5    2    3 1
     6    2   34 1
     7    2   35 1
     8    3    4 1
     9    3    6 1
    10    3   57 1
    11    4    5 1
    12    4   36 1
    13    4   37 1
    14    5   38 1
    15    5   39 1
    16    5   40 1
    17    6    7 1
    18    6   41 1
    19    6   42 1
    20    7    8 1
    21    7   43 1
    22    7   44 1
    23    8    9 am
    24    8   45 1
    25    9   10 2
    26    9   11 1
    27   11   16 2
    28   11   12 1
    29   12   13 2
    30   12   30 1
    31   13   14 1
    32   13   18 1
    33   14   15 1
    34   14   16 1
    35   16   17 1
    36   17   46 1
    37   17   47 1
    38   17   48 1
    39   18   19 2
    40   18   49 1
    41   19   27 1
    42   19   20 1
    43   20   25 ar
    44   20   21 ar
    45   21   22 ar
    46   21   50 1
    47   22   23 ar
    48   22   29 1
    49   23   24 ar
    50   23   51 1
    51   24   25 ar
    52   24   52 1
    53   25   26 1
    54   26   27 am
    55   26   53 1
    56   27   28 2
    57   30   54 1
    58   30   55 1
    59   30   56 1
