@<TRIPOS>MOLECULE
ZINC00014006
   39    41     0     0     0
SMALL
USER_CHARGES

@<TRIPOS>ATOM
      1 C1         -0.0259    1.5233    0.0027 C.3       1 <0>        -0.1915
      2 C2         -0.0037   -0.0065   -0.0063 C.3       1 <0>         0.0849
      3 C3          0.6310   -0.5063   -1.3103 C.3       1 <0>         0.0686
      4 H1          0.0054   -0.2215   -2.1562 H         1 <0>         0.0801
      5 C4          2.0123    0.1382   -1.4500 C.3       1 <0>         0.2115
      6 H2          2.5632   -0.3545   -2.2512 H         1 <0>         0.1033
      7 C5          2.7729   -0.0057   -0.1558 C.ar      1 <0>        -0.1494
      8 C6          4.1438    0.1612   -0.1717 C.ar      1 <0>         0.0071
      9 C7          4.8798    0.0387    1.0080 C.ar      1 <0>        -0.0639
     10 C8          4.2222   -0.2529    2.2065 C.ar      1 <0>        -0.0269
     11 C9          2.8569   -0.4189    2.2142 C.ar      1 <0>        -0.1521
     12 C10         2.1244   -0.2987    1.0341 C.ar      1 <0>         0.1885
     13 O1          0.7804   -0.4825    1.0882 O.3       1 <0>        -0.2951
     14 C11         6.3013    0.2104    0.9905 C.1       1 <0>         0.2605
     15 N1          7.4290    0.3466    0.9765 N.1       1 <0>        -0.4255
     16 N2          1.8571    1.5599   -1.7678 N.am      1 <0>        -0.6201
     17 C12         1.1602    2.0720   -2.9535 C.3       1 <0>         0.0971
     18 C13         0.8699    3.5588   -2.6509 C.3       1 <0>        -0.1329
     19 C14         1.9835    3.8965   -1.6327 C.3       1 <0>        -0.1580
     20 C15         2.3296    2.5629   -1.0079 C.2       1 <0>         0.5201
     21 O2          2.9460    2.4196    0.0267 O.2       1 <0>        -0.5047
     22 O3          0.7643   -1.9284   -1.2671 O.3       1 <0>        -0.5446
     23 C16        -1.4317   -0.5431    0.1113 C.3       1 <0>        -0.1444
     24 H3          0.9577    1.8992    0.2843 H         1 <0>         0.0845
     25 H4         -0.2837    1.8888   -0.9913 H         1 <0>         0.0744
     26 H5         -0.7675    1.8717    0.7216 H         1 <0>         0.0654
     27 H6          4.6479    0.3868   -1.0998 H         1 <0>         0.1253
     28 H7          4.7845   -0.3478    3.1236 H         1 <0>         0.1383
     29 H8          2.3491   -0.6443    3.1403 H         1 <0>         0.1398
     30 H9          1.7976    1.9836   -3.8333 H         1 <0>         0.0787
     31 H10         0.2274    1.5292   -3.1067 H         1 <0>         0.0795
     32 H11         0.9669    4.1662   -3.5508 H         1 <0>         0.0948
     33 H12        -0.1169    3.6806   -2.2043 H         1 <0>         0.0840
     34 H13         2.8496    4.3202   -2.1411 H         1 <0>         0.1070
     35 H14         1.6109    4.5848   -0.8740 H         1 <0>         0.1038
     36 H15        -0.0739   -2.3990   -1.1616 H         1 <0>         0.3854
     37 H16        -2.0247   -0.1852   -0.7304 H         1 <0>         0.0809
     38 H17        -1.4120   -1.6329    0.1045 H         1 <0>         0.0690
     39 H18        -1.8757   -0.1935    1.0433 H         1 <0>         0.0766
@<TRIPOS>BOND
     1    1    2 1
     2    1   24 1
     3    1   25 1
     4    1   26 1
     5    2   13 1
     6    2    3 1
     7    2   23 1
     8    3    4 1
     9    3    5 1
    10    3   22 1
    11    5    6 1
    12    5    7 1
    13    5   16 1
    14    7   12 ar
    15    7    8 ar
    16    8    9 ar
    17    8   27 1
    18    9   10 ar
    19    9   14 1
    20   10   11 ar
    21   10   28 1
    22   11   12 ar
    23   11   29 1
    24   12   13 1
    25   14   15 3
    26   16   20 am
    27   16   17 1
    28   17   18 1
    29   17   30 1
    30   17   31 1
    31   18   19 1
    32   18   32 1
    33   18   33 1
    34   19   20 1
    35   19   34 1
    36   19   35 1
    37   20   21 2
    38   22   36 1
    39   23   37 1
    40   23   38 1
    41   23   39 1
@<TRIPOS>MOLECULE
ZINC03995738
   39    40     0     0     0
SMALL
USER_CHARGES

@<TRIPOS>ATOM
      1 C1          0.7857   -1.3467   -1.6547 C.3       1 <0>        -0.1492
      2 C2          1.8563   -0.3352   -1.2405 C.3       1 <0>         0.0846
      3 C3          2.5808   -0.8420   -0.0201 C.2       1 <0>         0.4937
      4 O1          3.6200   -1.4553   -0.1429 O.2       1 <0>        -0.4805
      5 N1          2.0741   -0.6137    1.2077 N.am      1 <0>        -0.6588
      6 C4          2.6938   -1.1660    2.3341 C.ar      1 <0>         0.1956
      7 C5          1.9276   -1.5927    3.4108 C.ar      1 <0>        -0.1585
      8 C6          2.5424   -2.1374    4.5212 C.ar      1 <0>        -0.0004
      9 C7          3.9193   -2.2579    4.5616 C.ar      1 <0>        -0.6706
     10 C8          4.6852   -1.8335    3.4912 C.ar      1 <0>         0.0001
     11 C9          4.0761   -1.2937    2.3754 C.ar      1 <0>        -0.1402
     12 S1          4.6997   -2.9533    5.9800 S.o2      1 <0>         2.5832
     13 O2          6.0303   -2.4547    5.9969 O.2       1 <0>        -0.9342
     14 O3          3.8036   -2.7700    7.0675 O.2       1 <0>        -0.9348
     15 C10         4.8165   -4.6908    5.7112 C.ar      1 <0>        -0.6588
     16 C11         3.7895   -5.5232    6.1152 C.ar      1 <0>        -0.0227
     17 C12         3.8811   -6.8863    5.9042 C.ar      1 <0>        -0.1393
     18 C13         4.9995   -7.4169    5.2889 C.ar      1 <0>        -0.0622
     19 C14         6.0261   -6.5843    4.8841 C.ar      1 <0>        -0.1385
     20 C15         5.9326   -5.2208    5.0912 C.ar      1 <0>        -0.0219
     21 C16         2.8538   -0.1505   -2.3858 C.3       1 <0>         0.4425
     22 F1          2.1812    0.3200   -3.5187 F         1 <0>        -0.1654
     23 F2          3.8328    0.7744   -2.0071 F         1 <0>        -0.1764
     24 F3          3.4596   -1.3770   -2.6789 F         1 <0>        -0.1588
     25 O4          1.2376    0.9176   -0.9411 O.3       1 <0>        -0.5164
     26 H1          0.0751   -1.4782   -0.8387 H         1 <0>         0.0945
     27 H2          0.2616   -0.9801   -2.5374 H         1 <0>         0.0984
     28 H3          1.2577   -2.3023   -1.8831 H         1 <0>         0.0962
     29 H4          1.2797   -0.0666    1.3105 H         1 <0>         0.4241
     30 H5          0.8522   -1.4985    3.3801 H         1 <0>         0.1410
     31 H6          1.9471   -2.4691    5.3591 H         1 <0>         0.1497
     32 H7          5.7604   -1.9287    3.5259 H         1 <0>         0.1485
     33 H8          4.6744   -0.9672    1.5377 H         1 <0>         0.1504
     34 H9          2.9158   -5.1087    6.5959 H         1 <0>         0.1425
     35 H10         3.0791   -7.5368    6.2205 H         1 <0>         0.1351
     36 H11         5.0714   -8.4819    5.1248 H         1 <0>         0.1328
     37 H12         6.9000   -6.9989    4.4037 H         1 <0>         0.1353
     38 H13         6.7329   -4.5699    4.7715 H         1 <0>         0.1428
     39 H14         1.8581    1.6081   -0.6704 H         1 <0>         0.3963
@<TRIPOS>BOND
     1    1    2 1
     2    1   26 1
     3    1   27 1
     4    1   28 1
     5    2    3 1
     6    2   21 1
     7    2   25 1
     8    3    4 2
     9    3    5 am
    10    5    6 1
    11    5   29 1
    12    6   11 ar
    13    6    7 ar
    14    7    8 ar
    15    7   30 1
    16    8    9 ar
    17    8   31 1
    18    9   10 ar
    19    9   12 1
    20   10   11 ar
    21   10   32 1
    22   11   33 1
    23   12   13 2
    24   12   14 2
    25   12   15 1
    26   15   20 ar
    27   15   16 ar
    28   16   17 ar
    29   16   34 1
    30   17   18 ar
    31   17   35 1
    32   18   19 ar
    33   18   36 1
    34   19   20 ar
    35   19   37 1
    36   20   38 1
    37   21   22 1
    38   21   23 1
    39   21   24 1
    40   25   39 1
@<TRIPOS>MOLECULE
ZINC03995739
   39    40     0     0     0
SMALL
USER_CHARGES

@<TRIPOS>ATOM
      1 C1         -2.7716   -0.3342    0.9031 C.3       1 <0>        -0.1501
      2 C2         -1.7058    0.6876    1.3043 C.3       1 <0>         0.0840
      3 C3         -0.9718    0.1950    2.5248 C.2       1 <0>         0.4938
      4 O1         -1.3200    0.5566    3.6289 O.2       1 <0>        -0.4806
      5 N1          0.0715   -0.6474    2.3895 N.am      1 <0>        -0.6585
      6 C4          0.8135   -1.0283    3.5130 C.ar      1 <0>         0.1951
      7 C5          2.1835   -1.2291    3.4068 C.ar      1 <0>        -0.1587
      8 C6          2.9130   -1.6051    4.5176 C.ar      1 <0>        -0.0005
      9 C7          2.2806   -1.7816    5.7346 C.ar      1 <0>        -0.6707
     10 C8          0.9165   -1.5829    5.8436 C.ar      1 <0>         0.0000
     11 C9          0.1823   -1.2009    4.7379 C.ar      1 <0>        -0.1402
     12 S1          3.2149   -2.2614    7.1494 S.o2      1 <0>         2.5834
     13 O2          2.3058   -2.8902    8.0423 O.2       1 <0>        -0.9342
     14 O3          4.3804   -2.9137    6.6643 O.2       1 <0>        -0.9349
     15 C10         3.7575   -0.7837    7.9410 C.ar      1 <0>        -0.6589
     16 C11         4.9648   -0.2122    7.5852 C.ar      1 <0>        -0.0228
     17 C12         5.3905    0.9471    8.2062 C.ar      1 <0>        -0.1392
     18 C13         4.6085    1.5352    9.1828 C.ar      1 <0>        -0.0621
     19 C14         3.4008    0.9642    9.5380 C.ar      1 <0>        -0.1385
     20 C15         2.9731   -0.1927    8.9139 C.ar      1 <0>        -0.0219
     21 C16        -2.3757    2.0269    1.6180 C.3       1 <0>         0.4429
     22 F1         -3.2815    1.8599    2.6711 F         1 <0>        -0.1588
     23 F2         -1.4012    2.9612    1.9848 F         1 <0>        -0.1767
     24 F3         -3.0571    2.4842    0.4849 F         1 <0>        -0.1654
     25 O4         -0.7806    0.8582    0.2286 O.3       1 <0>        -0.5158
     26 H1         -3.4773   -0.4643    1.7236 H         1 <0>         0.0969
     27 H2         -3.3024    0.0221    0.0203 H         1 <0>         0.0985
     28 H3         -2.2943   -1.2883    0.6796 H         1 <0>         0.0948
     29 H4          0.3081   -0.9896    1.5132 H         1 <0>         0.4242
     30 H5          2.6779   -1.0917    2.4565 H         1 <0>         0.1411
     31 H6          3.9784   -1.7617    4.4356 H         1 <0>         0.1496
     32 H7          0.4255   -1.7220    6.7954 H         1 <0>         0.1486
     33 H8         -0.8822   -1.0408    4.8248 H         1 <0>         0.1511
     34 H9          5.5757   -0.6716    6.8222 H         1 <0>         0.1425
     35 H10         6.3341    1.3932    7.9287 H         1 <0>         0.1351
     36 H11         4.9414    2.4406    9.6685 H         1 <0>         0.1328
     37 H12         2.7900    1.4235   10.3012 H         1 <0>         0.1354
     38 H13         2.0278   -0.6368    9.1887 H         1 <0>         0.1429
     39 H14        -0.0755    1.4936    0.4134 H         1 <0>         0.3959
@<TRIPOS>BOND
     1    1    2 1
     2    1   26 1
     3    1   27 1
     4    1   28 1
     5    2    3 1
     6    2   21 1
     7    2   25 1
     8    3    4 2
     9    3    5 am
    10    5    6 1
    11    5   29 1
    12    6   11 ar
    13    6    7 ar
    14    7    8 ar
    15    7   30 1
    16    8    9 ar
    17    8   31 1
    18    9   10 ar
    19    9   12 1
    20   10   11 ar
    21   10   32 1
    22   11   33 1
    23   12   13 2
    24   12   14 2
    25   12   15 1
    26   15   20 ar
    27   15   16 ar
    28   16   17 ar
    29   16   34 1
    30   17   18 ar
    31   17   35 1
    32   18   19 ar
    33   18   36 1
    34   19   20 ar
    35   19   37 1
    36   20   38 1
    37   21   22 1
    38   21   23 1
    39   21   24 1
    40   25   39 1
@<TRIPOS>MOLECULE
ZINC03946466
   39    41     0     0     0
SMALL
USER_CHARGES

@<TRIPOS>ATOM
      1 C1          1.5635    1.1323   -0.7789 C.ar      1 <0>        -0.1038
      2 C2          2.4995    1.9690   -0.1997 C.ar      1 <0>        -0.0897
      3 C3          3.8357    1.6153   -0.1968 C.ar      1 <0>        -0.0622
      4 C4          4.2370    0.4247   -0.7735 C.ar      1 <0>        -0.1014
      5 C5          3.3010   -0.4128   -1.3532 C.ar      1 <0>        -0.0315
      6 C6          1.9634   -0.0582   -1.3554 C.ar      1 <0>        -0.1082
      7 Cl1         3.8042   -1.9077   -2.0781 Cl        1 <0>        -0.0677
      8 C7          4.8552    2.5278    0.4347 C.3       1 <0>         0.1997
      9 C8          6.2111    2.5324   -0.2909 C.3       1 <0>        -0.1333
     10 C9          6.8665    2.5656    1.0998 C.3       1 <0>        -0.1445
     11 C10         5.5870    1.8988    1.6321 C.3       1 <0>        -0.1248
     12 N1          4.3286    3.8675    0.7066 N.pl3     1 <0>        -0.6778
     13 C11         3.3574    4.0409    1.6521 C.2       1 <0>         0.6816
     14 N2          2.9666    3.0189    2.3930 N.2       1 <0>        -0.5358
     15 C12         2.0788    3.2113    3.3984 C.1       1 <0>         0.3729
     16 N3          1.3344    3.3726    4.2412 N.1       1 <0>        -0.4551
     17 N4          2.7899    5.2722    1.8316 N.pl3     1 <0>        -0.6819
     18 C13         2.8620    6.2306    0.8149 C.ar      1 <0>         0.1006
     19 C14         2.7001    7.5831    1.1059 C.ar      1 <0>        -0.1061
     20 C15         2.7799    8.4940    0.0656 C.ar      1 <0>        -0.1292
     21 C16         3.0156    8.0351   -1.2173 C.ar      1 <0>         0.0778
     22 N5          3.1643    6.7476   -1.4597 N.ar      1 <0>        -0.4437
     23 C17         3.1015    5.8480   -0.4983 C.ar      1 <0>         0.0406
     24 H1          0.5191    1.4072   -0.7769 H         1 <0>         0.1297
     25 H2          2.1866    2.8996    0.2504 H         1 <0>         0.1176
     26 H3          5.2811    0.1487   -0.7719 H         1 <0>         0.1363
     27 H4          1.2322   -0.7117   -1.8078 H         1 <0>         0.1331
     28 H5          6.4120    1.6164   -0.8466 H         1 <0>         0.1078
     29 H6          6.3886    3.4329   -0.8789 H         1 <0>         0.0795
     30 H7          7.7527    1.9360    1.1800 H         1 <0>         0.0786
     31 H8          7.0257    3.5733    1.4835 H         1 <0>         0.0815
     32 H9          5.2607    2.2878    2.5966 H         1 <0>         0.0889
     33 H10         5.6174    0.8096    1.6022 H         1 <0>         0.0976
     34 H11         4.6693    4.6315    0.2155 H         1 <0>         0.4234
     35 H12         2.3374    5.4811    2.6638 H         1 <0>         0.4279
     36 H13         2.5167    7.9134    2.1177 H         1 <0>         0.1428
     37 H14         2.6590    9.5505    0.2542 H         1 <0>         0.1461
     38 H15         3.0783    8.7411   -2.0322 H         1 <0>         0.1645
     39 H16         3.2330    4.8025   -0.7350 H         1 <0>         0.1679
@<TRIPOS>BOND
     1    1    6 ar
     2    1    2 ar
     3    1   24 1
     4    2    3 ar
     5    2   25 1
     6    3    4 ar
     7    3    8 1
     8    4    5 ar
     9    4   26 1
    10    5    6 ar
    11    5    7 1
    12    6   27 1
    13    8   11 1
    14    8    9 1
    15    8   12 1
    16    9   10 1
    17    9   28 1
    18    9   29 1
    19   10   11 1
    20   10   30 1
    21   10   31 1
    22   11   32 1
    23   11   33 1
    24   12   13 1
    25   12   34 1
    26   13   14 2
    27   13   17 1
    28   14   15 1
    29   15   16 3
    30   17   18 1
    31   17   35 1
    32   18   23 ar
    33   18   19 ar
    34   19   20 ar
    35   19   36 1
    36   20   21 ar
    37   20   37 1
    38   21   22 ar
    39   21   38 1
    40   22   23 ar
    41   23   39 1
@<TRIPOS>MOLECULE
ZINC03946466
   38    40     0     0     0
SMALL
USER_CHARGES

@<TRIPOS>ATOM
      1 C1         -0.5995    3.1646   -1.4887 C.ar      1 <0>        -0.1096
      2 C2          0.6946    3.5408   -1.1799 C.ar      1 <0>        -0.0753
      3 C3          1.7479    2.6916   -1.4627 C.ar      1 <0>        -0.0350
      4 C4          1.5079    1.4657   -2.0549 C.ar      1 <0>        -0.1055
      5 C5          0.2134    1.0888   -2.3641 C.ar      1 <0>        -0.0359
      6 C6         -0.8407    1.9392   -2.0803 C.ar      1 <0>        -0.1200
      7 Cl1        -0.0887   -0.4502   -3.1083 Cl        1 <0>        -0.0868
      8 C7          3.1581    3.1023   -1.1258 C.3       1 <0>         0.2077
      9 C8          4.0775    3.2129   -2.3536 C.3       1 <0>        -0.1352
     10 C9          5.1764    2.5708   -1.4905 C.3       1 <0>        -0.1409
     11 C10         4.0462    1.9348   -0.6641 C.3       1 <0>        -0.1297
     12 N1          3.2150    4.2685   -0.2410 N.pl3     1 <0>        -0.7176
     13 C11         2.7105    4.1897    1.0265 C.2       1 <0>         0.6391
     14 N2          2.1345    3.0747    1.4402 N.2       1 <0>        -0.6063
     15 C12         1.7087    2.9673    2.7221 C.1       1 <0>         0.4269
     16 N3          1.3517    2.8773    3.7967 N.1       1 <0>        -0.5565
     17 N4          2.8016    5.2649    1.8668 N.2       1 <0>        -0.7104
     18 C13         3.7856    6.2365    1.6554 C.ar      1 <0>         0.1642
     19 C14         3.5772    7.5531    2.0597 C.ar      1 <0>        -0.1450
     20 C15         4.5810    8.4790    1.8285 C.ar      1 <0>        -0.1343
     21 C16         5.7476    8.0699    1.2092 C.ar      1 <0>        -0.0047
     22 N5          5.9140    6.8155    0.8384 N.ar      1 <0>        -0.4581
     23 C17         4.9868    5.9015    1.0445 C.ar      1 <0>        -0.0263
     24 H1         -1.4225    3.8266   -1.2633 H         1 <0>         0.1241
     25 H2          0.8827    4.4986   -0.7178 H         1 <0>         0.1235
     26 H3          2.3311    0.8026   -2.2765 H         1 <0>         0.1293
     27 H4         -1.8516    1.6455   -2.3215 H         1 <0>         0.1246
     28 H5          3.7625    2.5920   -3.1923 H         1 <0>         0.0922
     29 H6          4.2955    4.2404   -2.6447 H         1 <0>         0.0712
     30 H7          5.7857    1.8446   -2.0285 H         1 <0>         0.0670
     31 H8          5.7716    3.2937   -0.9326 H         1 <0>         0.0821
     32 H9          4.2389    1.9306    0.4087 H         1 <0>         0.0822
     33 H10         3.7226    0.9646   -1.0409 H         1 <0>         0.0853
     34 H11         3.6108    5.0966   -0.5548 H         1 <0>         0.4055
     35 H12         2.6556    7.8448    2.5411 H         1 <0>         0.1181
     36 H13         4.4538    9.5087    2.1283 H         1 <0>         0.1153
     37 H14         6.5334    8.7879    1.0263 H         1 <0>         0.1339
     38 H15         5.1612    4.8828    0.7310 H         1 <0>         0.1409
@<TRIPOS>BOND
     1    1    6 ar
     2    1    2 ar
     3    1   24 1
     4    2    3 ar
     5    2   25 1
     6    3    4 ar
     7    3    8 1
     8    4    5 ar
     9    4   26 1
    10    5    6 ar
    11    5    7 1
    12    6   27 1
    13    8   11 1
    14    8    9 1
    15    8   12 1
    16    9   10 1
    17    9   28 1
    18    9   29 1
    19   10   11 1
    20   10   30 1
    21   10   31 1
    22   11   32 1
    23   11   33 1
    24   12   13 1
    25   12   34 1
    26   13   14 2
    27   13   17 1
    28   14   15 1
    29   15   16 3
    30   17   18 1
    31   18   23 ar
    32   18   19 ar
    33   19   20 ar
    34   19   35 1
    35   20   21 ar
    36   20   36 1
    37   21   22 ar
    38   21   37 1
    39   22   23 ar
    40   23   38 1
@<TRIPOS>MOLECULE
ZINC03946466
   39    41     0     0     0
SMALL
USER_CHARGES

@<TRIPOS>ATOM
      1 C1         -0.9294    1.6907    1.3446 C.ar      1 <0>        -0.0997
      2 C2          0.2272    2.2777    0.8658 C.ar      1 <0>        -0.1017
      3 C3          1.2654    1.4882    0.4084 C.ar      1 <0>        -0.0942
      4 C4          1.1477    0.1110    0.4290 C.ar      1 <0>        -0.0999
      5 C5         -0.0092   -0.4769    0.9079 C.ar      1 <0>        -0.0312
      6 C6         -1.0481    0.3141    1.3661 C.ar      1 <0>        -0.1029
      7 Cl1        -0.1580   -2.2063    0.9336 Cl        1 <0>        -0.0606
      8 C7          2.5258    2.1288   -0.1133 C.3       1 <0>         0.1700
      9 C8          2.8085    1.8172   -1.5924 C.3       1 <0>        -0.1234
     10 C9          4.2894    1.6846   -1.2000 C.3       1 <0>        -0.1347
     11 C10         3.8017    1.3361    0.2162 C.3       1 <0>        -0.1554
     12 N1          2.6183    3.5533    0.2163 N.pl3     1 <0>        -0.7189
     13 C11         2.7380    3.9484    1.5251 C.2       1 <0>         0.6572
     14 N2          2.7955    3.0051    2.5266 N.pl3     1 <0>        -0.5838
     15 C12         3.0170    3.3890    3.8070 C.1       1 <0>         0.4277
     16 N3          3.2028    3.7109    4.8805 N.1       1 <0>        -0.3835
     17 N4          2.7977    5.2249    1.8221 N.2       1 <0>        -0.5963
     18 C13         2.8678    6.1584    0.8217 C.ar      1 <0>         0.0919
     19 C14         1.9231    7.1887    0.7419 C.ar      1 <0>        -0.0887
     20 C15         2.0385    8.1058   -0.2875 C.ar      1 <0>        -0.1458
     21 C16         3.0734    7.9771   -1.1965 C.ar      1 <0>         0.0712
     22 N5          3.9494    6.9961   -1.0969 N.ar      1 <0>        -0.4626
     23 C17         3.8857    6.1019   -0.1319 C.ar      1 <0>         0.0431
     24 H1         -1.7385    2.3080    1.7060 H         1 <0>         0.1353
     25 H2          0.3194    3.3537    0.8488 H         1 <0>         0.1270
     26 H3          1.9587   -0.5058    0.0710 H         1 <0>         0.1402
     27 H4         -1.9516   -0.1444    1.7400 H         1 <0>         0.1370
     28 H5          2.3622    0.8836   -1.9349 H         1 <0>         0.1041
     29 H6          2.6073    2.6541   -2.2611 H         1 <0>         0.0807
     30 H7          4.8017    0.8625   -1.6999 H         1 <0>         0.0812
     31 H8          4.8410    2.6232   -1.2532 H         1 <0>         0.0875
     32 H9          4.4022    1.7847    1.0076 H         1 <0>         0.0808
     33 H10         3.6269    0.2710    0.3681 H         1 <0>         0.1044
     34 H11         2.5950    4.2172   -0.4906 H         1 <0>         0.4250
     35 H12         1.1246    7.2654    1.4651 H         1 <0>         0.1360
     36 H13         1.3277    8.9136   -0.3807 H         1 <0>         0.1376
     37 H14         3.1654    8.6915   -2.0012 H         1 <0>         0.1560
     38 H15         4.6245    5.3158   -0.0806 H         1 <0>         0.1499
     39 H16         2.6774    2.0657    2.3154 H         1 <0>         0.4394
@<TRIPOS>BOND
     1    1    6 ar
     2    1    2 ar
     3    1   24 1
     4    2    3 ar
     5    2   25 1
     6    3    4 ar
     7    3    8 1
     8    4    5 ar
     9    4   26 1
    10    5    6 ar
    11    5    7 1
    12    6   27 1
    13    8   11 1
    14    8    9 1
    15    8   12 1
    16    9   10 1
    17    9   28 1
    18    9   29 1
    19   10   11 1
    20   10   30 1
    21   10   31 1
    22   11   32 1
    23   11   33 1
    24   12   13 1
    25   12   34 1
    26   13   14 1
    27   13   17 2
    28   14   15 1
    29   14   39 1
    30   15   16 3
    31   17   18 1
    32   18   23 ar
    33   18   19 ar
    34   19   20 ar
    35   19   35 1
    36   20   21 ar
    37   20   36 1
    38   21   22 ar
    39   21   37 1
    40   22   23 ar
    41   23   38 1
