@<TRIPOS>MOLECULE
ZINC00341556
   34    36     0     0     0
SMALL
USER_CHARGES
5-benzylidene-1-phenyl-hexahydropyrimidine-2,4,6-trione
@<TRIPOS>ATOM
      1 C1          0.4861   -4.1301   -2.6821 C.ar      1 <0>        -0.0821
      2 C2         -0.7895   -3.9678   -2.1686 C.ar      1 <0>        -0.1359
      3 C3         -1.1542   -2.7752   -1.5824 C.ar      1 <0>        -0.0716
      4 C4         -0.2297   -1.7247   -1.5074 C.ar      1 <0>        -0.1251
      5 C5          1.0572   -1.8960   -2.0349 C.ar      1 <0>        -0.0242
      6 C6          1.4062   -3.0976   -2.6124 C.ar      1 <0>        -0.1319
      7 C7         -0.6086   -0.4520   -0.8861 C.2       1 <0>         0.1383
      8 C8          0.2749    0.1966   -0.0490 C.2       1 <0>        -0.2887
      9 C9          0.0526    1.5950    0.3739 C.2       1 <0>         0.5729
     10 O1         -0.9189    2.2174   -0.0106 O.2       1 <0>        -0.4809
     11 N1          0.9604    2.1637    1.1939 N.am      1 <0>        -0.6614
     12 C10         2.0384    1.4914    1.6205 C.2       1 <0>         0.7106
     13 O2          2.8172    2.0630    2.3579 O.2       1 <0>        -0.5112
     14 N2          2.3042    0.2230    1.2791 N.am      1 <0>        -0.5170
     15 C11         1.4861   -0.4752    0.4648 C.2       1 <0>         0.5615
     16 O3          1.7389   -1.6257    0.1618 O.2       1 <0>        -0.4533
     17 C12         3.4595   -0.3925    1.7795 C.ar      1 <0>         0.1230
     18 C13         3.3836   -1.2068    2.9015 C.ar      1 <0>        -0.0914
     19 C14         4.5229   -1.8169    3.3886 C.ar      1 <0>        -0.1095
     20 C15         5.7404   -1.6080    2.7671 C.ar      1 <0>        -0.1015
     21 C16         5.8202   -0.7926    1.6531 C.ar      1 <0>        -0.1097
     22 C17         4.6833   -0.1846    1.1577 C.ar      1 <0>        -0.0914
     23 H1          0.7651   -5.0675   -3.1401 H         1 <0>         0.1265
     24 H2         -1.5006   -4.7785   -2.2274 H         1 <0>         0.1291
     25 H3         -2.1496   -2.6503   -1.1824 H         1 <0>         0.1301
     26 H4          1.7747   -1.0904   -1.9851 H         1 <0>         0.1179
     27 H5          2.3990   -3.2332   -3.0152 H         1 <0>         0.1271
     28 H6         -1.5795   -0.0223   -1.0840 H         1 <0>         0.1640
     29 H7          0.8301    3.0811    1.4810 H         1 <0>         0.4387
     30 H8          2.4338   -1.3665    3.3901 H         1 <0>         0.1252
     31 H9          4.4637   -2.4540    4.2587 H         1 <0>         0.1328
     32 H10         6.6306   -2.0829    3.1523 H         1 <0>         0.1310
     33 H11         6.7725   -0.6313    1.1698 H         1 <0>         0.1330
     34 H12         4.7462    0.4516    0.2872 H         1 <0>         0.1254
@<TRIPOS>BOND
     1    1    6 ar
     2    1    2 ar
     3    1   23 1
     4    2    3 ar
     5    2   24 1
     6    3    4 ar
     7    3   25 1
     8    4    5 ar
     9    4    7 1
    10    5    6 ar
    11    5   26 1
    12    6   27 1
    13    7    8 2
    14    7   28 1
    15    8   15 1
    16    8    9 1
    17    9   10 2
    18    9   11 am
    19   11   12 am
    20   11   29 1
    21   12   13 2
    22   12   14 am
    23   14   15 am
    24   14   17 1
    25   15   16 2
    26   17   22 ar
    27   17   18 ar
    28   18   19 ar
    29   18   30 1
    30   19   20 ar
    31   19   31 1
    32   20   21 ar
    33   20   32 1
    34   21   22 ar
    35   21   33 1
    36   22   34 1
@<TRIPOS>MOLECULE
ZINC05774261
   37    39     0     0     0
SMALL
USER_CHARGES
1-phenyl-5-[[4-(trifluoromethyl)phenyl]methylene]hexahydropyrimidine-2,4,6-trione
@<TRIPOS>ATOM
      1 C1         -8.4900    3.0197    0.1008 C.ar      1 <0>        -0.1000
      2 C2         -8.2650    4.3069    0.5530 C.ar      1 <0>        -0.1090
      3 C3         -7.4933    4.5199    1.6785 C.ar      1 <0>        -0.0908
      4 C4         -6.9433    3.4400    2.3560 C.ar      1 <0>         0.1207
      5 C5         -7.1663    2.1490    1.8962 C.ar      1 <0>        -0.0913
      6 C6         -7.9436    1.9421    0.7734 C.ar      1 <0>        -0.1093
      7 N1         -6.1599    3.6529    3.4983 N.am      1 <0>        -0.5159
      8 C7         -4.8310    3.8394    3.3601 C.2       1 <0>         0.5602
      9 O1         -4.3086    3.8247    2.2619 O.2       1 <0>        -0.4527
     10 C8         -4.0271    4.0567    4.5804 C.2       1 <0>        -0.2697
     11 C9         -2.6630    4.2502    4.5195 C.2       1 <0>         0.1235
     12 C10        -1.9423    4.0002    3.2676 C.ar      1 <0>        -0.0820
     13 C11        -2.1828    2.8283    2.5378 C.ar      1 <0>        -0.0365
     14 C12        -1.5004    2.6014    1.3623 C.ar      1 <0>        -0.0772
     15 C13        -0.5790    3.5269    0.9021 C.ar      1 <0>        -0.1538
     16 C14        -0.3308    4.6849    1.6195 C.ar      1 <0>        -0.0804
     17 C15        -1.0084    4.9314    2.7939 C.ar      1 <0>        -0.0776
     18 C16         0.1626    3.2694   -0.3843 C.3       1 <0>         0.5062
     19 F1         -0.5615    3.8044   -1.4551 F         1 <0>        -0.1730
     20 F2          0.3148    1.8907   -0.5669 F         1 <0>        -0.1749
     21 F3          1.4228    3.8739   -0.3251 F         1 <0>        -0.1749
     22 C17        -4.7512    4.0636    5.8685 C.2       1 <0>         0.5722
     23 O2         -4.1603    4.2404    6.9167 O.2       1 <0>        -0.4761
     24 N2         -6.0858    3.8679    5.8494 N.am      1 <0>        -0.6605
     25 C18        -6.7494    3.6719    4.7017 C.2       1 <0>         0.7100
     26 O3         -7.9517    3.5025    4.7551 O.2       1 <0>        -0.5074
     27 H1         -9.0941    2.8556   -0.7793 H         1 <0>         0.1315
     28 H2         -8.6933    5.1465    0.0258 H         1 <0>         0.1333
     29 H3         -7.3181    5.5254    2.0315 H         1 <0>         0.1254
     30 H4         -6.7359    1.3073    2.4183 H         1 <0>         0.1257
     31 H5         -8.1209    0.9379    0.4176 H         1 <0>         0.1335
     32 H6         -2.1257    4.5860    5.3942 H         1 <0>         0.1712
     33 H7         -2.9011    2.1053    2.8953 H         1 <0>         0.1312
     34 H8         -1.6844    1.6988    0.7985 H         1 <0>         0.1413
     35 H9          0.3928    5.3992    1.2552 H         1 <0>         0.1434
     36 H10        -0.8167    5.8372    3.3499 H         1 <0>         0.1438
     37 H11        -6.5767    3.8693    6.6860 H         1 <0>         0.4401
@<TRIPOS>BOND
     1    1    6 ar
     2    1    2 ar
     3    1   27 1
     4    2    3 ar
     5    2   28 1
     6    3    4 ar
     7    3   29 1
     8    4    5 ar
     9    4    7 1
    10    5    6 ar
    11    5   30 1
    12    6   31 1
    13    7   25 am
    14    7    8 am
    15    8    9 2
    16    8   10 1
    17   10   11 2
    18   10   22 1
    19   11   12 1
    20   11   32 1
    21   12   17 ar
    22   12   13 ar
    23   13   14 ar
    24   13   33 1
    25   14   15 ar
    26   14   34 1
    27   15   16 ar
    28   15   18 1
    29   16   17 ar
    30   16   35 1
    31   17   36 1
    32   18   19 1
    33   18   20 1
    34   18   21 1
    35   22   23 2
    36   22   24 am
    37   24   25 am
    38   24   37 1
    39   25   26 2
@<TRIPOS>MOLECULE
ZINC29126828
   37    40     0     0     0
SMALL
USER_CHARGES
(5Z)-5-(1H-indol-2-ylmethylene)-1-phenyl-hexahydropyrimidine-2,4,6-trione
@<TRIPOS>ATOM
      1 C1         -0.9399   -5.2480    0.2131 C.ar      1 <0>        -0.1277
      2 C2          0.0807   -5.3081   -0.7180 C.ar      1 <0>        -0.1136
      3 C3          1.0643   -4.3385   -0.7301 C.ar      1 <0>        -0.0925
      4 C4          1.0276   -3.3028    0.1938 C.ar      1 <0>         0.1485
      5 C5          0.0047   -3.2483    1.1311 C.ar      1 <0>        -0.1073
      6 C6         -0.9792   -4.2177    1.1345 C.ar      1 <0>        -0.1145
      7 N1          2.0241   -2.3176    0.1840 N.am      1 <0>        -0.5391
      8 C7          1.6687   -1.0223    0.0591 C.2       1 <0>         0.5569
      9 O1          0.4995   -0.7023   -0.0448 O.2       1 <0>        -0.5211
     10 C8          2.7358   -0.0047    0.0516 C.2       1 <0>        -0.2972
     11 C9          2.4473    1.3461   -0.0736 C.2       1 <0>         0.0765
     12 C10         1.2204    1.8519    0.4023 C.2       1 <0>         0.0693
     13 C11         0.6985    3.0955    0.1144 C.2       1 <0>        -0.1481
     14 C12        -0.5393    3.2030    0.7859 C.ar      1 <0>        -0.1217
     15 C13        -1.5036    4.2191    0.8648 C.ar      1 <0>        -0.0662
     16 C14        -2.6288    4.0298    1.6119 C.ar      1 <0>        -0.1568
     17 C15        -2.8307    2.8380    2.2978 C.ar      1 <0>        -0.0987
     18 C16        -1.8993    1.8256    2.2370 C.ar      1 <0>        -0.1290
     19 C17        -0.7447    1.9911    1.4769 C.ar      1 <0>         0.1260
     20 N2          0.3412    1.1821    1.2349 N.pl3     1 <0>        -0.5530
     21 H1          0.5799    0.1667    1.5842 H         1 <0>         0.4432
     22 C18         4.1240   -0.4871    0.1767 C.2       1 <0>         0.5381
     23 O2          5.0588    0.2915    0.1736 O.3       1 <0>        -0.5564
     24 N3          4.3286   -1.8149    0.2988 N.2       1 <0>        -0.6977
     25 C19         3.3083   -2.6841    0.2984 C.2       1 <0>         0.6589
     26 O3          3.5610   -3.8679    0.4073 O.2       1 <0>        -0.5734
     27 H2         -1.7081   -6.0071    0.2204 H         1 <0>         0.1204
     28 H3          0.1085   -6.1138   -1.4366 H         1 <0>         0.1238
     29 H4          1.8610   -4.3858   -1.4577 H         1 <0>         0.1245
     30 H5         -0.0240   -2.4463    1.8538 H         1 <0>         0.1145
     31 H6         -1.7775   -4.1734    1.8605 H         1 <0>         0.1221
     32 H7          3.1758    2.0228   -0.5442 H         1 <0>         0.1659
     33 H8          1.1532    3.8494   -0.5111 H         1 <0>         0.1487
     34 H9         -1.3555    5.1485    0.3350 H         1 <0>         0.1198
     35 H10        -3.3699    4.8132    1.6709 H         1 <0>         0.1182
     36 H11        -3.7274    2.7046    2.8849 H         1 <0>         0.1213
     37 H12        -2.0661    0.9037    2.7742 H         1 <0>         0.1173
@<TRIPOS>BOND
     1    1    6 ar
     2    1    2 ar
     3    1   27 1
     4    2    3 ar
     5    2   28 1
     6    3    4 ar
     7    3   29 1
     8    4    5 ar
     9    4    7 1
    10    5    6 ar
    11    5   30 1
    12    6   31 1
    13    7   25 am
    14    7    8 am
    15    8    9 2
    16    8   10 1
    17   10   11 2
    18   10   22 1
    19   11   12 1
    20   11   32 1
    21   12   20 1
    22   12   13 2
    23   13   14 1
    24   13   33 1
    25   14   19 ar
    26   14   15 ar
    27   15   16 ar
    28   15   34 1
    29   16   17 ar
    30   16   35 1
    31   17   18 ar
    32   17   36 1
    33   18   19 ar
    34   18   37 1
    35   19   20 1
    36   20   21 1
    37   22   23 1
    38   22   24 2
    39   24   25 1
    40   25   26 2
@<TRIPOS>MOLECULE
ZINC13576034
   40    43     0     0     0
SMALL
USER_CHARGES

@<TRIPOS>ATOM
      1 C1         -3.3798    0.6520   -0.2226 C.3       1 <0>         0.0748
      2 N1         -2.4015   -0.4384   -0.2066 N.pl3     1 <0>        -0.4677
      3 C2         -2.1879   -1.2869   -1.2270 C.2       1 <0>         0.1817
      4 C3         -1.1978   -2.1919   -0.8777 C.2       1 <0>        -0.2159
      5 C4         -0.7855   -1.8365    0.4959 C.ar      1 <0>        -0.0609
      6 C5         -1.5696   -0.7300    0.8568 C.ar      1 <0>         0.0766
      7 C6         -1.4018   -0.1579    2.1134 C.ar      1 <0>        -0.1202
      8 C7         -0.4701   -0.6766    2.9870 C.ar      1 <0>        -0.1146
      9 C8          0.3059   -1.7675    2.6264 C.ar      1 <0>        -0.1385
     10 C9          0.1471   -2.3540    1.3884 C.ar      1 <0>        -0.0805
     11 C10        -0.6888   -3.2376   -1.6706 C.2       1 <0>         0.1188
     12 C11        -0.4336   -3.0253   -3.0230 C.2       1 <0>        -0.2799
     13 C12        -0.1215   -4.1382   -3.9285 C.2       1 <0>         0.5009
     14 O1         -0.0736   -5.4075   -3.4712 O.3       1 <0>        -0.6420
     15 N2          0.1112   -3.8689   -5.2031 N.2       1 <0>        -0.6670
     16 C13         0.0703   -2.6285   -5.6811 C.2       1 <0>         0.6680
     17 O2          0.2960   -2.4600   -6.8665 O.2       1 <0>        -0.5698
     18 N3         -0.2064   -1.5532   -4.9289 N.am      1 <0>        -0.5525
     19 C14        -0.4708   -1.6744   -3.6103 C.2       1 <0>         0.5682
     20 O3         -0.7271   -0.6993   -2.9284 O.2       1 <0>        -0.5221
     21 C15        -0.2267   -0.2840   -5.5221 C.ar      1 <0>         0.1596
     22 C16         0.8943    0.5326   -5.4565 C.ar      1 <0>        -0.1031
     23 C17         0.8714    1.7830   -6.0426 C.ar      1 <0>        -0.1140
     24 C18        -0.2665    2.2220   -6.6942 C.ar      1 <0>        -0.1249
     25 C19        -1.3847    1.4112   -6.7609 C.ar      1 <0>        -0.1149
     26 C20        -1.3660    0.1575   -6.1817 C.ar      1 <0>        -0.1027
     27 H1         -2.9100    1.5560   -0.6101 H         1 <0>         0.0734
     28 H2         -4.2199    0.3771   -0.8603 H         1 <0>         0.0845
     29 H3         -3.7373    0.8342    0.7909 H         1 <0>         0.0811
     30 H4         -2.7081   -1.2669   -2.1733 H         1 <0>         0.1713
     31 H5         -2.0007    0.6924    2.4043 H         1 <0>         0.1153
     32 H6         -0.3431   -0.2287    3.9615 H         1 <0>         0.1218
     33 H7          1.0324   -2.1638    3.3203 H         1 <0>         0.1217
     34 H8          0.7534   -3.2027    1.1083 H         1 <0>         0.1246
     35 H9         -0.4961   -4.2047   -1.2300 H         1 <0>         0.1442
     36 H10         1.7832    0.1905   -4.9474 H         1 <0>         0.1191
     37 H11         1.7429    2.4188   -5.9916 H         1 <0>         0.1226
     38 H12        -0.2821    3.2001   -7.1518 H         1 <0>         0.1204
     39 H13        -2.2722    1.7570   -7.2699 H         1 <0>         0.1227
     40 H14        -2.2380   -0.4772   -6.2382 H         1 <0>         0.1196
@<TRIPOS>BOND
     1    1    2 1
     2    1   27 1
     3    1   28 1
     4    1   29 1
     5    2    6 1
     6    2    3 1
     7    3    4 2
     8    3   30 1
     9    4    5 1
    10    4   11 1
    11    5   10 ar
    12    5    6 ar
    13    6    7 ar
    14    7    8 ar
    15    7   31 1
    16    8    9 ar
    17    8   32 1
    18    9   10 ar
    19    9   33 1
    20   10   34 1
    21   11   12 2
    22   11   35 1
    23   12   19 1
    24   12   13 1
    25   13   14 1
    26   13   15 2
    27   15   16 1
    28   16   17 2
    29   16   18 am
    30   18   19 am
    31   18   21 1
    32   19   20 2
    33   21   26 ar
    34   21   22 ar
    35   22   23 ar
    36   22   36 1
    37   23   24 ar
    38   23   37 1
    39   24   25 ar
    40   24   38 1
    41   25   26 ar
    42   25   39 1
    43   26   40 1
@<TRIPOS>MOLECULE
ZINC19798714
   30    32     0     0     0
SMALL
USER_CHARGES
(5Z)-5-(2-furylmethylene)-1-phenyl-hexahydropyrimidine-2,4,6-trione
@<TRIPOS>ATOM
      1 C1         -1.1924    1.7302   -0.5457 C.ar      1 <0>        -0.1247
      2 C2         -0.7499    2.1390    0.6989 C.ar      1 <0>        -0.1146
      3 C3          0.4280    2.8510    0.8150 C.ar      1 <0>        -0.1020
      4 C4          1.1651    3.1606   -0.3200 C.ar      1 <0>         0.1604
      5 C5          0.7155    2.7533   -1.5689 C.ar      1 <0>        -0.1031
      6 C6         -0.4631    2.0416   -1.6786 C.ar      1 <0>        -0.1146
      7 N1          2.3608    3.8825   -0.2054 N.am      1 <0>        -0.5503
      8 C7          2.3266    5.2293   -0.2726 C.2       1 <0>         0.5576
      9 O1          1.2747    5.8204   -0.4303 O.2       1 <0>        -0.5037
     10 C8          3.5961    5.9654   -0.1453 C.2       1 <0>        -0.2404
     11 C9          3.6381    7.3541   -0.2003 C.2       1 <0>         0.0431
     12 C10         2.4445    8.0937   -0.1872 C.2       1 <0>        -0.0001
     13 C11         2.1957    9.2583   -0.8979 C.2       1 <0>        -0.1731
     14 C12         0.8880    9.6430   -0.5842 C.2       1 <0>        -0.2291
     15 C13         0.3958    8.7260    0.2833 C.2       1 <0>        -0.0171
     16 O2          1.3300    7.7957    0.5153 O.3       1 <0>        -0.1237
     17 C14         4.8201    5.1659    0.0371 C.2       1 <0>         0.5334
     18 O3          5.9067    5.7027    0.1455 O.3       1 <0>        -0.5582
     19 N2          4.7037    3.8227    0.0811 N.2       1 <0>        -0.7002
     20 C15         3.5130    3.2185   -0.0370 C.2       1 <0>         0.6636
     21 O4          3.4762    2.0046    0.0106 O.2       1 <0>        -0.5756
     22 H1         -2.1114    1.1697   -0.6336 H         1 <0>         0.1206
     23 H2         -1.3235    1.8976    1.5815 H         1 <0>         0.1229
     24 H3          0.7750    3.1668    1.7878 H         1 <0>         0.1193
     25 H4          1.2869    2.9924   -2.4535 H         1 <0>         0.1189
     26 H5         -0.8134    1.7244   -2.6497 H         1 <0>         0.1228
     27 H6          4.6063    7.8734   -0.2541 H         1 <0>         0.1732
     28 H7          2.8776    9.7681   -1.5625 H         1 <0>         0.1512
     29 H8          0.3673   10.5100   -0.9632 H         1 <0>         0.1464
     30 H9         -0.5938    8.7410    0.7156 H         1 <0>         0.1972
@<TRIPOS>BOND
     1    1    6 ar
     2    1    2 ar
     3    1   22 1
     4    2    3 ar
     5    2   23 1
     6    3    4 ar
     7    3   24 1
     8    4    5 ar
     9    4    7 1
    10    5    6 ar
    11    5   25 1
    12    6   26 1
    13    7   20 am
    14    7    8 am
    15    8    9 2
    16    8   10 1
    17   10   11 2
    18   10   17 1
    19   11   12 1
    20   11   27 1
    21   12   16 1
    22   12   13 2
    23   13   14 1
    24   13   28 1
    25   14   15 2
    26   14   29 1
    27   15   16 1
    28   15   30 1
    29   17   18 1
    30   17   19 2
    31   19   20 1
    32   20   21 2
@<TRIPOS>MOLECULE
ZINC29127489
   46    50     0     0     0
SMALL
USER_CHARGES
(5Z)-5-[(1-methylindol-3-yl)methylene]-1-(1-naphthyl)hexahydropyrimidine-2,4,6-trione
@<TRIPOS>ATOM
      1 C1         -3.0577    4.4481   -1.9510 C.3       1 <0>         0.0731
      2 N1         -2.5632    3.3385   -1.1321 N.pl3     1 <0>        -0.4680
      3 C2         -1.2986    2.8801   -1.1501 C.2       1 <0>         0.1717
      4 C3         -1.1753    1.8261   -0.2610 C.2       1 <0>        -0.2068
      5 C4         -2.5072    1.6511    0.3535 C.ar      1 <0>        -0.0622
      6 C5         -3.3304    2.6253   -0.2320 C.ar      1 <0>         0.0781
      7 C6         -4.6645    2.7095    0.1521 C.ar      1 <0>        -0.1203
      8 C7         -5.1643    1.8409    1.0987 C.ar      1 <0>        -0.1149
      9 C8         -4.3487    0.8796    1.6760 C.ar      1 <0>        -0.1400
     10 C9         -3.0236    0.7809    1.3079 C.ar      1 <0>        -0.0803
     11 C10        -0.0126    1.0758    0.0080 C.2       1 <0>         0.0967
     12 C11         1.2013    1.7218    0.2010 C.2       1 <0>        -0.2915
     13 C12         2.4673    0.9719    0.2797 C.2       1 <0>         0.5362
     14 O1          2.4827   -0.2404    0.1770 O.3       1 <0>        -0.5647
     15 N2          3.6087    1.6657    0.4683 N.2       1 <0>        -0.7048
     16 C13         3.6059    3.0013    0.5821 C.2       1 <0>         0.6621
     17 O2          4.6684    3.5668    0.7508 O.2       1 <0>        -0.5800
     18 N3          2.4931    3.7460    0.5203 N.am      1 <0>        -0.5498
     19 C14         1.2803    3.1870    0.3299 C.2       1 <0>         0.5669
     20 O3          0.2779    3.8743    0.2707 O.2       1 <0>        -0.5224
     21 C15         2.5925    5.1349    0.6502 C.ar      1 <0>         0.1815
     22 C16         2.7803    5.9254   -0.4625 C.ar      1 <0>        -0.1113
     23 C17         2.8747    7.3090   -0.3450 C.ar      1 <0>        -0.1017
     24 C18         2.7956    7.9181    0.8702 C.ar      1 <0>        -0.1164
     25 C19         2.6101    7.1474    2.0303 C.ar      1 <0>        -0.0434
     26 C20         2.5069    5.7385    1.9224 C.ar      1 <0>        -0.0380
     27 C21         2.3222    4.9699    3.0825 C.ar      1 <0>        -0.0817
     28 C22         2.2445    5.5862    4.2940 C.ar      1 <0>        -0.1252
     29 C23         2.3458    6.9719    4.4013 C.ar      1 <0>        -0.1144
     30 C24         2.5252    7.7486    3.2982 C.ar      1 <0>        -0.1136
     31 H1         -2.2400    4.8345   -2.5771 H         1 <0>         0.0894
     32 H2         -3.4285    5.2503   -1.2960 H         1 <0>         0.0754
     33 H3         -3.8758    4.0926   -2.5946 H         1 <0>         0.0742
     34 H4         -0.5025    3.2724   -1.7655 H         1 <0>         0.1687
     35 H5         -5.3085    3.4545   -0.2912 H         1 <0>         0.1148
     36 H6         -6.2009    1.9101    1.3938 H         1 <0>         0.1212
     37 H7         -4.7530    0.2054    2.4165 H         1 <0>         0.1209
     38 H8         -2.3898    0.0310    1.7579 H         1 <0>         0.1232
     39 H9         -0.0669   -0.0214    0.0650 H         1 <0>         0.1433
     40 H10         2.8508    5.4665   -1.4376 H         1 <0>         0.1207
     41 H11         3.0174    7.9089   -1.2316 H         1 <0>         0.1240
     42 H12         2.8758    8.9928    0.9423 H         1 <0>         0.1254
     43 H13         2.2424    3.8950    3.0143 H         1 <0>         0.1186
     44 H14         2.1027    4.9925    5.1849 H         1 <0>         0.1205
     45 H15         2.2805    7.4364    5.3741 H         1 <0>         0.1200
     46 H16         2.6024    8.8214    3.3965 H         1 <0>         0.1249
@<TRIPOS>BOND
     1    1    2 1
     2    1   31 1
     3    1   32 1
     4    1   33 1
     5    2    6 1
     6    2    3 1
     7    3    4 2
     8    3   34 1
     9    4    5 1
    10    4   11 1
    11    5   10 ar
    12    5    6 ar
    13    6    7 ar
    14    7    8 ar
    15    7   35 1
    16    8    9 ar
    17    8   36 1
    18    9   10 ar
    19    9   37 1
    20   10   38 1
    21   11   12 2
    22   11   39 1
    23   12   19 1
    24   12   13 1
    25   13   14 1
    26   13   15 2
    27   15   16 1
    28   16   17 2
    29   16   18 am
    30   18   19 am
    31   18   21 1
    32   19   20 2
    33   21   26 ar
    34   21   22 ar
    35   22   23 ar
    36   22   40 1
    37   23   24 ar
    38   23   41 1
    39   24   25 ar
    40   24   42 1
    41   25   30 ar
    42   25   26 ar
    43   26   27 ar
    44   27   28 ar
    45   27   43 1
    46   28   29 ar
    47   28   44 1
    48   29   30 ar
    49   29   45 1
    50   30   46 1
@<TRIPOS>MOLECULE
ZINC13704662
   57    58     0     0     0
SMALL
USER_CHARGES
(2S)-2-(tert-butoxycarbonylamino)-3-[4-[2-(2-hydroxyethyl)-5-methoxy-3-oxo-pyridazin-4-yl]phenyl]propanoic acid
@<TRIPOS>ATOM
      1 C1          5.1590   11.7380    0.7399 C.3       1 <0>        -0.1825
      2 C2          4.0662   10.8708    0.1117 C.3       1 <0>         0.1372
      3 C3          3.2904   11.6945   -0.9181 C.3       1 <0>        -0.1374
      4 C4          3.1093   10.3864    1.2029 C.3       1 <0>        -0.1812
      5 O1          4.6736    9.7257   -0.5427 O.3       1 <0>        -0.3706
      6 C5          5.3970    8.8931    0.2294 C.2       1 <0>         0.6576
      7 O2          5.5176    9.1172    1.4175 O.2       1 <0>        -0.5715
      8 N1          5.9875    7.8111   -0.3156 N.am      1 <0>        -0.6793
      9 C6          6.7747    6.9051    0.5245 C.3       1 <0>         0.1275
     10 H1          6.3217    6.8414    1.5138 H         1 <0>         0.0929
     11 C7          6.8044    5.5148   -0.1134 C.3       1 <0>        -0.0768
     12 C8          5.4122    4.9380   -0.1261 C.ar      1 <0>        -0.0555
     13 C9          4.5825    5.1647   -1.2096 C.ar      1 <0>        -0.1159
     14 C10         3.3069    4.6389   -1.2273 C.ar      1 <0>        -0.0841
     15 C11         2.8546    3.8776   -0.1497 C.ar      1 <0>        -0.0478
     16 C12         3.6940    3.6570    0.9422 C.ar      1 <0>        -0.0821
     17 C13         4.9693    4.1837    0.9457 C.ar      1 <0>        -0.1150
     18 C14         1.4863    3.3108   -0.1621 C.2       1 <0>        -0.1110
     19 C15         1.2902    1.9341   -0.2215 C.2       1 <0>         0.1308
     20 C16        -0.0208    1.4247   -0.2314 C.2       1 <0>         0.0474
     21 N2         -1.0464    2.2299   -0.1910 N.2       1 <0>        -0.1836
     22 N3         -0.8788    3.6165   -0.1255 N.am      1 <0>        -0.4088
     23 C17         0.3552    4.1586   -0.1134 C.2       1 <0>         0.5129
     24 O3          0.4953    5.3699   -0.0612 O.2       1 <0>        -0.5164
     25 C18        -2.0551    4.4883   -0.0753 C.3       1 <0>         0.1262
     26 C19        -2.4786    4.8559   -1.4988 C.3       1 <0>         0.0596
     27 O4         -2.9090    3.6795   -2.1865 O.3       1 <0>        -0.5642
     28 O5          2.3510    1.0934   -0.2696 O.3       1 <0>        -0.3149
     29 C20         2.5213    0.3317   -1.4666 C.3       1 <0>         0.0343
     30 C21         8.1815    7.4308    0.6491 C.2       1 <0>         0.4585
     31 O6          8.4945    8.4569    0.0932 O.co2     1 <0>        -0.6242
     32 H2          5.8407   12.0832   -0.0374 H         1 <0>         0.0586
     33 H3          4.7030   12.5976    1.2312 H         1 <0>         0.0626
     34 H4          5.7117   11.1512    1.4736 H         1 <0>         0.0913
     35 H5          2.5119   11.0767   -1.3656 H         1 <0>         0.0628
     36 H6          2.8345   12.5541   -0.4268 H         1 <0>         0.0750
     37 H7          3.9721   12.0396   -1.6954 H         1 <0>         0.0644
     38 H8          3.6620    9.7995    1.9365 H         1 <0>         0.0888
     39 H9          2.6534   11.2459    1.6941 H         1 <0>         0.0635
     40 H10         2.3308    9.7685    0.7553 H         1 <0>         0.0567
     41 H11         5.8913    7.6322   -1.2641 H         1 <0>         0.3946
     42 H12         7.4619    4.8643    0.4634 H         1 <0>         0.1030
     43 H13         7.1751    5.5918   -1.1356 H         1 <0>         0.0749
     44 H14         4.9337    5.7547   -2.0432 H         1 <0>         0.1214
     45 H15         2.6602    4.8163   -2.0738 H         1 <0>         0.1138
     46 H16         3.3479    3.0717    1.7813 H         1 <0>         0.1187
     47 H17         5.6218    4.0098    1.7886 H         1 <0>         0.1288
     48 H18        -0.1799    0.3575   -0.2774 H         1 <0>         0.1948
     49 H19        -2.8723    3.9675    0.4239 H         1 <0>         0.1029
     50 H20        -1.8115    5.3958    0.4771 H         1 <0>         0.1162
     51 H21        -3.2975    5.5742   -1.4602 H         1 <0>         0.0662
     52 H22        -1.6332    5.2968   -2.0270 H         1 <0>         0.0526
     53 H23        -3.1927    3.8380   -3.0973 H         1 <0>         0.3787
     54 H24         2.5509    1.0040   -2.3241 H         1 <0>         0.0535
     55 H25         3.4550   -0.2280   -1.4114 H         1 <0>         0.1042
     56 H26         1.6879   -0.3620   -1.5774 H         1 <0>         0.0532
     57 O7          9.0869    6.7591    1.3777 O.co2     1 <0>        -0.7635
@<TRIPOS>BOND
     1    1    2 1
     2    1   32 1
     3    1   33 1
     4    1   34 1
     5    2    3 1
     6    2    4 1
     7    2    5 1
     8    3   35 1
     9    3   36 1
    10    3   37 1
    11    4   38 1
    12    4   39 1
    13    4   40 1
    14    5    6 1
    15    6    7 2
    16    6    8 am
    17    8    9 1
    18    8   41 1
    19    9   10 1
    20    9   11 1
    21    9   30 1
    22   11   12 1
    23   11   42 1
    24   11   43 1
    25   12   17 ar
    26   12   13 ar
    27   13   14 ar
    28   13   44 1
    29   14   15 ar
    30   14   45 1
    31   15   16 ar
    32   15   18 1
    33   16   17 ar
    34   16   46 1
    35   17   47 1
    36   18   23 1
    37   18   19 2
    38   19   20 1
    39   19   28 1
    40   20   21 2
    41   20   48 1
    42   21   22 1
    43   22   23 am
    44   22   25 1
    45   23   24 2
    46   25   26 1
    47   25   49 1
    48   25   50 1
    49   26   27 1
    50   26   51 1
    51   26   52 1
    52   27   53 1
    53   28   29 1
    54   29   54 1
    55   29   55 1
    56   29   56 1
    57   30   31 2
    58   30   57 1
@<TRIPOS>MOLECULE
ZINC17029224
   43    47     0     0     0
SMALL
USER_CHARGES

@<TRIPOS>ATOM
      1 C1          0.4115    3.8543   -0.1941 C.ar      1 <0>        -0.1143
      2 C2          1.7791    4.1215   -0.2030 C.ar      1 <0>        -0.1232
      3 C3          2.6905    3.1112   -0.1519 C.ar      1 <0>        -0.0840
      4 C4          2.2494    1.7800   -0.0888 C.ar      1 <0>        -0.0373
      5 C5          0.8591    1.5073   -0.0792 C.ar      1 <0>        -0.0436
      6 C6         -0.0523    2.5762   -0.1336 C.ar      1 <0>        -0.1125
      7 C7          0.4161    0.1755   -0.0145 C.ar      1 <0>        -0.1138
      8 C8          1.3215   -0.8402    0.0384 C.ar      1 <0>        -0.1024
      9 C9          2.6894   -0.5843    0.0301 C.ar      1 <0>        -0.1088
     10 C10         3.1643    0.7075   -0.0342 C.ar      1 <0>         0.1765
     11 N1          4.5407    0.9535   -0.0426 N.am      1 <0>        -0.5508
     12 C11         5.1924    1.1220    1.1279 C.2       1 <0>         0.5670
     13 O1          4.6016    1.0633    2.1905 O.2       1 <0>        -0.5179
     14 C12         6.6424    1.3787    1.0767 C.2       1 <0>        -0.2744
     15 C13         7.3898    1.5633    2.2372 C.2       1 <0>         0.1156
     16 C14         6.8079    1.3191    3.4954 C.2       1 <0>        -0.2120
     17 C15         6.0289    0.2310    3.8565 C.2       1 <0>         0.1753
     18 N2          5.6567    0.3518    5.1425 N.pl3     1 <0>        -0.5734
     19 H1          5.1065   -0.2893    5.6191 H         1 <0>         0.4161
     20 C16         6.1639    1.5125    5.6935 C.ar      1 <0>         0.0762
     21 C17         6.9088    2.1675    4.7008 C.ar      1 <0>        -0.0615
     22 C18         7.5439    3.3721    4.9833 C.ar      1 <0>        -0.0807
     23 C19         7.4413    3.9186    6.2453 C.ar      1 <0>        -0.1382
     24 C20         6.7094    3.2716    7.2290 C.ar      1 <0>        -0.1138
     25 C21         6.0681    2.0814    6.9591 C.ar      1 <0>        -0.1215
     26 C22         7.2644    1.4306   -0.2524 C.2       1 <0>         0.4999
     27 O2          8.5878    1.6606   -0.3867 O.3       1 <0>        -0.6403
     28 N3          6.4982    1.2465   -1.3156 N.2       1 <0>        -0.6651
     29 C23         5.1931    1.0127   -1.2129 C.2       1 <0>         0.6674
     30 O3          4.5546    0.8485   -2.2375 O.2       1 <0>        -0.5663
     31 H2         -0.2909    4.6739   -0.2312 H         1 <0>         0.1206
     32 H3          2.1211    5.1447   -0.2514 H         1 <0>         0.1212
     33 H4          3.7474    3.3329   -0.1602 H         1 <0>         0.1184
     34 H5         -1.1150    2.3842   -0.1271 H         1 <0>         0.1256
     35 H6         -0.6417   -0.0425   -0.0063 H         1 <0>         0.1263
     36 H7          0.9723   -1.8610    0.0880 H         1 <0>         0.1251
     37 H8          3.3868   -1.4078    0.0736 H         1 <0>         0.1217
     38 H9          8.4159    1.8939    2.1718 H         1 <0>         0.1448
     39 H10         5.7618   -0.5877    3.2048 H         1 <0>         0.1727
     40 H11         8.1150    3.8769    4.2182 H         1 <0>         0.1244
     41 H12         7.9332    4.8538    6.4682 H         1 <0>         0.1218
     42 H13         6.6353    3.7075    8.2144 H         1 <0>         0.1221
     43 H14         5.5017    1.5851    7.7331 H         1 <0>         0.1169
@<TRIPOS>BOND
     1    1    6 ar
     2    1    2 ar
     3    1   31 1
     4    2    3 ar
     5    2   32 1
     6    3    4 ar
     7    3   33 1
     8    4   10 ar
     9    4    5 ar
    10    5    6 ar
    11    5    7 ar
    12    6   34 1
    13    7    8 ar
    14    7   35 1
    15    8    9 ar
    16    8   36 1
    17    9   10 ar
    18    9   37 1
    19   10   11 1
    20   11   29 am
    21   11   12 am
    22   12   13 2
    23   12   14 1
    24   14   15 2
    25   14   26 1
    26   15   16 1
    27   15   38 1
    28   16   21 1
    29   16   17 2
    30   17   18 1
    31   17   39 1
    32   18   19 1
    33   18   20 1
    34   20   25 ar
    35   20   21 ar
    36   21   22 ar
    37   22   23 ar
    38   22   40 1
    39   23   24 ar
    40   23   41 1
    41   24   25 ar
    42   24   42 1
    43   25   43 1
    44   26   27 1
    45   26   28 2
    46   28   29 1
    47   29   30 2
@<TRIPOS>MOLECULE
ZINC18116590
   38    41     0     0     0
SMALL
USER_CHARGES
(5Z)-5-(1H-indol-3-ylmethylene)-1-phenyl-hexahydropyrimidine-2,4,6-trione
@<TRIPOS>ATOM
      1 C1          0.0314    5.9474   -2.2532 C.ar      1 <0>        -0.1051
      2 C2         -0.6537    4.9223   -2.8793 C.ar      1 <0>        -0.1101
      3 C3         -0.4412    3.6126   -2.4958 C.ar      1 <0>        -0.0913
      4 C4          0.4609    3.3257   -1.4802 C.ar      1 <0>         0.1247
      5 C5          1.1430    4.3576   -0.8495 C.ar      1 <0>        -0.0919
      6 C6          0.9308    5.6648   -1.2416 C.ar      1 <0>        -0.1105
      7 N1          0.6783    1.9979   -1.0885 N.am      1 <0>        -0.5168
      8 C7         -0.3031    1.3310   -0.4467 C.2       1 <0>         0.5710
      9 O1         -1.3703    1.8655   -0.2103 O.2       1 <0>        -0.4771
     10 C8         -0.0502   -0.0636   -0.0454 C.2       1 <0>        -0.3312
     11 C9         -1.0128   -0.8122    0.6188 C.2       1 <0>         0.1975
     12 C10        -2.1884   -0.1918    1.0880 C.2       1 <0>        -0.2520
     13 C11        -2.2834    1.0245    1.7423 C.2       1 <0>         0.2101
     14 N2         -3.5722    1.2820    2.0288 N.pl3     1 <0>        -0.5641
     15 H1         -3.8868    2.0789    2.4838 H         1 <0>         0.4236
     16 C12        -4.3861    0.2552    1.5924 C.ar      1 <0>         0.0735
     17 C13        -3.5678   -0.7108    0.9866 C.ar      1 <0>        -0.0555
     18 C14        -4.1279   -1.8662    0.4518 C.ar      1 <0>        -0.0874
     19 C15        -5.4916   -2.0585    0.5202 C.ar      1 <0>        -0.1239
     20 C16        -6.3023   -1.1058    1.1181 C.ar      1 <0>        -0.1064
     21 C17        -5.7595    0.0435    1.6515 C.ar      1 <0>        -0.1130
     22 C18         1.2687   -0.6294   -0.3789 C.2       1 <0>         0.5742
     23 O2          1.5510   -1.7746   -0.0802 O.2       1 <0>        -0.4905
     24 N3          2.1548    0.1564   -1.0248 N.am      1 <0>        -0.6630
     25 C19         1.8565    1.4194   -1.3605 C.2       1 <0>         0.7113
     26 O3          2.6988    2.0746   -1.9422 O.2       1 <0>        -0.5171
     27 H2         -0.1362    6.9707   -2.5550 H         1 <0>         0.1297
     28 H3         -1.3553    5.1461   -3.6693 H         1 <0>         0.1316
     29 H4         -0.9760    2.8123   -2.9857 H         1 <0>         0.1250
     30 H5          1.8423    4.1378   -0.0563 H         1 <0>         0.1254
     31 H6          1.4647    6.4675   -0.7547 H         1 <0>         0.1319
     32 H7         -0.8607   -1.8699    0.7759 H         1 <0>         0.1543
     33 H8         -1.4508    1.6688    1.9835 H         1 <0>         0.1791
     34 H9         -3.4978   -2.6091   -0.0145 H         1 <0>         0.1264
     35 H10        -5.9299   -2.9544    0.1059 H         1 <0>         0.1282
     36 H11        -7.3694   -1.2656    1.1660 H         1 <0>         0.1295
     37 H12        -6.4002    0.7793    2.1146 H         1 <0>         0.1238
     38 H13         3.0276   -0.2008   -1.2518 H         1 <0>         0.4364
@<TRIPOS>BOND
     1    1    6 ar
     2    1    2 ar
     3    1   27 1
     4    2    3 ar
     5    2   28 1
     6    3    4 ar
     7    3   29 1
     8    4    5 ar
     9    4    7 1
    10    5    6 ar
    11    5   30 1
    12    6   31 1
    13    7   25 am
    14    7    8 am
    15    8    9 2
    16    8   10 1
    17   10   11 2
    18   10   22 1
    19   11   12 1
    20   11   32 1
    21   12   17 1
    22   12   13 2
    23   13   14 1
    24   13   33 1
    25   14   15 1
    26   14   16 1
    27   16   21 ar
    28   16   17 ar
    29   17   18 ar
    30   18   19 ar
    31   18   34 1
    32   19   20 ar
    33   19   35 1
    34   20   21 ar
    35   20   36 1
    36   21   37 1
    37   22   23 2
    38   22   24 am
    39   24   25 am
    40   24   38 1
    41   25   26 2
@<TRIPOS>MOLECULE
ZINC00179593
   34    36     0     0     0
SMALL
USER_CHARGES
5-benzylidene-1-(4-chlorophenyl)-hexahydropyrimidine-2,4,6-trione
@<TRIPOS>ATOM
      1 C1          0.4861   -4.1301   -2.6821 C.ar      1 <0>        -0.0814
      2 C2         -0.7895   -3.9678   -2.1686 C.ar      1 <0>        -0.1357
      3 C3         -1.1543   -2.7752   -1.5824 C.ar      1 <0>        -0.0711
      4 C4         -0.2298   -1.7247   -1.5074 C.ar      1 <0>        -0.1262
      5 C5          1.0572   -1.8961   -2.0349 C.ar      1 <0>        -0.0246
      6 C6          1.4061   -3.0977   -2.6124 C.ar      1 <0>        -0.1318
      7 C7         -0.6086   -0.4520   -0.8861 C.2       1 <0>         0.1406
      8 C8          0.2748    0.1966   -0.0490 C.2       1 <0>        -0.2895
      9 C9          0.0526    1.5949    0.3739 C.2       1 <0>         0.5728
     10 O1         -0.9189    2.2174   -0.0106 O.2       1 <0>        -0.4796
     11 N1          0.9604    2.1637    1.1939 N.am      1 <0>        -0.6607
     12 C10         2.0384    1.4914    1.6205 C.2       1 <0>         0.7114
     13 O2          2.8172    2.0630    2.3579 O.2       1 <0>        -0.5103
     14 N2          2.3042    0.2230    1.2791 N.am      1 <0>        -0.5187
     15 C11         1.4861   -0.4752    0.4648 C.2       1 <0>         0.5620
     16 O3          1.7389   -1.6257    0.1618 O.2       1 <0>        -0.4521
     17 C12         3.4598   -0.3927    1.7796 C.ar      1 <0>         0.1290
     18 C13         3.3836   -1.2068    2.9016 C.ar      1 <0>        -0.0779
     19 C14         4.5227   -1.8164    3.3897 C.ar      1 <0>        -0.0995
     20 C15         5.7413   -1.6071    2.7683 C.ar      1 <0>        -0.0192
     21 C16         5.8208   -0.7919    1.6529 C.ar      1 <0>        -0.0998
     22 C17         4.6835   -0.1846    1.1576 C.ar      1 <0>        -0.0781
     23 Cl1         7.1726   -2.3691    3.3885 Cl        1 <0>        -0.0571
     24 H1          0.7651   -5.0676   -3.1401 H         1 <0>         0.1268
     25 H2         -1.5007   -4.7785   -2.2273 H         1 <0>         0.1293
     26 H3         -2.1497   -2.6504   -1.1824 H         1 <0>         0.1303
     27 H4          1.7747   -1.0904   -1.9851 H         1 <0>         0.1180
     28 H5          2.3990   -3.2332   -3.0152 H         1 <0>         0.1273
     29 H6         -1.5795   -0.0224   -1.0840 H         1 <0>         0.1644
     30 H7          0.8300    3.0809    1.4812 H         1 <0>         0.4394
     31 H8          2.4336   -1.3666    3.3898 H         1 <0>         0.1363
     32 H9          4.4631   -2.4537    4.2597 H         1 <0>         0.1446
     33 H10         6.7728   -0.6306    1.1691 H         1 <0>         0.1447
     34 H11         4.7459    0.4513    0.2869 H         1 <0>         0.1365
@<TRIPOS>BOND
     1    1    6 ar
     2    1    2 ar
     3    1   24 1
     4    2    3 ar
     5    2   25 1
     6    3    4 ar
     7    3   26 1
     8    4    5 ar
     9    4    7 1
    10    5    6 ar
    11    5   27 1
    12    6   28 1
    13    7    8 2
    14    7   29 1
    15    8   15 1
    16    8    9 1
    17    9   10 2
    18    9   11 am
    19   11   12 am
    20   11   30 1
    21   12   13 2
    22   12   14 am
    23   14   15 am
    24   14   17 1
    25   15   16 2
    26   17   22 ar
    27   17   18 ar
    28   18   19 ar
    29   18   31 1
    30   19   20 ar
    31   19   32 1
    32   20   21 ar
    33   20   23 1
    34   21   22 ar
    35   21   33 1
    36   22   34 1
@<TRIPOS>MOLECULE
ZINC03930111
   97    99     0     0     0
SMALL
USER_CHARGES
(2S)-1-[(2S)-2-[[(2S)-4-hydroxy-2-[[(2S)-4-methyl-2-[[2-[4-(o-tolylcarbamoylamino)phenyl]acetyl]amino]pentanoyl]amino]-4-oxo-butanoyl]amino]-3-methyl-butanoyl]pyrrolidine-2-carboxylic acid
@<TRIPOS>ATOM
      1 C1         -2.6915    8.4531   -0.6645 C.3       1 <0>        -0.1134
      2 C2         -2.3909    7.9421    0.7209 C.ar      1 <0>        -0.1195
      3 C3         -1.8685    8.7946    1.6741 C.ar      1 <0>        -0.1031
      4 C4         -1.5928    8.3267    2.9455 C.ar      1 <0>        -0.1383
      5 C5         -1.8393    7.0044    3.2675 C.ar      1 <0>        -0.1061
      6 C6         -2.3660    6.1483    2.3206 C.ar      1 <0>        -0.1236
      7 C7         -2.6391    6.6140    1.0409 C.ar      1 <0>         0.1710
      8 N1         -3.1687    5.7479    0.0777 N.am      1 <0>        -0.6938
      9 C8         -2.8450    4.4397    0.0970 C.2       1 <0>         0.7069
     10 O1         -2.1653    3.9949    1.0017 O.2       1 <0>        -0.5603
     11 N2         -3.2747    3.6246   -0.8866 N.am      1 <0>        -0.6917
     12 C9         -3.0268    2.2493   -0.8139 C.ar      1 <0>         0.1566
     13 C10        -3.9679    1.3465   -1.2911 C.ar      1 <0>        -0.1420
     14 C11        -3.7201   -0.0103   -1.2183 C.ar      1 <0>        -0.0848
     15 C12        -2.5363   -0.4700   -0.6711 C.ar      1 <0>        -0.0710
     16 C13        -1.5973    0.4264   -0.1947 C.ar      1 <0>        -0.0867
     17 C14        -1.8394    1.7844   -0.2641 C.ar      1 <0>        -0.1182
     18 C15        -2.2691   -1.9511   -0.5933 C.3       1 <0>        -0.1031
     19 C16        -1.5705   -2.4022   -1.8501 C.2       1 <0>         0.5177
     20 O2         -1.3148   -1.6000   -2.7230 O.2       1 <0>        -0.5380
     21 N3         -1.2300   -3.6971   -2.0040 N.am      1 <0>        -0.7238
     22 C17        -0.4548   -4.1165   -3.1743 C.3       1 <0>         0.1312
     23 H1         -0.7523   -3.4747   -4.0167 H         1 <0>         0.1101
     24 C18         1.0387   -3.9728   -2.8749 C.3       1 <0>        -0.1088
     25 C19         1.8478   -4.3903   -4.1046 C.3       1 <0>        -0.1145
     26 C20         1.6159   -3.3839   -5.2334 C.3       1 <0>        -0.1540
     27 C21         3.3355   -4.4238   -3.7489 C.3       1 <0>        -0.1366
     28 C22        -0.7669   -5.5557   -3.4940 C.2       1 <0>         0.5310
     29 O3         -1.1894   -6.2916   -2.6275 O.2       1 <0>        -0.5494
     30 N4         -0.5764   -6.0252   -4.7429 N.am      1 <0>        -0.6887
     31 C23        -0.9925   -7.3876   -5.0848 C.3       1 <0>         0.1547
     32 H2         -1.9200   -7.5994   -4.5326 H         1 <0>         0.1145
     33 C24        -1.2168   -7.4886   -6.5949 C.3       1 <0>        -0.1660
     34 C25        -2.3819   -6.6179   -6.9890 C.2       1 <0>         0.4646
     35 O4         -3.0358   -6.0622   -6.1384 O.co2     1 <0>        -0.6277
     36 O5         -2.6933   -6.4597   -8.2851 O.co2     1 <0>        -0.7709
     37 C26         0.0817   -8.3599   -4.6703 C.2       1 <0>         0.5130
     38 O6          1.0951   -7.9547   -4.1415 O.2       1 <0>        -0.5402
     39 N5         -0.0838   -9.6797   -4.8873 N.am      1 <0>        -0.7270
     40 C27         0.9605  -10.6249   -4.4844 C.3       1 <0>         0.1459
     41 H3          1.9320  -10.1361   -4.6497 H         1 <0>         0.0960
     42 C28         0.7743  -10.9930   -3.0111 C.3       1 <0>        -0.0891
     43 C29         1.8363  -12.0160   -2.6029 C.3       1 <0>        -0.1622
     44 C30         0.9183   -9.7370   -2.1494 C.3       1 <0>        -0.1314
     45 C31         0.8649  -11.8692   -5.3291 C.2       1 <0>         0.5385
     46 O7         -0.2210  -12.2914   -5.6661 O.2       1 <0>        -0.5259
     47 N6          1.9860  -12.5130   -5.7100 N.am      1 <0>        -0.5937
     48 C32         3.3655  -12.0578   -5.4589 C.3       1 <0>         0.0906
     49 C33         4.2141  -12.7361   -6.5632 C.3       1 <0>        -0.1337
     50 C34         3.5236  -14.1207   -6.6802 C.3       1 <0>        -0.0930
     51 C35         2.0358  -13.7888   -6.4390 C.3       1 <0>         0.0925
     52 H4          1.4680  -13.6872   -7.3756 H         1 <0>         0.0760
     53 C36         1.3925  -14.8749   -5.6159 C.2       1 <0>         0.4629
     54 O8          0.9354  -14.6175   -4.5275 O.co2     1 <0>        -0.6157
     55 O9          1.3274  -16.1283   -6.0919 O.co2     1 <0>        -0.7747
     56 H5         -2.4309    9.5200   -0.7263 H         1 <0>         0.0688
     57 H6         -3.7628    8.3244   -0.8783 H         1 <0>         0.0657
     58 H7         -2.1002    7.8880   -1.4000 H         1 <0>         0.0687
     59 H8         -1.6755    9.8278    1.4259 H         1 <0>         0.1230
     60 H9         -1.1844    8.9952    3.6890 H         1 <0>         0.1203
     61 H10        -1.6232    6.6420    4.2616 H         1 <0>         0.1232
     62 H11        -2.5621    5.1169    2.5738 H         1 <0>         0.1457
     63 H12        -3.8492    6.1348   -0.6951 H         1 <0>         0.4272
     64 H13        -3.8203    4.0404   -1.7465 H         1 <0>         0.4284
     65 H14        -4.8908    1.7051   -1.7226 H         1 <0>         0.1232
     66 H15        -4.4517   -0.7129   -1.5889 H         1 <0>         0.1260
     67 H16        -0.6739    0.0643    0.2325 H         1 <0>         0.1220
     68 H17        -1.1059    2.4840    0.1088 H         1 <0>         0.1362
     69 H18        -1.6310   -2.1633    0.2772 H         1 <0>         0.1032
     70 H19        -3.2220   -2.4907   -0.4896 H         1 <0>         0.1044
     71 H20        -1.5341   -4.4391   -1.2510 H         1 <0>         0.4305
     72 H21         1.2637   -2.9251   -2.6263 H         1 <0>         0.0708
     73 H22         1.3058   -4.6170   -2.0242 H         1 <0>         0.0699
     74 H23         1.5267   -5.3899   -4.4329 H         1 <0>         0.0972
     75 H24         2.1976   -3.6841   -6.1175 H         1 <0>         0.0570
     76 H25         1.9371   -2.3844   -4.9052 H         1 <0>         0.0545
     77 H26         0.5463   -3.3598   -5.4891 H         1 <0>         0.0573
     78 H27         3.9172   -4.7240   -4.6330 H         1 <0>         0.0537
     79 H28         3.5022   -5.1473   -2.9373 H         1 <0>         0.0539
     80 H29         3.6566   -3.4242   -3.4207 H         1 <0>         0.0468
     81 H30        -0.1084   -5.3853   -5.5055 H         1 <0>         0.4181
     82 H31        -0.3125   -7.1523   -7.1232 H         1 <0>         0.0750
     83 H32        -1.4319   -8.5331   -6.8646 H         1 <0>         0.0877
     84 H33        -1.0030  -10.0472   -5.3669 H         1 <0>         0.4306
     85 H34        -0.2266  -11.4252   -2.8649 H         1 <0>         0.0761
     86 H35         1.7024  -12.2807   -1.5436 H         1 <0>         0.0504
     87 H36         2.8372  -11.5837   -2.7492 H         1 <0>         0.0459
     88 H37         1.7328  -12.9190   -3.2224 H         1 <0>         0.0932
     89 H38         0.7844  -10.0017   -1.0902 H         1 <0>         0.0404
     90 H39         0.1548   -9.0015   -2.4429 H         1 <0>         0.0627
     91 H40         1.9192   -9.3048   -2.2957 H         1 <0>         0.0557
     92 H41         3.4080  -10.9608   -5.5285 H         1 <0>         0.0691
     93 H42         3.6785  -12.3737   -4.4528 H         1 <0>         0.0668
     94 H43         4.1558  -12.1421   -7.4872 H         1 <0>         0.0715
     95 H44         5.2617  -12.7995   -6.2336 H         1 <0>         0.0763
     96 H45         3.7065  -14.5382   -7.6813 H         1 <0>         0.0763
     97 H46         3.9338  -14.8005   -5.9189 H         1 <0>         0.0735
@<TRIPOS>BOND
     1    1    2 1
     2    1   56 1
     3    1   57 1
     4    1   58 1
     5    2    7 ar
     6    2    3 ar
     7    3    4 ar
     8    3   59 1
     9    4    5 ar
    10    4   60 1
    11    5    6 ar
    12    5   61 1
    13    6    7 ar
    14    6   62 1
    15    7    8 1
    16    8    9 am
    17    8   63 1
    18    9   10 2
    19    9   11 am
    20   11   12 1
    21   11   64 1
    22   12   17 ar
    23   12   13 ar
    24   13   14 ar
    25   13   65 1
    26   14   15 ar
    27   14   66 1
    28   15   16 ar
    29   15   18 1
    30   16   17 ar
    31   16   67 1
    32   17   68 1
    33   18   19 1
    34   18   69 1
    35   18   70 1
    36   19   20 2
    37   19   21 am
    38   21   22 1
    39   21   71 1
    40   22   23 1
    41   22   24 1
    42   22   28 1
    43   24   25 1
    44   24   72 1
    45   24   73 1
    46   25   26 1
    47   25   27 1
    48   25   74 1
    49   26   75 1
    50   26   76 1
    51   26   77 1
    52   27   78 1
    53   27   79 1
    54   27   80 1
    55   28   29 2
    56   28   30 am
    57   30   31 1
    58   30   81 1
    59   31   32 1
    60   31   33 1
    61   31   37 1
    62   33   34 1
    63   33   82 1
    64   33   83 1
    65   34   35 2
    66   34   36 1
    67   37   38 2
    68   37   39 am
    69   39   40 1
    70   39   84 1
    71   40   41 1
    72   40   42 1
    73   40   45 1
    74   42   43 1
    75   42   44 1
    76   42   85 1
    77   43   86 1
    78   43   87 1
    79   43   88 1
    80   44   89 1
    81   44   90 1
    82   44   91 1
    83   45   46 2
    84   45   47 am
    85   47   51 1
    86   47   48 1
    87   48   49 1
    88   48   92 1
    89   48   93 1
    90   49   50 1
    91   49   94 1
    92   49   95 1
    93   50   51 1
    94   50   96 1
    95   50   97 1
    96   51   52 1
    97   51   53 1
    98   53   54 2
    99   53   55 1
@<TRIPOS>MOLECULE
ZINC01490484
   52    54     0     0     0
SMALL
USER_CHARGES
2-(2,6-dichlorobenzoyl)amino-3-[4-(2,6-dimethoxyphenyl)phenyl]-propanoic acid
@<TRIPOS>ATOM
      1 C1         -2.3739    0.0589    0.0241 C.3       1 <0>         0.0269
      2 O1         -1.1639   -0.7011    0.0089 O.3       1 <0>        -0.3005
      3 C2          0.0021   -0.0041    0.0020 C.ar      1 <0>         0.1761
      4 C3         -0.0167    1.3815    0.0096 C.ar      1 <0>        -0.2478
      5 C4          1.1688    2.0927    0.0021 C.ar      1 <0>        -0.0425
      6 C5          2.3816    1.4293   -0.0130 C.ar      1 <0>        -0.2470
      7 C6          2.4178    0.0440   -0.0207 C.ar      1 <0>         0.1782
      8 C7          1.2239   -0.6824   -0.0133 C.ar      1 <0>        -0.1078
      9 C8          1.2533   -2.1648   -0.0210 C.ar      1 <0>        -0.0385
     10 C9          0.7738   -2.8798    1.0752 C.ar      1 <0>        -0.0918
     11 C10         0.7997   -4.2595    1.0606 C.ar      1 <0>        -0.1156
     12 C11         1.3096   -4.9328   -0.0349 C.ar      1 <0>        -0.0621
     13 C12         1.7913   -4.2284   -1.1236 C.ar      1 <0>        -0.1149
     14 C13         1.7660   -2.8486   -1.1222 C.ar      1 <0>        -0.0883
     15 C14         1.3409   -6.4395   -0.0422 C.3       1 <0>        -0.0752
     16 C15         2.6645   -6.9249    0.5522 C.3       1 <0>         0.1121
     17 H1          2.7980   -6.4922    1.5436 H         1 <0>         0.0895
     18 C16         2.6462   -8.4281    0.6584 C.2       1 <0>         0.4584
     19 O2          3.4720   -9.0854    0.0704 O.co2     1 <0>        -0.6157
     20 N1          3.7703   -6.5101   -0.3147 N.am      1 <0>        -0.6794
     21 C17         5.0080   -6.3600    0.1972 C.2       1 <0>         0.5702
     22 O3          5.2068   -6.5688    1.3782 O.2       1 <0>        -0.5234
     23 C18         6.1228   -5.9418   -0.6767 C.ar      1 <0>        -0.1005
     24 C19         6.4073   -4.5849   -0.8512 C.ar      1 <0>        -0.0053
     25 C20         7.4553   -4.2019   -1.6650 C.ar      1 <0>        -0.1165
     26 C21         8.2150   -5.1572   -2.3159 C.ar      1 <0>        -0.0881
     27 C22         7.9356   -6.5022   -2.1530 C.ar      1 <0>        -0.1152
     28 C23         6.8949   -6.9010   -1.3376 C.ar      1 <0>        -0.0025
     29 Cl1         6.5461   -8.5894   -1.1347 Cl        1 <0>        -0.0136
     30 Cl2         5.4508   -3.3839   -0.0410 Cl        1 <0>        -0.0293
     31 O4          3.6105   -0.6060   -0.0352 O.3       1 <0>        -0.2954
     32 C24         4.7895    0.2015   -0.0421 C.3       1 <0>         0.0258
     33 H2         -2.4002    0.6825    0.9177 H         1 <0>         0.0552
     34 H3         -2.4165    0.6920   -0.8621 H         1 <0>         0.0548
     35 H4         -3.2282   -0.6181    0.0283 H         1 <0>         0.1012
     36 H5         -0.9601    1.9073    0.0169 H         1 <0>         0.1288
     37 H6          1.1474    3.1725    0.0081 H         1 <0>         0.1255
     38 H7          3.3033    1.9921   -0.0184 H         1 <0>         0.1291
     39 H8          0.3795   -2.3551    1.9329 H         1 <0>         0.1128
     40 H9          0.4246   -4.8146    1.9077 H         1 <0>         0.1225
     41 H10         2.1883   -4.7593   -1.9762 H         1 <0>         0.1142
     42 H11         2.1430   -2.2997   -1.9724 H         1 <0>         0.1119
     43 H12         0.5127   -6.8229    0.5538 H         1 <0>         0.0976
     44 H13         1.2488   -6.7999   -1.0667 H         1 <0>         0.0708
     45 H14         3.6117   -6.3435   -1.2570 H         1 <0>         0.3901
     46 H15         7.6792   -3.1537   -1.7974 H         1 <0>         0.1399
     47 H16         9.0302   -4.8514   -2.9549 H         1 <0>         0.1410
     48 H17         8.5331   -7.2423   -2.6645 H         1 <0>         0.1420
     49 H18         5.6699   -0.4410   -0.0535 H         1 <0>         0.0991
     50 H19         4.7906    0.8352   -0.9289 H         1 <0>         0.0561
     51 H20         4.8072    0.8262    0.8509 H         1 <0>         0.0551
     52 O5          1.7123   -9.0367    1.4063 O.co2     1 <0>        -0.7680
@<TRIPOS>BOND
     1    1    2 1
     2    1   33 1
     3    1   34 1
     4    1   35 1
     5    2    3 1
     6    3    8 ar
     7    3    4 ar
     8    4    5 ar
     9    4   36 1
    10    5    6 ar
    11    5   37 1
    12    6    7 ar
    13    6   38 1
    14    7    8 ar
    15    7   31 1
    16    8    9 1
    17    9   14 ar
    18    9   10 ar
    19   10   11 ar
    20   10   39 1
    21   11   12 ar
    22   11   40 1
    23   12   13 ar
    24   12   15 1
    25   13   14 ar
    26   13   41 1
    27   14   42 1
    28   15   16 1
    29   15   43 1
    30   15   44 1
    31   16   17 1
    32   16   18 1
    33   16   20 1
    34   18   19 2
    35   18   52 1
    36   20   21 am
    37   20   45 1
    38   21   22 2
    39   21   23 1
    40   23   28 ar
    41   23   24 ar
    42   24   25 ar
    43   24   30 1
    44   25   26 ar
    45   25   46 1
    46   26   27 ar
    47   26   47 1
    48   27   28 ar
    49   27   48 1
    50   28   29 1
    51   31   32 1
    52   32   49 1
    53   32   50 1
    54   32   51 1
