@<TRIPOS>MOLECULE
ZINC43130513
   56    60     0     0     0
SMALL
USER_CHARGES

@<TRIPOS>ATOM
      1 C1         -0.2137    1.2862   -0.0963 C.3       1 <0>         0.1108
      2 N1         -0.2090   -0.1750    0.0083 N.am      1 <0>        -0.6033
      3 C2         -0.2905   -1.0632   -1.0056 C.2       1 <0>         0.7043
      4 O1         -0.3816   -0.7476   -2.1757 O.2       1 <0>        -0.5017
      5 N2         -0.2587   -2.3322   -0.5755 N.am      1 <0>        -0.5144
      6 C3         -0.1527   -2.3978    0.7712 C.2       1 <0>         0.5428
      7 O2         -0.1000   -3.3943    1.4598 O.2       1 <0>        -0.4269
      8 C4         -0.1089   -0.9679    1.2277 C.3       1 <0>         0.1099
      9 C5         -1.2302   -0.6477    2.2254 C.3       1 <0>         0.1242
     10 N3         -0.6873   -1.0455    3.5401 N.pl3     1 <0>        -0.6109
     11 C6          0.7821   -1.0485    3.4646 C.3       1 <0>         0.0848
     12 C7          1.1697   -0.6540    2.0211 C.3       1 <0>        -0.0396
     13 H1          1.4099    0.4076    1.9622 H         1 <0>         0.1325
     14 C8          2.3220   -1.4917    1.5299 C.ar      1 <0>        -0.0906
     15 C9          3.2644   -0.9370    0.6822 C.ar      1 <0>        -0.0948
     16 C10         4.3218   -1.6981    0.2287 C.ar      1 <0>        -0.0672
     17 C11         4.4399   -3.0311    0.6275 C.ar      1 <0>        -0.0059
     18 C12         3.4855   -3.5843    1.4835 C.ar      1 <0>        -0.0641
     19 C13         2.4359   -2.8104    1.9332 C.ar      1 <0>        -0.1135
     20 C14         5.5347   -3.8273    0.1603 C.1       1 <0>         0.2398
     21 N4          6.4032   -4.4589   -0.2103 N.1       1 <0>        -0.3929
     22 C15        -1.4371   -1.3630    4.6585 C.ar      1 <0>         0.4526
     23 C16        -2.8293   -1.3237    4.5865 C.ar      1 <0>        -0.2052
     24 C17        -3.5680   -1.6381    5.6939 C.ar      1 <0>         0.0666
     25 C18        -2.8904   -1.9920    6.8731 C.ar      1 <0>        -0.1658
     26 C19        -1.4932   -2.0101    6.8726 C.ar      1 <0>         0.1599
     27 N5         -0.8215   -1.7056    5.7825 N.ar      1 <0>        -0.4963
     28 C20        -3.6413   -2.3379    8.0905 C.2       1 <0>         0.5242
     29 O3         -4.8645   -2.3188    8.0810 O.co2     1 <0>        -0.6517
     30 O4         -3.0422   -2.6447    9.1122 O.co2     1 <0>        -0.6602
     31 C21        -0.3276   -3.4518   -1.4166 C.ar      1 <0>         0.1561
     32 C22        -0.1672   -4.7267   -0.8914 C.ar      1 <0>        -0.1262
     33 C23        -0.2355   -5.8292   -1.7227 C.ar      1 <0>        -0.0049
     34 C24        -0.4636   -5.6625   -3.0773 C.ar      1 <0>        -0.1050
     35 C25        -0.6238   -4.3926   -3.6032 C.ar      1 <0>        -0.0044
     36 C26        -0.5620   -3.2875   -2.7749 C.ar      1 <0>        -0.1224
     37 Cl1        -0.9098   -4.1875   -5.3031 Cl        1 <0>        -0.0373
     38 Cl2        -0.0345   -7.4238   -1.0668 Cl        1 <0>        -0.0379
     39 H2          0.8092    1.6458   -0.2080 H         1 <0>         0.0736
     40 H3         -0.8012    1.5866   -0.9638 H         1 <0>         0.0969
     41 H4         -0.6525    1.7136    0.8053 H         1 <0>         0.0867
     42 H5         -1.4553    0.4187    2.2143 H         1 <0>         0.1156
     43 H6         -2.1232   -1.2277    1.9920 H         1 <0>         0.1063
     44 H7          1.1908   -0.3240    4.1691 H         1 <0>         0.1008
     45 H8          1.1627   -2.0443    3.6915 H         1 <0>         0.0988
     46 H9          3.1718    0.0941    0.3746 H         1 <0>         0.1381
     47 H10         5.0564   -1.2642   -0.4335 H         1 <0>         0.1409
     48 H11         3.5709   -4.6146    1.7957 H         1 <0>         0.1404
     49 H12         1.6992   -3.2358    2.5985 H         1 <0>         0.1462
     50 H13        -3.3196   -1.0472    3.6648 H         1 <0>         0.1691
     51 H14        -4.6473   -1.6146    5.6629 H         1 <0>         0.1772
     52 H15        -0.9604   -2.2804    7.7724 H         1 <0>         0.2137
     53 H16         0.0112   -4.8572    0.1657 H         1 <0>         0.1665
     54 H17        -0.5163   -6.5250   -3.7253 H         1 <0>         0.1523
     55 H18        -0.6919   -2.2968   -3.1849 H         1 <0>         0.1782
     56 H19         0.1480   -1.7282    5.8026 H         1 <0>         0.4335
@<TRIPOS>BOND
     1    1    2 1
     2    1   39 1
     3    1   40 1
     4    1   41 1
     5    2    8 1
     6    2    3 am
     7    3    4 2
     8    3    5 am
     9    5    6 am
    10    5   31 1
    11    6    7 2
    12    6    8 1
    13    8   12 1
    14    8    9 1
    15    9   10 1
    16    9   42 1
    17    9   43 1
    18   10   11 1
    19   10   22 1
    20   11   12 1
    21   11   44 1
    22   11   45 1
    23   12   13 1
    24   12   14 1
    25   14   19 ar
    26   14   15 ar
    27   15   16 ar
    28   15   46 1
    29   16   17 ar
    30   16   47 1
    31   17   18 ar
    32   17   20 1
    33   18   19 ar
    34   18   48 1
    35   19   49 1
    36   20   21 3
    37   22   27 ar
    38   22   23 ar
    39   23   24 ar
    40   23   50 1
    41   24   25 ar
    42   24   51 1
    43   25   26 ar
    44   25   28 1
    45   26   27 ar
    46   26   52 1
    47   27   56 1
    48   28   29 2
    49   28   30 1
    50   31   36 ar
    51   31   32 ar
    52   32   33 ar
    53   32   53 1
    54   33   34 ar
    55   33   38 1
    56   34   35 ar
    57   34   54 1
    58   35   36 ar
    59   35   37 1
    60   36   55 1
@<TRIPOS>MOLECULE
ZINC43130513
   55    59     0     0     0
SMALL
USER_CHARGES

@<TRIPOS>ATOM
      1 C1         -0.2137    1.2862   -0.0963 C.3       1 <0>         0.1139
      2 N1         -0.2090   -0.1750    0.0083 N.am      1 <0>        -0.6022
      3 C2         -0.2905   -1.0632   -1.0056 C.2       1 <0>         0.7060
      4 O1         -0.3816   -0.7475   -2.1757 O.2       1 <0>        -0.5189
      5 N2         -0.2587   -2.3322   -0.5755 N.am      1 <0>        -0.5206
      6 C3         -0.1527   -2.3978    0.7712 C.2       1 <0>         0.5427
      7 O2         -0.1000   -3.3943    1.4598 O.2       1 <0>        -0.4173
      8 C4         -0.1089   -0.9679    1.2277 C.3       1 <0>         0.1103
      9 C5         -1.2302   -0.6477    2.2254 C.3       1 <0>         0.1367
     10 N3         -0.6873   -1.0455    3.5401 N.pl3     1 <0>        -0.6152
     11 C6          0.7821   -1.0485    3.4646 C.3       1 <0>         0.1287
     12 C7          1.1697   -0.6540    2.0211 C.3       1 <0>        -0.0519
     13 H1          1.4099    0.4076    1.9622 H         1 <0>         0.1211
     14 C8          2.3220   -1.4917    1.5299 C.ar      1 <0>        -0.0735
     15 C9          3.2644   -0.9370    0.6822 C.ar      1 <0>        -0.1021
     16 C10         4.3218   -1.6982    0.2287 C.ar      1 <0>        -0.0712
     17 C11         4.4399   -3.0311    0.6275 C.ar      1 <0>        -0.0221
     18 C12         3.4855   -3.5843    1.4835 C.ar      1 <0>        -0.0647
     19 C13         2.4358   -2.8104    1.9332 C.ar      1 <0>        -0.1084
     20 C14         5.5347   -3.8273    0.1603 C.1       1 <0>         0.2522
     21 N4          6.4031   -4.4589   -0.2103 N.1       1 <0>        -0.4117
     22 C15        -1.4371   -1.3630    4.6585 C.ar      1 <0>         0.4073
     23 C16        -2.8267   -1.4259    4.5592 C.ar      1 <0>        -0.2453
     24 C17        -3.5654   -1.7401    5.6667 C.ar      1 <0>        -0.0042
     25 C18        -2.8905   -1.9898    6.8736 C.ar      1 <0>        -0.2298
     26 C19        -1.4957   -1.9087    6.8997 C.ar      1 <0>         0.1720
     27 N5         -0.8235   -1.6084    5.8087 N.ar      1 <0>        -0.5460
     28 C20        -3.6415   -2.3311    8.0923 C.2       1 <0>         0.5280
     29 O3         -4.8626   -2.3992    8.0594 O.co2     1 <0>        -0.6905
     30 O4         -3.0447   -2.5468    9.1384 O.co2     1 <0>        -0.6888
     31 C21        -0.3276   -3.4518   -1.4166 C.ar      1 <0>         0.1663
     32 C22        -0.1672   -4.7267   -0.8914 C.ar      1 <0>        -0.1268
     33 C23        -0.2355   -5.8292   -1.7227 C.ar      1 <0>        -0.0038
     34 C24        -0.4636   -5.6625   -3.0774 C.ar      1 <0>        -0.1112
     35 C25        -0.6238   -4.3926   -3.6032 C.ar      1 <0>        -0.0054
     36 C26        -0.5620   -3.2875   -2.7749 C.ar      1 <0>        -0.1254
     37 Cl1        -0.9098   -4.1875   -5.3031 Cl        1 <0>        -0.0463
     38 Cl2        -0.0345   -7.4238   -1.0668 Cl        1 <0>        -0.0423
     39 H2          0.8092    1.6458   -0.2080 H         1 <0>         0.0694
     40 H3         -0.8012    1.5866   -0.9638 H         1 <0>         0.0909
     41 H4         -0.6525    1.7136    0.8053 H         1 <0>         0.0875
     42 H5         -1.4553    0.4187    2.2143 H         1 <0>         0.0898
     43 H6         -2.1232   -1.2277    1.9920 H         1 <0>         0.0864
     44 H7          1.1908   -0.3241    4.1691 H         1 <0>         0.0812
     45 H8          1.1627   -2.0443    3.6915 H         1 <0>         0.0819
     46 H9          3.1718    0.0941    0.3746 H         1 <0>         0.1348
     47 H10         5.0563   -1.2642   -0.4335 H         1 <0>         0.1354
     48 H11         3.5709   -4.6147    1.7957 H         1 <0>         0.1375
     49 H12         1.6992   -3.2358    2.5985 H         1 <0>         0.1534
     50 H13        -3.3151   -1.2281    3.6165 H         1 <0>         0.1177
     51 H14        -4.6428   -1.7946    5.6148 H         1 <0>         0.1355
     52 H15        -0.9650   -2.0984    7.8210 H         1 <0>         0.1633
     53 H16         0.0112   -4.8572    0.1657 H         1 <0>         0.1689
     54 H17        -0.5163   -6.5250   -3.7253 H         1 <0>         0.1488
     55 H18        -0.6919   -2.2968   -3.1849 H         1 <0>         0.1783
@<TRIPOS>BOND
     1    1    2 1
     2    1   39 1
     3    1   40 1
     4    1   41 1
     5    2    8 1
     6    2    3 am
     7    3    4 2
     8    3    5 am
     9    5    6 am
    10    5   31 1
    11    6    7 2
    12    6    8 1
    13    8   12 1
    14    8    9 1
    15    9   10 1
    16    9   42 1
    17    9   43 1
    18   10   11 1
    19   10   22 1
    20   11   12 1
    21   11   44 1
    22   11   45 1
    23   12   13 1
    24   12   14 1
    25   14   19 ar
    26   14   15 ar
    27   15   16 ar
    28   15   46 1
    29   16   17 ar
    30   16   47 1
    31   17   18 ar
    32   17   20 1
    33   18   19 ar
    34   18   48 1
    35   19   49 1
    36   20   21 3
    37   22   27 ar
    38   22   23 ar
    39   23   24 ar
    40   23   50 1
    41   24   25 ar
    42   24   51 1
    43   25   26 ar
    44   25   28 1
    45   26   27 ar
    46   26   52 1
    47   28   29 2
    48   28   30 1
    49   31   36 ar
    50   31   32 ar
    51   32   33 ar
    52   32   53 1
    53   33   34 ar
    54   33   38 1
    55   34   35 ar
    56   34   54 1
    57   35   36 ar
    58   35   37 1
    59   36   55 1
@<TRIPOS>MOLECULE
ZINC16052171
   56    60     0     0     0
SMALL
USER_CHARGES
5-[[(5S,6R)-6-(4-cyanophenyl)-2-(3,5-dichlorophenyl)-4-methyl-1,3-dioxo-2,4,8-triazaspiro[4.4]nonan-8-yl]methyl]thiophene-3-carboxylic acid
@<TRIPOS>ATOM
      1 C1          4.2584   -1.9207   -0.0541 C.3       1 <0>         0.1139
      2 N1          3.8406   -0.5191   -0.1386 N.am      1 <0>        -0.5974
      3 C2          2.5765   -0.0525   -0.1992 C.2       1 <0>         0.6996
      4 O1          1.5917   -0.7646   -0.1905 O.2       1 <0>        -0.5235
      5 N2          2.5291    1.2845   -0.2694 N.am      1 <0>        -0.5207
      6 C3          3.7669    1.8263   -0.2669 C.2       1 <0>         0.5373
      7 O2          4.0560    3.0022   -0.3246 O.2       1 <0>        -0.4284
      8 C4          4.7099    0.6562   -0.1742 C.3       1 <0>         0.1263
      9 C5          5.6648    0.6151   -1.3739 C.3       1 <0>         0.0360
     10 N3          6.9438    0.1050   -0.8101 N.3       1 <0>        -0.4915
     11 C6          7.0431    0.7524    0.5244 C.3       1 <0>         0.0365
     12 C7          5.5972    0.7413    1.0725 C.3       1 <0>        -0.0422
     13 H1          5.4085   -0.0783    1.7814 H         1 <0>         0.1173
     14 C8          5.3140    2.0112    1.8329 C.ar      1 <0>        -0.0819
     15 C9          5.8630    3.2070    1.4051 C.ar      1 <0>        -0.0757
     16 C10         5.6040    4.3739    2.0937 C.ar      1 <0>        -0.0646
     17 C11         4.7945    4.3447    3.2310 C.ar      1 <0>        -0.0222
     18 C12         4.2480    3.1335    3.6602 C.ar      1 <0>        -0.0720
     19 C13         4.5109    1.9749    2.9591 C.ar      1 <0>        -0.1092
     20 C14         4.5254    5.5513    3.9536 C.1       1 <0>         0.2538
     21 N4          4.3120    6.5086    4.5268 N.1       1 <0>        -0.4153
     22 C15         8.0807    0.4782   -1.6622 C.3       1 <0>         0.1388
     23 C16         9.3692    0.1649   -0.9462 C.2       1 <0>        -0.1998
     24 C17        10.0854   -0.9759   -0.9716 C.2       1 <0>        -0.0721
     25 C18        11.2942   -1.0093   -0.1865 C.2       1 <0>        -0.1640
     26 C19        11.6126    0.1310    0.5232 C.2       1 <0>        -0.1439
     27 S1         10.3200    1.2151    0.1332 S.3       1 <0>         0.0306
     28 C20        12.1497   -2.2044   -0.1441 C.2       1 <0>         0.5029
     29 O3         11.8436   -3.1939   -0.7803 O.co2     1 <0>        -0.6320
     30 O4         13.2736   -2.2027    0.6002 O.co2     1 <0>        -0.7562
     31 C21         1.3430    2.0285   -0.3425 C.ar      1 <0>         0.1670
     32 C22         0.1225    1.3800   -0.4720 C.ar      1 <0>        -0.1250
     33 C23        -1.0452    2.1160   -0.5491 C.ar      1 <0>        -0.0053
     34 C24        -0.9990    3.4975   -0.4863 C.ar      1 <0>        -0.1121
     35 C25         0.2164    4.1461   -0.3568 C.ar      1 <0>        -0.0048
     36 C26         1.3873    3.4147   -0.2850 C.ar      1 <0>        -0.1276
     37 Cl1         0.2710    5.8798   -0.2850 Cl        1 <0>        -0.0451
     38 Cl2        -2.5713    1.3060   -0.7183 Cl        1 <0>        -0.0457
     39 H2          3.3694   -2.5685   -0.0463 H         1 <0>         0.0923
     40 H3          4.8338   -2.0767    0.8703 H         1 <0>         0.0766
     41 H4          4.8857   -2.1693   -0.9228 H         1 <0>         0.0834
     42 H5          5.2576   -0.0568   -2.1438 H         1 <0>         0.1054
     43 H6          5.7736    1.6272   -1.7908 H         1 <0>         0.0724
     44 H7          7.7270    0.1737    1.1627 H         1 <0>         0.1064
     45 H8          7.4285    1.7760    0.4076 H         1 <0>         0.0673
     46 H9          6.4923    3.2275    0.5276 H         1 <0>         0.1364
     47 H10         6.0301    5.3073    1.7565 H         1 <0>         0.1349
     48 H11         3.6207    3.1039    4.5388 H         1 <0>         0.1333
     49 H12         4.0893    1.0374    3.2901 H         1 <0>         0.1317
     50 H13         8.0362   -0.0905   -2.6027 H         1 <0>         0.1028
     51 H14         8.0360    1.5550   -1.8824 H         1 <0>         0.0538
     52 H15         9.7679   -1.8280   -1.5542 H         1 <0>         0.1398
     53 H16        12.4645    0.3062    1.1635 H         1 <0>         0.1859
     54 H17         0.0856    0.3016   -0.5169 H         1 <0>         0.1793
     55 H18        -1.9126    4.0707   -0.5430 H         1 <0>         0.1483
     56 H19         2.3358    3.9214   -0.1846 H         1 <0>         0.1687
@<TRIPOS>BOND
     1    1    2 1
     2    1   39 1
     3    1   40 1
     4    1   41 1
     5    2    8 1
     6    2    3 am
     7    3    4 2
     8    3    5 am
     9    5    6 am
    10    5   31 1
    11    6    7 2
    12    6    8 1
    13    8   12 1
    14    8    9 1
    15    9   10 1
    16    9   42 1
    17    9   43 1
    18   10   11 1
    19   10   22 1
    20   11   12 1
    21   11   44 1
    22   11   45 1
    23   12   13 1
    24   12   14 1
    25   14   19 ar
    26   14   15 ar
    27   15   16 ar
    28   15   46 1
    29   16   17 ar
    30   16   47 1
    31   17   18 ar
    32   17   20 1
    33   18   19 ar
    34   18   48 1
    35   19   49 1
    36   20   21 3
    37   22   23 1
    38   22   50 1
    39   22   51 1
    40   23   27 1
    41   23   24 2
    42   24   25 1
    43   24   52 1
    44   25   26 2
    45   25   28 1
    46   26   27 1
    47   26   53 1
    48   28   29 2
    49   28   30 1
    50   31   36 ar
    51   31   32 ar
    52   32   33 ar
    53   32   54 1
    54   33   34 ar
    55   33   38 1
    56   34   35 ar
    57   34   55 1
    58   35   36 ar
    59   35   37 1
    60   36   56 1
