@<TRIPOS>MOLECULE
ZINC43130513
   56    60     0     0     0
SMALL
USER_CHARGES

@<TRIPOS>ATOM
      1 C1         -0.2137    1.2862   -0.0963 C.3       1 <0>         0.1108
      2 N1         -0.2090   -0.1750    0.0083 N.am      1 <0>        -0.6033
      3 C2         -0.2905   -1.0632   -1.0056 C.2       1 <0>         0.7043
      4 O1         -0.3816   -0.7476   -2.1757 O.2       1 <0>        -0.5017
      5 N2         -0.2587   -2.3322   -0.5755 N.am      1 <0>        -0.5144
      6 C3         -0.1527   -2.3978    0.7712 C.2       1 <0>         0.5428
      7 O2         -0.1000   -3.3943    1.4598 O.2       1 <0>        -0.4269
      8 C4         -0.1089   -0.9679    1.2277 C.3       1 <0>         0.1099
      9 C5         -1.2302   -0.6477    2.2254 C.3       1 <0>         0.1242
     10 N3         -0.6873   -1.0455    3.5401 N.pl3     1 <0>        -0.6109
     11 C6          0.7821   -1.0485    3.4646 C.3       1 <0>         0.0848
     12 C7          1.1697   -0.6540    2.0211 C.3       1 <0>        -0.0396
     13 H1          1.4099    0.4076    1.9622 H         1 <0>         0.1325
     14 C8          2.3220   -1.4917    1.5299 C.ar      1 <0>        -0.0906
     15 C9          3.2644   -0.9370    0.6822 C.ar      1 <0>        -0.0948
     16 C10         4.3218   -1.6981    0.2287 C.ar      1 <0>        -0.0672
     17 C11         4.4399   -3.0311    0.6275 C.ar      1 <0>        -0.0059
     18 C12         3.4855   -3.5843    1.4835 C.ar      1 <0>        -0.0641
     19 C13         2.4359   -2.8104    1.9332 C.ar      1 <0>        -0.1135
     20 C14         5.5347   -3.8273    0.1603 C.1       1 <0>         0.2398
     21 N4          6.4032   -4.4589   -0.2103 N.1       1 <0>        -0.3929
     22 C15        -1.4371   -1.3630    4.6585 C.ar      1 <0>         0.4526
     23 C16        -2.8293   -1.3237    4.5865 C.ar      1 <0>        -0.2052
     24 C17        -3.5680   -1.6381    5.6939 C.ar      1 <0>         0.0666
     25 C18        -2.8904   -1.9920    6.8731 C.ar      1 <0>        -0.1658
     26 C19        -1.4932   -2.0101    6.8726 C.ar      1 <0>         0.1599
     27 N5         -0.8215   -1.7056    5.7825 N.ar      1 <0>        -0.4963
     28 C20        -3.6413   -2.3379    8.0905 C.2       1 <0>         0.5242
     29 O3         -4.8645   -2.3188    8.0810 O.co2     1 <0>        -0.6517
     30 O4         -3.0422   -2.6447    9.1122 O.co2     1 <0>        -0.6602
     31 C21        -0.3276   -3.4518   -1.4166 C.ar      1 <0>         0.1561
     32 C22        -0.1672   -4.7267   -0.8914 C.ar      1 <0>        -0.1262
     33 C23        -0.2355   -5.8292   -1.7227 C.ar      1 <0>        -0.0049
     34 C24        -0.4636   -5.6625   -3.0773 C.ar      1 <0>        -0.1050
     35 C25        -0.6238   -4.3926   -3.6032 C.ar      1 <0>        -0.0044
     36 C26        -0.5620   -3.2875   -2.7749 C.ar      1 <0>        -0.1224
     37 Cl1        -0.9098   -4.1875   -5.3031 Cl        1 <0>        -0.0373
     38 Cl2        -0.0345   -7.4238   -1.0668 Cl        1 <0>        -0.0379
     39 H2          0.8092    1.6458   -0.2080 H         1 <0>         0.0736
     40 H3         -0.8012    1.5866   -0.9638 H         1 <0>         0.0969
     41 H4         -0.6525    1.7136    0.8053 H         1 <0>         0.0867
     42 H5         -1.4553    0.4187    2.2143 H         1 <0>         0.1156
     43 H6         -2.1232   -1.2277    1.9920 H         1 <0>         0.1063
     44 H7          1.1908   -0.3240    4.1691 H         1 <0>         0.1008
     45 H8          1.1627   -2.0443    3.6915 H         1 <0>         0.0988
     46 H9          3.1718    0.0941    0.3746 H         1 <0>         0.1381
     47 H10         5.0564   -1.2642   -0.4335 H         1 <0>         0.1409
     48 H11         3.5709   -4.6146    1.7957 H         1 <0>         0.1404
     49 H12         1.6992   -3.2358    2.5985 H         1 <0>         0.1462
     50 H13        -3.3196   -1.0472    3.6648 H         1 <0>         0.1691
     51 H14        -4.6473   -1.6146    5.6629 H         1 <0>         0.1772
     52 H15        -0.9604   -2.2804    7.7724 H         1 <0>         0.2137
     53 H16         0.0112   -4.8572    0.1657 H         1 <0>         0.1665
     54 H17        -0.5163   -6.5250   -3.7253 H         1 <0>         0.1523
     55 H18        -0.6919   -2.2968   -3.1849 H         1 <0>         0.1782
     56 H19         0.1480   -1.7282    5.8026 H         1 <0>         0.4335
@<TRIPOS>BOND
     1    1    2 1
     2    1   39 1
     3    1   40 1
     4    1   41 1
     5    2    8 1
     6    2    3 am
     7    3    4 2
     8    3    5 am
     9    5    6 am
    10    5   31 1
    11    6    7 2
    12    6    8 1
    13    8   12 1
    14    8    9 1
    15    9   10 1
    16    9   42 1
    17    9   43 1
    18   10   11 1
    19   10   22 1
    20   11   12 1
    21   11   44 1
    22   11   45 1
    23   12   13 1
    24   12   14 1
    25   14   19 ar
    26   14   15 ar
    27   15   16 ar
    28   15   46 1
    29   16   17 ar
    30   16   47 1
    31   17   18 ar
    32   17   20 1
    33   18   19 ar
    34   18   48 1
    35   19   49 1
    36   20   21 3
    37   22   27 ar
    38   22   23 ar
    39   23   24 ar
    40   23   50 1
    41   24   25 ar
    42   24   51 1
    43   25   26 ar
    44   25   28 1
    45   26   27 ar
    46   26   52 1
    47   27   56 1
    48   28   29 2
    49   28   30 1
    50   31   36 ar
    51   31   32 ar
    52   32   33 ar
    53   32   53 1
    54   33   34 ar
    55   33   38 1
    56   34   35 ar
    57   34   54 1
    58   35   36 ar
    59   35   37 1
    60   36   55 1
@<TRIPOS>MOLECULE
ZINC43130513
   55    59     0     0     0
SMALL
USER_CHARGES

@<TRIPOS>ATOM
      1 C1         -0.2137    1.2862   -0.0963 C.3       1 <0>         0.1139
      2 N1         -0.2090   -0.1750    0.0083 N.am      1 <0>        -0.6022
      3 C2         -0.2905   -1.0632   -1.0056 C.2       1 <0>         0.7060
      4 O1         -0.3816   -0.7475   -2.1757 O.2       1 <0>        -0.5189
      5 N2         -0.2587   -2.3322   -0.5755 N.am      1 <0>        -0.5206
      6 C3         -0.1527   -2.3978    0.7712 C.2       1 <0>         0.5427
      7 O2         -0.1000   -3.3943    1.4598 O.2       1 <0>        -0.4173
      8 C4         -0.1089   -0.9679    1.2277 C.3       1 <0>         0.1103
      9 C5         -1.2302   -0.6477    2.2254 C.3       1 <0>         0.1367
     10 N3         -0.6873   -1.0455    3.5401 N.pl3     1 <0>        -0.6152
     11 C6          0.7821   -1.0485    3.4646 C.3       1 <0>         0.1287
     12 C7          1.1697   -0.6540    2.0211 C.3       1 <0>        -0.0519
     13 H1          1.4099    0.4076    1.9622 H         1 <0>         0.1211
     14 C8          2.3220   -1.4917    1.5299 C.ar      1 <0>        -0.0735
     15 C9          3.2644   -0.9370    0.6822 C.ar      1 <0>        -0.1021
     16 C10         4.3218   -1.6982    0.2287 C.ar      1 <0>        -0.0712
     17 C11         4.4399   -3.0311    0.6275 C.ar      1 <0>        -0.0221
     18 C12         3.4855   -3.5843    1.4835 C.ar      1 <0>        -0.0647
     19 C13         2.4358   -2.8104    1.9332 C.ar      1 <0>        -0.1084
     20 C14         5.5347   -3.8273    0.1603 C.1       1 <0>         0.2522
     21 N4          6.4031   -4.4589   -0.2103 N.1       1 <0>        -0.4117
     22 C15        -1.4371   -1.3630    4.6585 C.ar      1 <0>         0.4073
     23 C16        -2.8267   -1.4259    4.5592 C.ar      1 <0>        -0.2453
     24 C17        -3.5654   -1.7401    5.6667 C.ar      1 <0>        -0.0042
     25 C18        -2.8905   -1.9898    6.8736 C.ar      1 <0>        -0.2298
     26 C19        -1.4957   -1.9087    6.8997 C.ar      1 <0>         0.1720
     27 N5         -0.8235   -1.6084    5.8087 N.ar      1 <0>        -0.5460
     28 C20        -3.6415   -2.3311    8.0923 C.2       1 <0>         0.5280
     29 O3         -4.8626   -2.3992    8.0594 O.co2     1 <0>        -0.6905
     30 O4         -3.0447   -2.5468    9.1384 O.co2     1 <0>        -0.6888
     31 C21        -0.3276   -3.4518   -1.4166 C.ar      1 <0>         0.1663
     32 C22        -0.1672   -4.7267   -0.8914 C.ar      1 <0>        -0.1268
     33 C23        -0.2355   -5.8292   -1.7227 C.ar      1 <0>        -0.0038
     34 C24        -0.4636   -5.6625   -3.0774 C.ar      1 <0>        -0.1112
     35 C25        -0.6238   -4.3926   -3.6032 C.ar      1 <0>        -0.0054
     36 C26        -0.5620   -3.2875   -2.7749 C.ar      1 <0>        -0.1254
     37 Cl1        -0.9098   -4.1875   -5.3031 Cl        1 <0>        -0.0463
     38 Cl2        -0.0345   -7.4238   -1.0668 Cl        1 <0>        -0.0423
     39 H2          0.8092    1.6458   -0.2080 H         1 <0>         0.0694
     40 H3         -0.8012    1.5866   -0.9638 H         1 <0>         0.0909
     41 H4         -0.6525    1.7136    0.8053 H         1 <0>         0.0875
     42 H5         -1.4553    0.4187    2.2143 H         1 <0>         0.0898
     43 H6         -2.1232   -1.2277    1.9920 H         1 <0>         0.0864
     44 H7          1.1908   -0.3241    4.1691 H         1 <0>         0.0812
     45 H8          1.1627   -2.0443    3.6915 H         1 <0>         0.0819
     46 H9          3.1718    0.0941    0.3746 H         1 <0>         0.1348
     47 H10         5.0563   -1.2642   -0.4335 H         1 <0>         0.1354
     48 H11         3.5709   -4.6147    1.7957 H         1 <0>         0.1375
     49 H12         1.6992   -3.2358    2.5985 H         1 <0>         0.1534
     50 H13        -3.3151   -1.2281    3.6165 H         1 <0>         0.1177
     51 H14        -4.6428   -1.7946    5.6148 H         1 <0>         0.1355
     52 H15        -0.9650   -2.0984    7.8210 H         1 <0>         0.1633
     53 H16         0.0112   -4.8572    0.1657 H         1 <0>         0.1689
     54 H17        -0.5163   -6.5250   -3.7253 H         1 <0>         0.1488
     55 H18        -0.6919   -2.2968   -3.1849 H         1 <0>         0.1783
@<TRIPOS>BOND
     1    1    2 1
     2    1   39 1
     3    1   40 1
     4    1   41 1
     5    2    8 1
     6    2    3 am
     7    3    4 2
     8    3    5 am
     9    5    6 am
    10    5   31 1
    11    6    7 2
    12    6    8 1
    13    8   12 1
    14    8    9 1
    15    9   10 1
    16    9   42 1
    17    9   43 1
    18   10   11 1
    19   10   22 1
    20   11   12 1
    21   11   44 1
    22   11   45 1
    23   12   13 1
    24   12   14 1
    25   14   19 ar
    26   14   15 ar
    27   15   16 ar
    28   15   46 1
    29   16   17 ar
    30   16   47 1
    31   17   18 ar
    32   17   20 1
    33   18   19 ar
    34   18   48 1
    35   19   49 1
    36   20   21 3
    37   22   27 ar
    38   22   23 ar
    39   23   24 ar
    40   23   50 1
    41   24   25 ar
    42   24   51 1
    43   25   26 ar
    44   25   28 1
    45   26   27 ar
    46   26   52 1
    47   28   29 2
    48   28   30 1
    49   31   36 ar
    50   31   32 ar
    51   32   33 ar
    52   32   53 1
    53   33   34 ar
    54   33   38 1
    55   34   35 ar
    56   34   54 1
    57   35   36 ar
    58   35   37 1
    59   36   55 1
@<TRIPOS>MOLECULE
ZINC13488294
   28    28     0     0     0
SMALL
USER_CHARGES
(2S,3R)-2-[(2-bromobenzoyl)amino]-3-hydroxy-butanoic acid
@<TRIPOS>ATOM
      1 C1         -3.4128    2.5390   -1.2817 C.3       1 <0>        -0.1816
      2 C2         -2.1344    1.7001   -1.2279 C.3       1 <0>         0.1096
      3 H1         -2.3953    0.6425   -1.1887 H         1 <0>         0.0752
      4 C3         -1.3313    2.0738    0.0196 C.3       1 <0>         0.1087
      5 H2         -1.8950    1.7979    0.9108 H         1 <0>         0.1007
      6 C4         -0.0161    1.3381    0.0094 C.2       1 <0>         0.4706
      7 O1          1.0219    1.9564    0.0028 O.co2     1 <0>        -0.6239
      8 N1         -1.0832    3.5176    0.0263 N.am      1 <0>        -0.6854
      9 C5         -0.8633    4.1582    1.1915 C.2       1 <0>         0.5429
     10 O2         -0.8708    3.5379    2.2370 O.2       1 <0>        -0.5114
     11 C6         -0.6130    5.6147    1.1983 C.ar      1 <0>        -0.0938
     12 C7         -0.5978    6.3292   -0.0011 C.ar      1 <0>        -0.0819
     13 C8         -0.3684    7.6890    0.0126 C.ar      1 <0>        -0.1155
     14 C9         -0.1429    8.3445    1.2106 C.ar      1 <0>        -0.1003
     15 C10        -0.1510    7.6429    2.4022 C.ar      1 <0>        -0.1028
     16 C11        -0.3847    6.2817    2.4039 C.ar      1 <0>        -0.0469
     17 Br1        -0.3949    5.3236    4.0341 Br        1 <0>        -0.0124
     18 O3         -1.3486    1.9540   -2.3941 O.3       1 <0>        -0.5547
     19 H3         -3.9849    2.2728   -2.1704 H         1 <0>         0.0550
     20 H4         -4.0122    2.3453   -0.3921 H         1 <0>         0.0647
     21 H5         -3.1519    3.5966   -1.3208 H         1 <0>         0.0589
     22 H6         -1.0772    4.0125   -0.8079 H         1 <0>         0.3935
     23 H7         -0.7692    5.8187   -0.9373 H         1 <0>         0.1339
     24 H8         -0.3603    8.2432   -0.9144 H         1 <0>         0.1323
     25 H9          0.0407    9.4087    1.2147 H         1 <0>         0.1321
     26 H10         0.0260    8.1605    3.3335 H         1 <0>         0.1354
     27 H11        -1.7959    1.7395   -3.2241 H         1 <0>         0.3671
     28 O4          0.0021   -0.0041    0.0020 O.co2     1 <0>        -0.7702
@<TRIPOS>BOND
     1    1    2 1
     2    1   19 1
     3    1   20 1
     4    1   21 1
     5    2    3 1
     6    2    4 1
     7    2   18 1
     8    4    5 1
     9    4    6 1
    10    4    8 1
    11    6    7 2
    12    6   28 1
    13    8    9 am
    14    8   22 1
    15    9   10 2
    16    9   11 1
    17   11   16 ar
    18   11   12 ar
    19   12   13 ar
    20   12   23 1
    21   13   14 ar
    22   13   24 1
    23   14   15 ar
    24   14   25 1
    25   15   16 ar
    26   15   26 1
    27   16   17 1
    28   18   27 1
@<TRIPOS>MOLECULE
ZINC00008854
   31    33     0     0     0
SMALL
USER_CHARGES

@<TRIPOS>ATOM
      1 C1          0.8108    2.2118    0.2149 C.ar      1 <0>        -0.0991
      2 C2          2.1047    2.7266    0.1559 C.ar      1 <0>        -0.1118
      3 C3          3.1846    1.9010    0.0921 C.ar      1 <0>        -0.0974
      4 C4          2.9958    0.5078    0.0858 C.ar      1 <0>        -0.0569
      5 C5          1.6795   -0.0160    0.1463 C.ar      1 <0>        -0.0233
      6 C6          0.5896    0.8689    0.2108 C.ar      1 <0>        -0.1106
      7 C7          1.4859   -1.4083    0.1408 C.ar      1 <0>        -0.1047
      8 C8          2.5577   -2.2420    0.0777 C.ar      1 <0>        -0.0676
      9 C9          3.8611   -1.7349    0.0177 C.ar      1 <0>        -0.1359
     10 C10         4.0872   -0.3738    0.0213 C.ar      1 <0>         0.0246
     11 Cl1         5.7077    0.2441   -0.0541 Cl        1 <0>        -0.0321
     12 S1          5.2265   -2.8457   -0.0631 S.3       1 <0>         0.0279
     13 C11         5.7268   -2.7840   -1.7515 C.ar      1 <0>        -0.1489
     14 C12         4.9788   -2.0608   -2.6717 C.ar      1 <0>        -0.0590
     15 C13         5.3708   -2.0125   -3.9947 C.ar      1 <0>        -0.1747
     16 C14         6.5133   -2.6869   -4.4061 C.ar      1 <0>         0.2283
     17 C15         7.2619   -3.4102   -3.4869 C.ar      1 <0>        -0.1756
     18 C16         6.8733   -3.4544   -2.1618 C.ar      1 <0>         0.0332
     19 Cl2         7.8128   -4.3525   -1.0109 Cl        1 <0>        -0.0512
     20 N1          6.9098   -2.6378   -5.7475 N.pl3     1 <0>        -0.8727
     21 H1         -0.0289    2.8889    0.2691 H         1 <0>         0.1297
     22 H2          2.2524    3.7965    0.1606 H         1 <0>         0.1300
     23 H3          4.1815    2.3139    0.0461 H         1 <0>         0.1344
     24 H4         -0.4188    0.4850    0.2573 H         1 <0>         0.1349
     25 H5          0.4865   -1.8152    0.1870 H         1 <0>         0.1401
     26 H6          2.4015   -3.3107    0.0743 H         1 <0>         0.1433
     27 H7          4.0902   -1.5366   -2.3524 H         1 <0>         0.1264
     28 H8          4.7888   -1.4504   -4.7100 H         1 <0>         0.1287
     29 H9          8.1497   -3.9351   -3.8072 H         1 <0>         0.1367
     30 H10         6.3869   -2.1329   -6.3897 H         1 <0>         0.4018
     31 H11         7.7076   -3.1088   -6.0349 H         1 <0>         0.4014
@<TRIPOS>BOND
     1    1    6 ar
     2    1    2 ar
     3    1   21 1
     4    2    3 ar
     5    2   22 1
     6    3    4 ar
     7    3   23 1
     8    4   10 ar
     9    4    5 ar
    10    5    6 ar
    11    5    7 ar
    12    6   24 1
    13    7    8 ar
    14    7   25 1
    15    8    9 ar
    16    8   26 1
    17    9   10 ar
    18    9   12 1
    19   10   11 1
    20   12   13 1
    21   13   18 ar
    22   13   14 ar
    23   14   15 ar
    24   14   27 1
    25   15   16 ar
    26   15   28 1
    27   16   17 ar
    28   16   20 1
    29   17   18 ar
    30   17   29 1
    31   18   19 1
    32   20   30 1
    33   20   31 1
@<TRIPOS>MOLECULE
ZINC00602716
   59    61     0     0     0
SMALL
USER_CHARGES

@<TRIPOS>ATOM
      1 C1         -7.3013    3.9490   11.9687 C.3       1 <0>        -0.1439
      2 C2         -6.4658    2.6904   11.7264 C.3       1 <0>        -0.0568
      3 C3         -6.5834    1.7597   12.9350 C.3       1 <0>        -0.1443
      4 C4         -6.9702    1.9818   10.4957 C.ar      1 <0>        -0.0455
      5 C5         -8.2744    1.5306   10.4435 C.ar      1 <0>        -0.0952
      6 C6         -8.7380    0.8799    9.3148 C.ar      1 <0>        -0.1163
      7 C7         -7.8980    0.6789    8.2343 C.ar      1 <0>        -0.1041
      8 C8         -6.5946    1.1320    8.2774 C.ar      1 <0>        -0.1312
      9 C9         -6.1235    1.7813    9.4124 C.ar      1 <0>        -0.0899
     10 S1         -4.4588    2.3553    9.4745 S.3       1 <0>         0.0557
     11 C10        -3.7429    1.7490    7.9830 C.ar      1 <0>        -0.0930
     12 C11        -3.5471    2.6109    6.9058 C.ar      1 <0>        -0.0613
     13 C12        -2.9926    2.1450    5.7481 C.ar      1 <0>        -0.0673
     14 C13        -2.6205    0.7984    5.6444 C.ar      1 <0>        -0.0418
     15 C14        -2.8239   -0.0659    6.7276 C.ar      1 <0>        -0.0421
     16 C15        -3.3739    0.4094    7.8841 C.ar      1 <0>        -0.0031
     17 N1         -3.5837   -0.5017    9.0317 N.pl3     1 <0>         0.0179
     18 O1         -3.2613   -1.6732    8.9462 O.2       1 <0>        -0.1662
     19 O2         -4.0788   -0.0800   10.0616 O.3       1 <0>        -0.1103
     20 C16        -2.0242    0.2929    4.4010 C.2       1 <0>        -0.0260
     21 C17        -1.8340    1.1268    3.3554 C.2       1 <0>        -0.1934
     22 C18        -1.2406    0.6237    2.1179 C.2       1 <0>         0.5495
     23 O3         -1.0011   -0.5636    1.9966 O.2       1 <0>        -0.5319
     24 N2         -0.9587    1.4744    1.1113 N.am      1 <0>        -0.6090
     25 C19        -0.2585    1.0035   -0.0920 C.3       1 <0>         0.0982
     26 C20        -1.1022    1.3552   -1.3235 C.3       1 <0>         0.0965
     27 N3         -1.4904    2.7701   -1.2384 N.am      1 <0>        -0.6184
     28 C21        -2.1943    3.2404   -0.0371 C.3       1 <0>         0.0911
     29 C22        -1.3506    2.8887    1.1945 C.3       1 <0>         0.0888
     30 C23        -1.2055    3.6212   -2.2439 C.2       1 <0>         0.5135
     31 O4         -0.6238    3.2216   -3.2302 O.2       1 <0>        -0.5388
     32 C24        -1.6098    5.0694   -2.1425 C.3       1 <0>        -0.1754
     33 H1         -8.3452    3.6701   12.1123 H         1 <0>         0.0587
     34 H2         -6.9364    4.4615   12.8589 H         1 <0>         0.0620
     35 H3         -7.2175    4.6121   11.1077 H         1 <0>         0.0564
     36 H4         -5.4219    2.9694   11.5828 H         1 <0>         0.0802
     37 H5         -5.9881    0.8630   12.7624 H         1 <0>         0.0640
     38 H6         -6.2185    2.2722   13.8251 H         1 <0>         0.0609
     39 H7         -7.6272    1.4807   13.0786 H         1 <0>         0.0572
     40 H8         -8.9331    1.6864   11.2851 H         1 <0>         0.1301
     41 H9         -9.7583    0.5281    9.2768 H         1 <0>         0.1267
     42 H10        -8.2636    0.1707    7.3543 H         1 <0>         0.1236
     43 H11        -5.9406    0.9784    7.4318 H         1 <0>         0.1091
     44 H12        -3.8346    3.6488    6.9865 H         1 <0>         0.1613
     45 H13        -2.8415    2.8136    4.9136 H         1 <0>         0.1523
     46 H14        -2.5425   -1.1057    6.6500 H         1 <0>         0.1646
     47 H15        -1.7379   -0.7455    4.3226 H         1 <0>         0.1484
     48 H16        -2.1204    2.1652    3.4337 H         1 <0>         0.1362
     49 H17        -0.1233   -0.0767   -0.0374 H         1 <0>         0.1084
     50 H18         0.7140    1.4907   -0.1635 H         1 <0>         0.0762
     51 H19        -0.5161    1.1904   -2.2277 H         1 <0>         0.1075
     52 H20        -1.9942    0.7292   -1.3467 H         1 <0>         0.0744
     53 H21        -2.3294    4.3206   -0.0917 H         1 <0>         0.1033
     54 H22        -3.1669    2.7530    0.0313 H         1 <0>         0.0783
     55 H23        -0.4570    3.5126    1.2160 H         1 <0>         0.0804
     56 H24        -1.9357    3.0564    2.0987 H         1 <0>         0.0999
     57 H25        -1.1319    5.5200   -1.2727 H         1 <0>         0.0895
     58 H26        -1.2973    5.5978   -3.0433 H         1 <0>         0.0950
     59 H27        -2.6927    5.1379   -2.0384 H         1 <0>         0.0897
@<TRIPOS>BOND
     1    1    2 1
     2    1   33 1
     3    1   34 1
     4    1   35 1
     5    2    3 1
     6    2    4 1
     7    2   36 1
     8    3   37 1
     9    3   38 1
    10    3   39 1
    11    4    9 ar
    12    4    5 ar
    13    5    6 ar
    14    5   40 1
    15    6    7 ar
    16    6   41 1
    17    7    8 ar
    18    7   42 1
    19    8    9 ar
    20    8   43 1
    21    9   10 1
    22   10   11 1
    23   11   16 ar
    24   11   12 ar
    25   12   13 ar
    26   12   44 1
    27   13   14 ar
    28   13   45 1
    29   14   15 ar
    30   14   20 1
    31   15   16 ar
    32   15   46 1
    33   16   17 1
    34   17   18 2
    35   17   19 1
    36   20   21 2
    37   20   47 1
    38   21   22 1
    39   21   48 1
    40   22   23 2
    41   22   24 am
    42   24   29 1
    43   24   25 1
    44   25   26 1
    45   25   49 1
    46   25   50 1
    47   26   27 1
    48   26   51 1
    49   26   52 1
    50   27   28 1
    51   27   30 am
    52   28   29 1
    53   28   53 1
    54   28   54 1
    55   29   55 1
    56   29   56 1
    57   30   31 2
    58   30   32 1
    59   32   57 1
    60   32   58 1
    61   32   59 1
@<TRIPOS>MOLECULE
ZINC16052171
   56    60     0     0     0
SMALL
USER_CHARGES
5-[[(5S,6R)-6-(4-cyanophenyl)-2-(3,5-dichlorophenyl)-4-methyl-1,3-dioxo-2,4,8-triazaspiro[4.4]nonan-8-yl]methyl]thiophene-3-carboxylic acid
@<TRIPOS>ATOM
      1 C1          4.2584   -1.9207   -0.0541 C.3       1 <0>         0.1139
      2 N1          3.8406   -0.5191   -0.1386 N.am      1 <0>        -0.5974
      3 C2          2.5765   -0.0525   -0.1992 C.2       1 <0>         0.6996
      4 O1          1.5917   -0.7646   -0.1905 O.2       1 <0>        -0.5235
      5 N2          2.5291    1.2845   -0.2694 N.am      1 <0>        -0.5207
      6 C3          3.7669    1.8263   -0.2669 C.2       1 <0>         0.5373
      7 O2          4.0560    3.0022   -0.3246 O.2       1 <0>        -0.4284
      8 C4          4.7099    0.6562   -0.1742 C.3       1 <0>         0.1263
      9 C5          5.6648    0.6151   -1.3739 C.3       1 <0>         0.0360
     10 N3          6.9438    0.1050   -0.8101 N.3       1 <0>        -0.4915
     11 C6          7.0431    0.7524    0.5244 C.3       1 <0>         0.0365
     12 C7          5.5972    0.7413    1.0725 C.3       1 <0>        -0.0422
     13 H1          5.4085   -0.0783    1.7814 H         1 <0>         0.1173
     14 C8          5.3140    2.0112    1.8329 C.ar      1 <0>        -0.0819
     15 C9          5.8630    3.2070    1.4051 C.ar      1 <0>        -0.0757
     16 C10         5.6040    4.3739    2.0937 C.ar      1 <0>        -0.0646
     17 C11         4.7945    4.3447    3.2310 C.ar      1 <0>        -0.0222
     18 C12         4.2480    3.1335    3.6602 C.ar      1 <0>        -0.0720
     19 C13         4.5109    1.9749    2.9591 C.ar      1 <0>        -0.1092
     20 C14         4.5254    5.5513    3.9536 C.1       1 <0>         0.2538
     21 N4          4.3120    6.5086    4.5268 N.1       1 <0>        -0.4153
     22 C15         8.0807    0.4782   -1.6622 C.3       1 <0>         0.1388
     23 C16         9.3692    0.1649   -0.9462 C.2       1 <0>        -0.1998
     24 C17        10.0854   -0.9759   -0.9716 C.2       1 <0>        -0.0721
     25 C18        11.2942   -1.0093   -0.1865 C.2       1 <0>        -0.1640
     26 C19        11.6126    0.1310    0.5232 C.2       1 <0>        -0.1439
     27 S1         10.3200    1.2151    0.1332 S.3       1 <0>         0.0306
     28 C20        12.1497   -2.2044   -0.1441 C.2       1 <0>         0.5029
     29 O3         11.8436   -3.1939   -0.7803 O.co2     1 <0>        -0.6320
     30 O4         13.2736   -2.2027    0.6002 O.co2     1 <0>        -0.7562
     31 C21         1.3430    2.0285   -0.3425 C.ar      1 <0>         0.1670
     32 C22         0.1225    1.3800   -0.4720 C.ar      1 <0>        -0.1250
     33 C23        -1.0452    2.1160   -0.5491 C.ar      1 <0>        -0.0053
     34 C24        -0.9990    3.4975   -0.4863 C.ar      1 <0>        -0.1121
     35 C25         0.2164    4.1461   -0.3568 C.ar      1 <0>        -0.0048
     36 C26         1.3873    3.4147   -0.2850 C.ar      1 <0>        -0.1276
     37 Cl1         0.2710    5.8798   -0.2850 Cl        1 <0>        -0.0451
     38 Cl2        -2.5713    1.3060   -0.7183 Cl        1 <0>        -0.0457
     39 H2          3.3694   -2.5685   -0.0463 H         1 <0>         0.0923
     40 H3          4.8338   -2.0767    0.8703 H         1 <0>         0.0766
     41 H4          4.8857   -2.1693   -0.9228 H         1 <0>         0.0834
     42 H5          5.2576   -0.0568   -2.1438 H         1 <0>         0.1054
     43 H6          5.7736    1.6272   -1.7908 H         1 <0>         0.0724
     44 H7          7.7270    0.1737    1.1627 H         1 <0>         0.1064
     45 H8          7.4285    1.7760    0.4076 H         1 <0>         0.0673
     46 H9          6.4923    3.2275    0.5276 H         1 <0>         0.1364
     47 H10         6.0301    5.3073    1.7565 H         1 <0>         0.1349
     48 H11         3.6207    3.1039    4.5388 H         1 <0>         0.1333
     49 H12         4.0893    1.0374    3.2901 H         1 <0>         0.1317
     50 H13         8.0362   -0.0905   -2.6027 H         1 <0>         0.1028
     51 H14         8.0360    1.5550   -1.8824 H         1 <0>         0.0538
     52 H15         9.7679   -1.8280   -1.5542 H         1 <0>         0.1398
     53 H16        12.4645    0.3062    1.1635 H         1 <0>         0.1859
     54 H17         0.0856    0.3016   -0.5169 H         1 <0>         0.1793
     55 H18        -1.9126    4.0707   -0.5430 H         1 <0>         0.1483
     56 H19         2.3358    3.9214   -0.1846 H         1 <0>         0.1687
@<TRIPOS>BOND
     1    1    2 1
     2    1   39 1
     3    1   40 1
     4    1   41 1
     5    2    8 1
     6    2    3 am
     7    3    4 2
     8    3    5 am
     9    5    6 am
    10    5   31 1
    11    6    7 2
    12    6    8 1
    13    8   12 1
    14    8    9 1
    15    9   10 1
    16    9   42 1
    17    9   43 1
    18   10   11 1
    19   10   22 1
    20   11   12 1
    21   11   44 1
    22   11   45 1
    23   12   13 1
    24   12   14 1
    25   14   19 ar
    26   14   15 ar
    27   15   16 ar
    28   15   46 1
    29   16   17 ar
    30   16   47 1
    31   17   18 ar
    32   17   20 1
    33   18   19 ar
    34   18   48 1
    35   19   49 1
    36   20   21 3
    37   22   23 1
    38   22   50 1
    39   22   51 1
    40   23   27 1
    41   23   24 2
    42   24   25 1
    43   24   52 1
    44   25   26 2
    45   25   28 1
    46   26   27 1
    47   26   53 1
    48   28   29 2
    49   28   30 1
    50   31   36 ar
    51   31   32 ar
    52   32   33 ar
    53   32   54 1
    54   33   34 ar
    55   33   38 1
    56   34   35 ar
    57   34   55 1
    58   35   36 ar
    59   35   37 1
    60   36   56 1
@<TRIPOS>MOLECULE
ZINC03369679
   31    31     0     0     0
SMALL
USER_CHARGES
2-(2-bromobenzoyl)amino-4-methylsulfanyl-butanoic acid
@<TRIPOS>ATOM
      1 C1         -1.2097   -5.3645   -4.5477 C.3       1 <0>        -0.1213
      2 S1         -1.6317   -5.7229   -2.8203 S.3       1 <0>        -0.2716
      3 C2         -1.9031   -4.0865   -2.0862 C.3       1 <0>        -0.0759
      4 C3         -2.2715   -4.2446   -0.6096 C.3       1 <0>        -0.0925
      5 C4         -2.5003   -2.8643    0.0096 C.3       1 <0>         0.1095
      6 H1         -3.2501   -2.3259   -0.5701 H         1 <0>         0.0934
      7 C5         -2.9819   -3.0239    1.4286 C.2       1 <0>         0.4603
      8 O1         -2.3412   -2.5566    2.3402 O.co2     1 <0>        -0.6246
      9 N1         -1.2437   -2.1113    0.0021 N.am      1 <0>        -0.6948
     10 C6         -1.2656   -0.7637    0.0096 C.2       1 <0>         0.5453
     11 O2         -2.3280   -0.1732    0.0225 O.2       1 <0>        -0.5073
     12 C7          0.0021   -0.0041    0.0020 C.ar      1 <0>        -0.0953
     13 C8          1.2241   -0.6791   -0.0133 C.ar      1 <0>        -0.0826
     14 C9          2.4034    0.0357   -0.0207 C.ar      1 <0>        -0.1152
     15 C10         2.3782    1.4196   -0.0130 C.ar      1 <0>        -0.0996
     16 C11         1.1719    2.0955    0.0021 C.ar      1 <0>        -0.1023
     17 C12        -0.0169    1.3924    0.0097 C.ar      1 <0>        -0.0468
     18 Br1        -1.6658    2.3181    0.0226 Br        1 <0>        -0.0118
     19 H2         -1.0264   -6.2988   -5.0783 H         1 <0>         0.0978
     20 H3         -2.0360   -4.8340   -5.0210 H         1 <0>         0.0738
     21 H4         -0.3133   -4.7453   -4.5818 H         1 <0>         0.0726
     22 H5         -2.7148   -3.5828   -2.6112 H         1 <0>         0.0812
     23 H6         -0.9921   -3.4942   -2.1720 H         1 <0>         0.0772
     24 H7         -1.4598   -4.7483   -0.0846 H         1 <0>         0.0713
     25 H8         -3.1825   -4.8369   -0.5238 H         1 <0>         0.0986
     26 H9         -0.3960   -2.5826   -0.0082 H         1 <0>         0.3891
     27 H10         1.2458   -1.7589   -0.0196 H         1 <0>         0.1335
     28 H11         3.3492   -0.4856   -0.0329 H         1 <0>         0.1325
     29 H12         3.3049    1.9741   -0.0189 H         1 <0>         0.1324
     30 H13         1.1593    3.1754    0.0077 H         1 <0>         0.1357
     31 O3         -4.1226   -3.6853    1.6799 O.co2     1 <0>        -0.7627
@<TRIPOS>BOND
     1    1    2 1
     2    1   19 1
     3    1   20 1
     4    1   21 1
     5    2    3 1
     6    3    4 1
     7    3   22 1
     8    3   23 1
     9    4    5 1
    10    4   24 1
    11    4   25 1
    12    5    6 1
    13    5    7 1
    14    5    9 1
    15    7    8 2
    16    7   31 1
    17    9   10 am
    18    9   26 1
    19   10   11 2
    20   10   12 1
    21   12   17 ar
    22   12   13 ar
    23   13   14 ar
    24   13   27 1
    25   14   15 ar
    26   14   28 1
    27   15   16 ar
    28   15   29 1
    29   16   17 ar
    30   16   30 1
    31   17   18 1
@<TRIPOS>MOLECULE
ZINC03070330
   24    24     0     0     0
SMALL
USER_CHARGES
2-(2-bromobenzoyl)aminopropanoic acid
@<TRIPOS>ATOM
      1 C1          0.5222    3.6385   -1.2327 C.3       1 <0>        -0.1371
      2 C2          1.2350    3.0943    0.0069 C.3       1 <0>         0.0963
      3 H1          0.7441    3.4725    0.9036 H         1 <0>         0.0913
      4 C3          1.1765    1.5884   -0.0006 C.2       1 <0>         0.4639
      5 O1          2.1986    0.9442   -0.0139 O.co2     1 <0>        -0.6365
      6 N1          2.6340    3.5287   -0.0041 N.am      1 <0>        -0.6922
      7 C4          2.9686    4.7362    0.4925 C.2       1 <0>         0.5366
      8 O2          2.1096    5.4647    0.9495 O.2       1 <0>        -0.5210
      9 C5          4.3800    5.1744    0.4813 C.ar      1 <0>        -0.1019
     10 C6          5.3700    4.3379   -0.0376 C.ar      1 <0>        -0.0799
     11 C7          6.6845    4.7549   -0.0493 C.ar      1 <0>        -0.1143
     12 C8          7.0255    5.9954    0.4613 C.ar      1 <0>        -0.0977
     13 C9          6.0514    6.8275    0.9817 C.ar      1 <0>        -0.1041
     14 C10         4.7303    6.4250    0.9951 C.ar      1 <0>        -0.0468
     15 Br1         3.3994    7.5638    1.7077 Br        1 <0>        -0.0145
     16 H2          0.5644    4.7277   -1.2273 H         1 <0>         0.0492
     17 H3          1.0130    3.2604   -2.1295 H         1 <0>         0.0472
     18 H4         -0.5188    3.3153   -1.2245 H         1 <0>         0.0718
     19 H5          3.3195    2.9474   -0.3688 H         1 <0>         0.4017
     20 H6          5.1065    3.3677   -0.4323 H         1 <0>         0.1391
     21 H7          7.4505    4.1099   -0.4539 H         1 <0>         0.1341
     22 H8          8.0572    6.3147    0.4535 H         1 <0>         0.1330
     23 H9          6.3243    7.7941    1.3789 H         1 <0>         0.1356
     24 O3         -0.0110    0.9628    0.0073 O.co2     1 <0>        -0.7540
@<TRIPOS>BOND
     1    1    2 1
     2    1   16 1
     3    1   17 1
     4    1   18 1
     5    2    3 1
     6    2    4 1
     7    2    6 1
     8    4    5 2
     9    4   24 1
    10    6    7 am
    11    6   19 1
    12    7    8 2
    13    7    9 1
    14    9   14 ar
    15    9   10 ar
    16   10   11 ar
    17   10   20 1
    18   11   12 ar
    19   11   21 1
    20   12   13 ar
    21   12   22 1
    22   13   14 ar
    23   13   23 1
    24   14   15 1
@<TRIPOS>MOLECULE
ZINC05280391
   38    40     0     0     0
SMALL
USER_CHARGES
2-(2-bromobenzoyl)amino-3-(1H-indol-3-yl)propanoic acid
@<TRIPOS>ATOM
      1 C1          1.1843    1.7793    0.0003 C.ar      1 <0>        -0.1482
      2 C2         -0.0126    1.0758    0.0080 C.ar      1 <0>        -0.1039
      3 C3         -1.2186    1.7413    0.0173 C.ar      1 <0>        -0.1315
      4 C4         -1.2402    3.1323    0.0298 C.ar      1 <0>         0.0944
      5 C5         -0.0248    3.8404    0.0215 C.ar      1 <0>        -0.0931
      6 C6          1.1863    3.1455    0.0067 C.ar      1 <0>        -0.0711
      7 C7         -0.3836    5.2606    0.0312 C.2       1 <0>        -0.1521
      8 C8         -1.7244    5.3265    0.0441 C.2       1 <0>         0.0475
      9 N1         -2.2533    4.0646    0.0434 N.pl3     1 <0>        -0.5972
     10 H1         -3.2010    3.8576    0.0514 H         1 <0>         0.4125
     11 C9          0.5711    6.4266    0.0274 C.3       1 <0>        -0.0399
     12 C10         0.9780    6.7478   -1.4121 C.3       1 <0>         0.1121
     13 H2          0.0845    6.9158   -2.0133 H         1 <0>         0.0897
     14 C11         1.8342    7.9879   -1.4272 C.2       1 <0>         0.4590
     15 O1          2.9620    7.9382   -1.8578 O.co2     1 <0>        -0.6263
     16 N2          1.7363    5.6241   -1.9676 N.am      1 <0>        -0.6860
     17 C12         1.7707    5.4277   -3.3005 C.2       1 <0>         0.5456
     18 O2          1.1725    6.1829   -4.0418 O.2       1 <0>        -0.5121
     19 C13         2.5356    4.2941   -3.8609 C.ar      1 <0>        -0.0920
     20 C14         3.2286    3.4282   -3.0128 C.ar      1 <0>        -0.0798
     21 C15         3.9365    2.3695   -3.5418 C.ar      1 <0>        -0.1141
     22 C16         3.9702    2.1700   -4.9111 C.ar      1 <0>        -0.1010
     23 C17         3.2908    3.0264   -5.7580 C.ar      1 <0>        -0.1033
     24 C18         2.5735    4.0876   -5.2416 C.ar      1 <0>        -0.0470
     25 Br1         1.6454    5.2582   -6.4011 Br        1 <0>        -0.0141
     26 H3          2.1212    1.2423   -0.0112 H         1 <0>         0.1194
     27 H4          0.0021   -0.0041    0.0020 H         1 <0>         0.1202
     28 H5         -2.1443    1.1850    0.0191 H         1 <0>         0.1147
     29 H6          2.1212    3.6861    0.0007 H         1 <0>         0.1149
     30 H7         -2.3002    6.2401    0.0532 H         1 <0>         0.1715
     31 H8          0.0849    7.2958    0.4701 H         1 <0>         0.0965
     32 H9          1.4581    6.1717    0.6074 H         1 <0>         0.0681
     33 H10         2.2136    5.0215   -1.3761 H         1 <0>         0.3857
     34 H11         3.2071    3.5849   -1.9444 H         1 <0>         0.1299
     35 H12         4.4698    1.6969   -2.8863 H         1 <0>         0.1318
     36 H13         4.5300    1.3418   -5.3200 H         1 <0>         0.1315
     37 H14         3.3216    2.8652   -6.8255 H         1 <0>         0.1344
     38 O3          1.3438    9.1477   -0.9623 O.co2     1 <0>        -0.7669
@<TRIPOS>BOND
     1    1    6 ar
     2    1    2 ar
     3    1   26 1
     4    2    3 ar
     5    2   27 1
     6    3    4 ar
     7    3   28 1
     8    4    9 1
     9    4    5 ar
    10    5    6 ar
    11    5    7 1
    12    6   29 1
    13    7    8 2
    14    7   11 1
    15    8    9 1
    16    8   30 1
    17    9   10 1
    18   11   12 1
    19   11   31 1
    20   11   32 1
    21   12   13 1
    22   12   14 1
    23   12   16 1
    24   14   15 2
    25   14   38 1
    26   16   17 am
    27   16   33 1
    28   17   18 2
    29   17   19 1
    30   19   24 ar
    31   19   20 ar
    32   20   21 ar
    33   20   34 1
    34   21   22 ar
    35   21   35 1
    36   22   23 ar
    37   22   36 1
    38   23   24 ar
    39   23   37 1
    40   24   25 1
@<TRIPOS>MOLECULE
ZINC13488291
   28    28     0     0     0
SMALL
USER_CHARGES
(2S)-4-amino-2-[(2-bromobenzoyl)amino]-4-oxo-butanoic acid
@<TRIPOS>ATOM
      1 C1          6.6748    4.7858   -0.0690 C.ar      1 <0>        -0.1163
      2 C2          7.3758    4.8840    1.1204 C.ar      1 <0>        -0.1020
      3 C3          6.7617    4.5744    2.3201 C.ar      1 <0>        -0.1026
      4 C4          5.4428    4.1645    2.3384 C.ar      1 <0>        -0.0470
      5 C5          4.7302    4.0635    1.1415 C.ar      1 <0>        -0.0900
      6 C6          5.3590    4.3728   -0.0660 C.ar      1 <0>        -0.0819
      7 C7          3.3188    3.6252    1.1527 C.2       1 <0>         0.5517
      8 O1          2.7756    3.3517    2.2052 O.2       1 <0>        -0.5092
      9 N1          2.6340    3.5287   -0.0041 N.am      1 <0>        -0.6844
     10 C8          1.2350    3.0943    0.0069 C.3       1 <0>         0.1211
     11 H1          0.7441    3.4725    0.9036 H         1 <0>         0.0986
     12 C9          0.5222    3.6385   -1.2327 C.3       1 <0>        -0.1346
     13 C10         0.4729    5.1432   -1.1638 C.2       1 <0>         0.5121
     14 O2          0.9600    5.7231   -0.2165 O.2       1 <0>        -0.5316
     15 N2         -0.1124    5.8443   -2.1549 N.am      1 <0>        -0.8628
     16 C11         1.1765    1.5884   -0.0006 C.2       1 <0>         0.4594
     17 O3          2.1986    0.9442   -0.0139 O.co2     1 <0>        -0.6222
     18 Br1         4.6045    3.7408    3.9796 Br        1 <0>        -0.0125
     19 H2          7.1608    5.0289   -1.0023 H         1 <0>         0.1312
     20 H3          8.4074    5.2037    1.1115 H         1 <0>         0.1315
     21 H4          7.3145    4.6528    3.2445 H         1 <0>         0.1350
     22 H5          4.8149    4.2924   -0.9955 H         1 <0>         0.1314
     23 H6          3.0675    3.7470   -0.8440 H         1 <0>         0.3848
     24 H7          1.0650    3.3334   -2.1273 H         1 <0>         0.0923
     25 H8         -0.4929    3.2432   -1.2710 H         1 <0>         0.1187
     26 H9         -0.5019    5.3805   -2.9125 H         1 <0>         0.3997
     27 H10        -0.1441    6.8128   -2.1105 H         1 <0>         0.3951
     28 O4         -0.0110    0.9628    0.0073 O.co2     1 <0>        -0.7655
@<TRIPOS>BOND
     1    1    6 ar
     2    1    2 ar
     3    1   19 1
     4    2    3 ar
     5    2   20 1
     6    3    4 ar
     7    3   21 1
     8    4    5 ar
     9    4   18 1
    10    5    6 ar
    11    5    7 1
    12    6   22 1
    13    7    8 2
    14    7    9 am
    15    9   10 1
    16    9   23 1
    17   10   11 1
    18   10   12 1
    19   10   16 1
    20   12   13 1
    21   12   24 1
    22   12   25 1
    23   13   14 2
    24   13   15 am
    25   15   26 1
    26   15   27 1
    27   16   17 2
    28   16   28 1
@<TRIPOS>MOLECULE
ZINC20016357
   31    32     0     0     0
SMALL
USER_CHARGES
(2S)-2-[(2-chloro-6-fluoro-benzoyl)amino]-3-(1H-imidazol-4-yl)propanoic acid
@<TRIPOS>ATOM
      1 C1         -6.9539   -0.1290   -2.0929 C.ar      1 <0>        -0.0684
      2 C2         -6.0273   -0.4270   -3.0753 C.ar      1 <0>        -0.1562
      3 C3         -4.7657    0.1365   -3.0338 C.ar      1 <0>         0.1507
      4 C4         -4.4282    1.0096   -1.9941 C.ar      1 <0>        -0.1449
      5 C5         -5.3692    1.2999   -1.0024 C.ar      1 <0>         0.0176
      6 C6         -6.6270    0.7335   -1.0618 C.ar      1 <0>        -0.1288
      7 Cl1        -4.9599    2.3758    0.2971 Cl        1 <0>        -0.0414
      8 C7         -3.0835    1.6162   -1.9415 C.2       1 <0>         0.5701
      9 O1         -2.8746    2.6801   -2.4916 O.2       1 <0>        -0.5318
     10 N1         -2.0873    0.9906   -1.2837 N.am      1 <0>        -0.6905
     11 C8         -0.7527    1.5927   -1.2315 C.3       1 <0>         0.1100
     12 H1         -0.8826    2.6844   -1.1952 H         1 <0>         0.0823
     13 C9         -0.0127    1.0858    0.0080 C.3       1 <0>        -0.0425
     14 C10        -0.7181    1.5718    1.2479 C.2       1 <0>        -0.0283
     15 C11        -1.1746    0.8000    2.2526 C.2       1 <0>        -0.0276
     16 N2         -1.7412    1.6409    3.1721 N.2       1 <0>        -0.4977
     17 H2         -0.7222    3.6507    0.8447 H         1 <0>         0.4470
     18 C12        -1.6193    2.8975    2.6926 C.2       1 <0>         0.1657
     19 N3         -1.0064    2.8484    1.5415 N.pl3     1 <0>        -0.5243
     20 C13         0.0192    1.2112   -2.4683 C.2       1 <0>         0.4569
     21 O2         -0.4929    0.5086   -3.3073 O.co2     1 <0>        -0.6177
     22 O3          1.2756    1.6520   -2.6379 O.co2     1 <0>        -0.7649
     23 F1         -3.8615   -0.1546   -3.9945 F         1 <0>        -0.1096
     24 H3         -7.9380   -0.5724   -2.1307 H         1 <0>         0.1444
     25 H4         -6.2900   -1.1013   -3.8769 H         1 <0>         0.1464
     26 H5         -7.3565    0.9610   -0.2986 H         1 <0>         0.1430
     27 H6         -2.2762    0.0280   -0.7860 H         1 <0>         0.4123
     28 H7          0.0022   -0.0141    0.0019 H         1 <0>         0.0899
     29 H8          1.0193    1.4665    0.0002 H         1 <0>         0.1019
     30 H9         -1.0569   -0.1923    2.2140 H         1 <0>         0.1533
     31 H10        -1.9771    3.6698    3.2174 H         1 <0>         0.1831
@<TRIPOS>BOND
     1    1    6 ar
     2    1    2 ar
     3    1   24 1
     4    2    3 ar
     5    2   25 1
     6    3    4 ar
     7    3   23 1
     8    4    5 ar
     9    4    8 1
    10    5    6 ar
    11    5    7 1
    12    6   26 1
    13    8    9 2
    14    8   10 am
    15   10   11 1
    16   10   27 1
    17   11   12 1
    18   11   13 1
    19   11   20 1
    20   13   14 1
    21   13   28 1
    22   13   29 1
    23   14   19 1
    24   14   15 2
    25   15   16 1
    26   15   30 1
    27   16   18 2
    28   17   19 1
    29   18   31 1
    30   18   19 1
    31   20   21 2
    32   20   22 1
@<TRIPOS>MOLECULE
ZINC20016357
   32    33     0     0     0
SMALL
USER_CHARGES
(2S)-2-[(2-chloro-6-fluoro-benzoyl)amino]-3-(1H-imidazol-4-yl)propanoic acid
@<TRIPOS>ATOM
      1 C1         -6.9539   -0.1290   -2.0929 C.ar      1 <0>        -0.0621
      2 C2         -6.0273   -0.4270   -3.0753 C.ar      1 <0>        -0.1492
      3 C3         -4.7657    0.1365   -3.0338 C.ar      1 <0>         0.1548
      4 C4         -4.4282    1.0096   -1.9941 C.ar      1 <0>        -0.1518
      5 C5         -5.3692    1.2999   -1.0024 C.ar      1 <0>         0.0190
      6 C6         -6.6270    0.7335   -1.0618 C.ar      1 <0>        -0.1261
      7 Cl1        -4.9599    2.3758    0.2971 Cl        1 <0>        -0.0645
      8 C7         -3.0835    1.6162   -1.9415 C.2       1 <0>         0.5727
      9 O1         -2.8746    2.6801   -2.4916 O.2       1 <0>        -0.5174
     10 N1         -2.0873    0.9906   -1.2837 N.am      1 <0>        -0.7060
     11 C8         -0.7527    1.5927   -1.2315 C.3       1 <0>         0.1037
     12 H1         -0.8826    2.6844   -1.1952 H         1 <0>         0.0876
     13 C9         -0.0127    1.0858    0.0080 C.3       1 <0>        -0.0603
     14 C10        -0.7181    1.5718    1.2479 C.2       1 <0>         0.0467
     15 C11        -1.1746    0.8000    2.2526 C.2       1 <0>         0.0135
     16 N2         -1.7412    1.6409    3.1721 N.pl3     1 <0>        -0.5288
     17 H2         -0.7222    3.6507    0.8447 H         1 <0>         0.5058
     18 C12        -1.6193    2.8975    2.6926 C.cat     1 <0>         0.3283
     19 N3         -1.0064    2.8484    1.5415 N.pl3     1 <0>        -0.4869
     20 C13         0.0192    1.2112   -2.4683 C.2       1 <0>         0.4529
     21 O2         -0.4929    0.5086   -3.3073 O.co2     1 <0>        -0.6036
     22 O3          1.2756    1.6520   -2.6379 O.co2     1 <0>        -0.7543
     23 F1         -3.8615   -0.1546   -3.9945 F         1 <0>        -0.1061
     24 H3         -7.9380   -0.5724   -2.1307 H         1 <0>         0.1492
     25 H4         -6.2900   -1.1013   -3.8769 H         1 <0>         0.1514
     26 H5         -7.3565    0.9610   -0.2986 H         1 <0>         0.1450
     27 H6         -2.2762    0.0280   -0.7860 H         1 <0>         0.4120
     28 H7          0.0022   -0.0141    0.0019 H         1 <0>         0.1143
     29 H8          1.0193    1.4665    0.0002 H         1 <0>         0.1302
     30 H9         -1.0569   -0.1923    2.2140 H         1 <0>         0.2013
     31 H10        -1.9771    3.6698    3.2174 H         1 <0>         0.2274
     32 H11        -2.1810    1.2321    4.0938 H         1 <0>         0.5014
@<TRIPOS>BOND
     1    1    6 ar
     2    1    2 ar
     3    1   24 1
     4    2    3 ar
     5    2   25 1
     6    3    4 ar
     7    3   23 1
     8    4    5 ar
     9    4    8 1
    10    5    6 ar
    11    5    7 1
    12    6   26 1
    13    8    9 2
    14    8   10 am
    15   10   11 1
    16   10   27 1
    17   11   12 1
    18   11   13 1
    19   11   20 1
    20   13   14 1
    21   13   28 1
    22   13   29 1
    23   14   19 1
    24   14   15 2
    25   15   16 1
    26   15   30 1
    27   16   18 2
    28   16   32 1
    29   17   19 1
    30   18   31 1
    31   18   19 1
    32   20   21 2
    33   20   22 1
@<TRIPOS>MOLECULE
ZINC20016357
   31    32     0     0     0
SMALL
USER_CHARGES

@<TRIPOS>ATOM
      1 C1         -0.0167    1.3792    0.0096 C.ar      1 <0>        -0.0705
      2 C2          1.1669    2.0944    0.0022 C.ar      1 <0>        -0.1553
      3 C3          2.3793    1.4305   -0.0130 C.ar      1 <0>         0.1500
      4 C4          2.4059    0.0318   -0.0208 C.ar      1 <0>        -0.1423
      5 C5          1.2046   -0.6824   -0.0132 C.ar      1 <0>         0.0165
      6 C6          0.0021   -0.0041    0.0020 C.ar      1 <0>        -0.1300
      7 Cl1         1.2244   -2.4182   -0.0227 Cl        1 <0>        -0.0419
      8 C7          3.6958   -0.6858   -0.0375 C.2       1 <0>         0.5592
      9 O1          4.2374   -0.9870    1.0085 O.2       1 <0>        -0.5234
     10 N1          4.2730   -1.0071   -1.2122 N.am      1 <0>        -0.6721
     11 C8          5.5531   -1.7193   -1.2288 C.3       1 <0>         0.0879
     12 H1          5.5924   -2.4155   -0.3910 H         1 <0>         0.0929
     13 C9          5.6894   -2.4929   -2.5417 C.3       1 <0>        -0.0318
     14 C10         4.6346   -3.5674   -2.6034 C.2       1 <0>         0.0257
     15 C11         3.7347   -3.7372   -3.5909 C.2       1 <0>        -0.0659
     16 N2          2.9730   -4.8223   -3.2502 N.pl3     1 <0>        -0.5739
     17 C12         3.4342   -5.2781   -2.0657 C.2       1 <0>         0.1752
     18 N3          4.4312   -4.5258   -1.6874 N.2       1 <0>        -0.4742
     19 C13         6.6814   -0.7273   -1.1108 C.2       1 <0>         0.4908
     20 O2          7.7262   -1.0533   -0.5734 O.co2     1 <0>        -0.6913
     21 O3          6.5496    0.4014   -1.5527 O.co2     1 <0>        -0.6892
     22 F1          3.5350    2.1302   -0.0207 F         1 <0>        -0.1107
     23 H2         -0.9608    1.9034    0.0260 H         1 <0>         0.1439
     24 H3          1.1440    3.1742    0.0078 H         1 <0>         0.1465
     25 H4         -0.9268   -0.5551    0.0083 H         1 <0>         0.1418
     26 H5          3.8409   -0.7668   -2.0467 H         1 <0>         0.3894
     27 H6          5.5614   -1.8094   -3.3811 H         1 <0>         0.0763
     28 H7          6.6775   -2.9503   -2.5930 H         1 <0>         0.0901
     29 H8          3.6333   -3.1331   -4.4803 H         1 <0>         0.1723
     30 H9          3.0452   -6.1271   -1.5233 H         1 <0>         0.1999
     31 H10         2.2390   -5.1943   -3.7638 H         1 <0>         0.4138
@<TRIPOS>BOND
     1    1    6 ar
     2    1    2 ar
     3    1   23 1
     4    2    3 ar
     5    2   24 1
     6    3    4 ar
     7    3   22 1
     8    4    5 ar
     9    4    8 1
    10    5    6 ar
    11    5    7 1
    12    6   25 1
    13    8    9 2
    14    8   10 am
    15   10   11 1
    16   10   26 1
    17   11   12 1
    18   11   13 1
    19   11   19 1
    20   13   27 1
    21   13   28 1
    22   13   14 1
    23   14   15 2
    24   14   18 1
    25   15   16 1
    26   15   29 1
    27   16   17 1
    28   16   31 1
    29   17   30 1
    30   17   18 2
    31   19   20 2
    32   19   21 1
@<TRIPOS>MOLECULE
ZINC09863967
   38    40     0     0     0
SMALL
USER_CHARGES
2-(2-fluorobenzoyl)amino-3-(1H-indol-3-yl)propanoic acid
@<TRIPOS>ATOM
      1 C1          1.1843    1.7793    0.0003 C.ar      1 <0>        -0.1478
      2 C2         -0.0126    1.0758    0.0080 C.ar      1 <0>        -0.1039
      3 C3         -1.2186    1.7413    0.0173 C.ar      1 <0>        -0.1313
      4 C4         -1.2402    3.1323    0.0298 C.ar      1 <0>         0.0942
      5 C5         -0.0248    3.8404    0.0215 C.ar      1 <0>        -0.0937
      6 C6          1.1863    3.1455    0.0067 C.ar      1 <0>        -0.0718
      7 C7         -0.3836    5.2606    0.0312 C.2       1 <0>        -0.1531
      8 C8         -1.7244    5.3265    0.0441 C.2       1 <0>         0.0478
      9 N1         -2.2533    4.0646    0.0434 N.pl3     1 <0>        -0.5972
     10 H1         -3.2010    3.8576    0.0514 H         1 <0>         0.4127
     11 C9          0.5711    6.4266    0.0274 C.3       1 <0>        -0.0395
     12 C10         0.9780    6.7478   -1.4121 C.3       1 <0>         0.1104
     13 H2          0.0845    6.9158   -2.0133 H         1 <0>         0.0895
     14 C11         1.8342    7.9879   -1.4272 C.2       1 <0>         0.4586
     15 O1          2.9620    7.9382   -1.8578 O.co2     1 <0>        -0.6267
     16 N2          1.7363    5.6241   -1.9676 N.am      1 <0>        -0.6854
     17 C12         1.7707    5.4277   -3.3005 C.2       1 <0>         0.5559
     18 O2          1.1725    6.1830   -4.0419 O.2       1 <0>        -0.5312
     19 C13         2.5352    4.2949   -3.8605 C.ar      1 <0>        -0.1540
     20 C14         3.2283    3.4284   -3.0124 C.ar      1 <0>        -0.0562
     21 C15         3.9356    2.3698   -3.5412 C.ar      1 <0>        -0.1397
     22 C16         3.9699    2.1694   -4.9108 C.ar      1 <0>        -0.0749
     23 C17         3.2916    3.0243   -5.7587 C.ar      1 <0>        -0.1680
     24 C18         2.5732    4.0879   -5.2428 C.ar      1 <0>         0.1542
     25 F1          1.9109    4.9240   -6.0718 F         1 <0>        -0.1156
     26 H3          2.1212    1.2423   -0.0112 H         1 <0>         0.1200
     27 H4          0.0021   -0.0041    0.0020 H         1 <0>         0.1205
     28 H5         -2.1443    1.1850    0.0191 H         1 <0>         0.1149
     29 H6          2.1212    3.6861    0.0007 H         1 <0>         0.1152
     30 H7         -2.3002    6.2401    0.0532 H         1 <0>         0.1718
     31 H8          0.0849    7.2958    0.4701 H         1 <0>         0.0972
     32 H9          1.4581    6.1717    0.6074 H         1 <0>         0.0689
     33 H10         2.2136    5.0215   -1.3761 H         1 <0>         0.3875
     34 H11         3.2069    3.5850   -1.9441 H         1 <0>         0.1316
     35 H12         4.4687    1.6974   -2.8853 H         1 <0>         0.1331
     36 H13         4.5300    1.3409   -5.3186 H         1 <0>         0.1334
     37 H14         3.3228    2.8620   -6.8259 H         1 <0>         0.1382
     38 O3          1.3438    9.1477   -0.9623 O.co2     1 <0>        -0.7657
@<TRIPOS>BOND
     1    1    6 ar
     2    1    2 ar
     3    1   26 1
     4    2    3 ar
     5    2   27 1
     6    3    4 ar
     7    3   28 1
     8    4    9 1
     9    4    5 ar
    10    5    6 ar
    11    5    7 1
    12    6   29 1
    13    7    8 2
    14    7   11 1
    15    8    9 1
    16    8   30 1
    17    9   10 1
    18   11   12 1
    19   11   31 1
    20   11   32 1
    21   12   13 1
    22   12   14 1
    23   12   16 1
    24   14   15 2
    25   14   38 1
    26   16   17 am
    27   16   33 1
    28   17   18 2
    29   17   19 1
    30   19   24 ar
    31   19   20 ar
    32   20   21 ar
    33   20   34 1
    34   21   22 ar
    35   21   35 1
    36   22   23 ar
    37   22   36 1
    38   23   24 ar
    39   23   37 1
    40   24   25 1
@<TRIPOS>MOLECULE
ZINC21798594
   28    28     0     0     0
SMALL
USER_CHARGES
(2S)-4-amino-2-[(2,6-dichlorobenzoyl)amino]-4-oxo-butanoic acid
@<TRIPOS>ATOM
      1 C1         -2.9742   -3.2381   -4.9311 C.ar      1 <0>        -0.0895
      2 C2         -4.0385   -2.4038   -4.6400 C.ar      1 <0>        -0.1159
      3 C3         -4.0575   -1.6898   -3.4581 C.ar      1 <0>        -0.0037
      4 C4         -2.9979   -1.8117   -2.5552 C.ar      1 <0>        -0.0967
      5 C5         -1.9236   -2.6522   -2.8590 C.ar      1 <0>        -0.0033
      6 C6         -1.9217   -3.3641   -4.0424 C.ar      1 <0>        -0.1177
      7 Cl1        -0.5979   -2.8059   -1.7488 Cl        1 <0>        -0.0319
      8 C7         -3.0105   -1.0516   -1.2890 C.2       1 <0>         0.5759
      9 O1         -3.5118   -1.5371   -0.2935 O.2       1 <0>        -0.5295
     10 N1         -2.4663    0.1803   -1.2371 N.am      1 <0>        -0.6825
     11 C8         -2.4789    0.9344    0.0189 C.3       1 <0>         0.1241
     12 H1         -2.3697    0.2116    0.8408 H         1 <0>         0.0948
     13 C9         -1.3296    1.9443    0.0189 C.3       1 <0>        -0.1314
     14 C10        -0.0144    1.2086    0.0087 C.2       1 <0>         0.5115
     15 O2          0.0021   -0.0041    0.0020 O.2       1 <0>        -0.5316
     16 N2          1.1435    1.8983    0.0013 N.am      1 <0>        -0.8859
     17 C11        -3.7899    1.6653    0.1529 C.2       1 <0>         0.4572
     18 O3         -4.6278    1.5665   -0.7120 O.co2     1 <0>        -0.6131
     19 O4         -4.0268    2.4261    1.2331 O.co2     1 <0>        -0.7704
     20 Cl2        -5.3939   -0.6429   -3.0952 Cl        1 <0>        -0.0155
     21 H2         -2.9648   -3.7938   -5.8572 H         1 <0>         0.1407
     22 H3         -4.8568   -2.3109   -5.3386 H         1 <0>         0.1415
     23 H4         -1.0942   -4.0175   -4.2766 H         1 <0>         0.1400
     24 H5         -2.0127    0.6195   -2.1378 H         1 <0>         0.4025
     25 H6         -1.4007    2.5807   -0.8755 H         1 <0>         0.0904
     26 H7         -1.3922    2.5710    0.9207 H         1 <0>         0.1145
     27 H8          2.1035    1.3613   -0.0061 H         1 <0>         0.4102
     28 H9          1.1285    2.9982    0.0027 H         1 <0>         0.4154
@<TRIPOS>BOND
     1    1    6 ar
     2    1    2 ar
     3    1   21 1
     4    2    3 ar
     5    2   22 1
     6    3    4 ar
     7    3   20 1
     8    4    5 ar
     9    4    8 1
    10    5    6 ar
    11    5    7 1
    12    6   23 1
    13    8    9 2
    14    8   10 am
    15   10   11 1
    16   10   24 1
    17   11   12 1
    18   11   13 1
    19   11   17 1
    20   13   14 1
    21   13   25 1
    22   13   26 1
    23   14   15 2
    24   14   16 am
    25   16   27 1
    26   16   28 1
    27   17   18 2
    28   17   19 1
@<TRIPOS>MOLECULE
ZINC26169414
   38    40     0     0     0
SMALL
USER_CHARGES
(2S)-3-(1H-indol-3-yl)-2-[(2-iodobenzoyl)amino]propanoic acid
@<TRIPOS>ATOM
      1 C1          1.1843    1.7793    0.0003 C.ar      1 <0>        -0.1494
      2 C2         -0.0126    1.0758    0.0080 C.ar      1 <0>        -0.1054
      3 C3         -1.2186    1.7413    0.0173 C.ar      1 <0>        -0.1314
      4 C4         -1.2402    3.1323    0.0298 C.ar      1 <0>         0.0877
      5 C5         -0.0248    3.8404    0.0215 C.ar      1 <0>        -0.0950
      6 C6          1.1863    3.1455    0.0067 C.ar      1 <0>        -0.0716
      7 C7         -0.3836    5.2606    0.0312 C.2       1 <0>        -0.1559
      8 C8         -1.7244    5.3265    0.0441 C.2       1 <0>         0.0598
      9 N1         -2.2533    4.0646    0.0434 N.pl3     1 <0>        -0.6078
     10 H1         -3.3030    3.7360    0.0517 H         1 <0>         0.4363
     11 C9          0.5711    6.4266    0.0274 C.3       1 <0>        -0.0379
     12 C10         0.9780    6.7478   -1.4121 C.3       1 <0>         0.1154
     13 H2          0.0935    6.8978   -2.0486 H         1 <0>         0.0888
     14 C11         1.8342    7.9879   -1.4272 C.2       1 <0>         0.4591
     15 O1          2.9620    7.9382   -1.8578 O.co2     1 <0>        -0.6266
     16 O2          1.3438    9.1477   -0.9623 O.co2     1 <0>        -0.7678
     17 N2          1.7363    5.6241   -1.9676 N.am      1 <0>        -0.6919
     18 C12         1.7707    5.4277   -3.3005 C.2       1 <0>         0.5423
     19 O3          1.1726    6.1829   -4.0418 O.2       1 <0>        -0.5115
     20 C13         2.5357    4.2940   -3.8610 C.ar      1 <0>        -0.0887
     21 C14         3.2286    3.4281   -3.0129 C.ar      1 <0>        -0.0821
     22 C15         3.9374    2.3699   -3.5420 C.ar      1 <0>        -0.1115
     23 C16         3.9705    2.1704   -4.9112 C.ar      1 <0>        -0.1046
     24 C17         3.2906    3.0268   -5.7579 C.ar      1 <0>        -0.0939
     25 C18         2.5735    4.0876   -5.2414 C.ar      1 <0>        -0.0686
     26 I1          1.5453    5.3846   -6.5257 I         1 <0>        -0.0010
     27 H3          2.1212    1.2423   -0.0112 H         1 <0>         0.1183
     28 H4          0.0021   -0.0041    0.0020 H         1 <0>         0.1190
     29 H5         -2.1443    1.1850    0.0191 H         1 <0>         0.1139
     30 H6          2.1212    3.6861    0.0007 H         1 <0>         0.1133
     31 H7         -2.3002    6.2401    0.0532 H         1 <0>         0.1688
     32 H8          0.0803    7.3038    0.4741 H         1 <0>         0.0958
     33 H9          1.4662    6.1695    0.6128 H         1 <0>         0.0682
     34 H10         2.2776    4.9407   -1.2968 H         1 <0>         0.3972
     35 H11         3.2071    3.5848   -1.9445 H         1 <0>         0.1277
     36 H12         4.4709    1.6975   -2.8866 H         1 <0>         0.1306
     37 H13         4.5302    1.3423   -5.3203 H         1 <0>         0.1297
     38 H14         3.3208    2.8657   -6.8254 H         1 <0>         0.1306
@<TRIPOS>BOND
     1    1    6 ar
     2    1    2 ar
     3    1   27 1
     4    2    3 ar
     5    2   28 1
     6    3    4 ar
     7    3   29 1
     8    4    9 1
     9    4    5 ar
    10    5    6 ar
    11    5    7 1
    12    6   30 1
    13    7    8 2
    14    7   11 1
    15    8    9 1
    16    8   31 1
    17    9   10 1
    18   11   12 1
    19   11   32 1
    20   11   33 1
    21   12   13 1
    22   12   14 1
    23   12   17 1
    24   14   15 2
    25   14   16 1
    26   17   18 am
    27   17   34 1
    28   18   19 2
    29   18   20 1
    30   20   25 ar
    31   20   21 ar
    32   21   22 ar
    33   21   35 1
    34   22   23 ar
    35   22   36 1
    36   23   24 ar
    37   23   37 1
    38   24   25 ar
    39   24   38 1
    40   25   26 1
@<TRIPOS>MOLECULE
ZINC26166280
   38    40     0     0     0
SMALL
USER_CHARGES
(2S)-2-[(2,4-dichlorobenzoyl)amino]-3-(1H-indol-3-yl)propanoic acid
@<TRIPOS>ATOM
      1 C1         -0.4697   -1.7393    2.8022 C.ar      1 <0>        -0.1493
      2 C2         -0.3250   -1.6810    4.1817 C.ar      1 <0>        -0.1053
      3 C3          0.9173   -1.8052    4.7638 C.ar      1 <0>        -0.1309
      4 C4          2.0399   -1.9911    3.9634 C.ar      1 <0>         0.0878
      5 C5          1.8880   -2.0495    2.5662 C.ar      1 <0>        -0.0952
      6 C6          0.6193   -1.9208    1.9973 C.ar      1 <0>        -0.0733
      7 C7          3.2328   -2.2492    2.0207 C.2       1 <0>        -0.1565
      8 C8          4.0755   -2.3029    3.0643 C.2       1 <0>         0.0602
      9 N1          3.3814   -2.1452    4.2329 N.pl3     1 <0>        -0.6080
     10 H1          3.7389   -2.1285    5.2731 H         1 <0>         0.4366
     11 C9          3.5998   -2.3767    0.5647 C.3       1 <0>        -0.0379
     12 C10         3.7822   -0.9829   -0.0393 C.3       1 <0>         0.1152
     13 H2          4.4984   -0.3888    0.5473 H         1 <0>         0.0889
     14 C11         4.2680   -1.1107   -1.4601 C.2       1 <0>         0.4586
     15 O1          3.6116   -0.6549   -2.3663 O.co2     1 <0>        -0.6268
     16 O2          5.4300   -1.7308   -1.7188 O.co2     1 <0>        -0.7670
     17 N2          2.5012   -0.2722   -0.0232 N.am      1 <0>        -0.6937
     18 C12         2.4782    1.0753   -0.0158 C.2       1 <0>         0.5518
     19 O3          3.5204    1.7011   -0.0224 O.2       1 <0>        -0.5217
     20 C13         1.1866    1.7918    0.0004 C.ar      1 <0>        -0.1009
     21 C14        -0.0126    1.0758    0.0080 C.ar      1 <0>        -0.0619
     22 C15        -1.2148    1.7500    0.0173 C.ar      1 <0>        -0.1131
     23 C16        -1.2362    3.1355    0.0293 C.ar      1 <0>        -0.0109
     24 C17        -0.0519    3.8521    0.0223 C.ar      1 <0>        -0.1147
     25 C18         1.1592    3.1888    0.0076 C.ar      1 <0>         0.0196
     26 Cl1         2.6440    4.0884   -0.0011 Cl        1 <0>        -0.0190
     27 Cl2        -2.7549    3.9762    0.0471 Cl        1 <0>        -0.0619
     28 H3         -1.4507   -1.6398    2.3618 H         1 <0>         0.1189
     29 H4         -1.1952   -1.5364    4.8048 H         1 <0>         0.1192
     30 H5          1.0195   -1.7581    5.8379 H         1 <0>         0.1140
     31 H6          0.4992   -1.9649    0.9249 H         1 <0>         0.1138
     32 H7          5.1433   -2.4472    2.9921 H         1 <0>         0.1689
     33 H8          4.5385   -2.9424    0.4714 H         1 <0>         0.0963
     34 H9          2.7979   -2.9062    0.0294 H         1 <0>         0.0690
     35 H10         1.5581   -0.8384   -0.0172 H         1 <0>         0.3982
     36 H11         0.0021   -0.0041    0.0020 H         1 <0>         0.1409
     37 H12        -2.1424    1.1969    0.0187 H         1 <0>         0.1437
     38 H13        -0.0751    4.9318    0.0279 H         1 <0>         0.1463
@<TRIPOS>BOND
     1    1    6 ar
     2    1    2 ar
     3    1   28 1
     4    2    3 ar
     5    2   29 1
     6    3    4 ar
     7    3   30 1
     8    4    9 1
     9    4    5 ar
    10    5    6 ar
    11    5    7 1
    12    6   31 1
    13    7    8 2
    14    7   11 1
    15    8    9 1
    16    8   32 1
    17    9   10 1
    18   11   12 1
    19   11   33 1
    20   11   34 1
    21   12   13 1
    22   12   14 1
    23   12   17 1
    24   14   15 2
    25   14   16 1
    26   17   18 am
    27   17   35 1
    28   18   19 2
    29   18   20 1
    30   20   25 ar
    31   20   21 ar
    32   21   22 ar
    33   21   36 1
    34   22   23 ar
    35   22   37 1
    36   23   24 ar
    37   23   27 1
    38   24   25 ar
    39   24   38 1
    40   25   26 1
@<TRIPOS>MOLECULE
ZINC04097803
   79    82     0     0     0
SMALL
USER_CHARGES

@<TRIPOS>ATOM
      1 C1          1.3084    1.9442   -0.6306 C.3       1 <0>        -0.1595
      2 C2          0.5910    0.5921   -0.4716 C.3       1 <0>        -0.0487
      3 C3          1.3224   -0.4243   -1.3709 C.3       1 <0>        -0.1407
      4 C4          2.6108   -0.7535   -0.5708 C.3       1 <0>         0.1066
      5 H1          2.7637   -1.8322   -0.5322 H         1 <0>         0.0483
      6 C5          2.4054   -0.1957    0.8609 C.3       1 <0>        -0.0904
      7 H2          2.9359    0.7314    1.0125 H         1 <0>         0.1081
      8 C6          0.8770    0.0320    0.9334 C.3       1 <0>        -0.0425
      9 C7          0.4452    1.0206    1.9887 C.3       1 <0>        -0.1502
     10 C8         -0.7943    1.7722    1.5327 C.2       1 <0>         0.3746
     11 O1         -1.0801    2.8321    2.0766 O.2       1 <0>        -0.4589
     12 C9         -1.6738    1.2504    0.4301 C.3       1 <0>        -0.0754
     13 C10        -0.8836    0.7477   -0.7605 C.3       1 <0>        -0.0417
     14 H3         -1.2843   -0.2404   -1.0508 H         1 <0>         0.0882
     15 C11        -1.0554    1.6959   -1.9538 C.3       1 <0>        -0.0949
     16 C12        -2.5271    1.8293   -2.2763 C.2       1 <0>        -0.1424
     17 C13        -3.3435    2.0748   -1.2820 C.2       1 <0>        -0.1100
     18 C14        -2.7687    2.2474    0.0867 C.3       1 <0>         0.0065
     19 H4         -2.2636    3.2163    0.0846 H         1 <0>         0.0956
     20 C15        -3.7961    2.3079    1.1708 C.2       1 <0>        -0.1197
     21 C16        -5.0831    2.0331    0.9834 C.2       1 <0>         0.0009
     22 C17        -5.5848    1.6899   -0.3492 C.2       1 <0>         0.3817
     23 O2         -6.5942    1.0351   -0.4999 O.2       1 <0>        -0.4398
     24 C18        -4.8240    2.2193   -1.5490 C.3       1 <0>        -0.0569
     25 C19        -5.2518    1.4296   -2.7929 C.3       1 <0>        -0.1341
     26 C20        -5.1677    3.7039   -1.7496 C.3       1 <0>        -0.1350
     27 O3         -5.9385    2.0693    2.0388 O.3       1 <0>        -0.4695
     28 C21        -2.4583    0.0581    1.0003 C.3       1 <0>        -0.1715
     29 C22         0.2563   -1.3488    1.1474 C.3       1 <0>        -0.1632
     30 C23         2.8124   -1.2462    1.8995 C.3       1 <0>         0.1079
     31 C24         2.4306   -0.7559    3.2976 C.3       1 <0>        -0.1461
     32 C25         4.3018   -1.4667    1.8339 C.2       1 <0>         0.3542
     33 O4          5.0347   -0.5611    1.4952 O.2       1 <0>        -0.4278
     34 C26         4.8636   -2.7724    2.1785 C.2       1 <0>        -0.2369
     35 C27         6.1826   -2.9676    2.1204 C.2       1 <0>        -0.0877
     36 C28         6.7615   -4.3129    2.4755 C.3       1 <0>         0.1477
     37 C29         7.5147   -4.8784    1.2697 C.3       1 <0>        -0.1755
     38 C30         7.7263   -4.1583    3.6528 C.3       1 <0>        -0.1378
     39 O5          5.7058   -5.2049    2.8387 O.3       1 <0>        -0.5520
     40 O6          2.1364   -2.4748    1.6245 O.3       1 <0>        -0.5295
     41 O7          3.7413   -0.1276   -1.1777 O.3       1 <0>        -0.5504
     42 H5          2.3817    1.8032   -0.5037 H         1 <0>         0.0752
     43 H6          1.1096    2.3463   -1.6240 H         1 <0>         0.0648
     44 H7          0.9419    2.6409    0.1234 H         1 <0>         0.0502
     45 H8          0.7180   -1.3129   -1.5327 H         1 <0>         0.0799
     46 H9          1.5763    0.0518   -2.3239 H         1 <0>         0.0779
     47 H10         0.2353    0.4950    2.9308 H         1 <0>         0.1069
     48 H11         1.2588    1.7387    2.1892 H         1 <0>         0.1004
     49 H12        -0.7121    2.7027   -1.7103 H         1 <0>         0.0810
     50 H13        -0.5307    1.3141   -2.8229 H         1 <0>         0.0803
     51 H14        -2.8432    1.7537   -3.2912 H         1 <0>         0.1239
     52 H15        -3.4754    2.5964    2.1648 H         1 <0>         0.1343
     53 H16        -5.0297    0.3726   -2.6463 H         1 <0>         0.0621
     54 H17        -6.3223    1.5570   -2.9537 H         1 <0>         0.0696
     55 H18        -4.7073    1.7981   -3.6622 H         1 <0>         0.0690
     56 H19        -4.6062    4.0954   -2.5979 H         1 <0>         0.0754
     57 H20        -6.2356    3.8069   -1.9421 H         1 <0>         0.0650
     58 H21        -4.9049    4.2623   -0.8511 H         1 <0>         0.0653
     59 H22        -6.8538    1.8563    1.8108 H         1 <0>         0.3992
     60 H23        -3.2662    0.4243    1.6338 H         1 <0>         0.0721
     61 H24        -2.8758   -0.5274    0.1811 H         1 <0>         0.0699
     62 H25        -1.7893   -0.5683    1.5904 H         1 <0>         0.0803
     63 H26         0.8150   -2.0907    0.5769 H         1 <0>         0.0866
     64 H27         0.2919   -1.6029    2.2068 H         1 <0>         0.0716
     65 H28        -0.7805   -1.3372    0.8112 H         1 <0>         0.0581
     66 H29         1.3450   -0.7475    3.3958 H         1 <0>         0.0868
     67 H30         2.8580   -1.4232    4.0460 H         1 <0>         0.0700
     68 H31         2.8167    0.2524    3.4470 H         1 <0>         0.0761
     69 H32         4.2111   -3.5785    2.4800 H         1 <0>         0.1426
     70 H33         6.8350   -2.1615    1.8189 H         1 <0>         0.1306
     71 H34         8.3199   -4.1980    0.9926 H         1 <0>         0.0712
     72 H35         7.9334   -5.8514    1.5265 H         1 <0>         0.0730
     73 H36         6.8273   -4.9885    0.4309 H         1 <0>         0.0609
     74 H37         7.1897   -3.7555    4.5118 H         1 <0>         0.0661
     75 H38         8.1450   -5.1314    3.9096 H         1 <0>         0.0719
     76 H39         8.5315   -3.4779    3.3757 H         1 <0>         0.0748
     77 H40         5.0551   -5.3502    2.1383 H         1 <0>         0.3774
     78 H41         2.3663   -2.8678    0.7714 H         1 <0>         0.3723
     79 H42         3.9146   -0.4210   -2.0826 H         1 <0>         0.3758
@<TRIPOS>BOND
     1    1    2 1
     2    1   42 1
     3    1   43 1
     4    1   44 1
     5    2    8 1
     6    2   13 1
     7    2    3 1
     8    3    4 1
     9    3   45 1
    10    3   46 1
    11    4    5 1
    12    4    6 1
    13    4   41 1
    14    6    7 1
    15    6    8 1
    16    6   30 1
    17    8    9 1
    18    8   29 1
    19    9   10 1
    20    9   47 1
    21    9   48 1
    22   10   11 2
    23   10   12 1
    24   12   18 1
    25   12   13 1
    26   12   28 1
    27   13   14 1
    28   13   15 1
    29   15   16 1
    30   15   49 1
    31   15   50 1
    32   16   17 2
    33   16   51 1
    34   17   24 1
    35   17   18 1
    36   18   19 1
    37   18   20 1
    38   20   21 2
    39   20   52 1
    40   21   22 1
    41   21   27 1
    42   22   23 2
    43   22   24 1
    44   24   25 1
    45   24   26 1
    46   25   53 1
    47   25   54 1
    48   25   55 1
    49   26   56 1
    50   26   57 1
    51   26   58 1
    52   27   59 1
    53   28   60 1
    54   28   61 1
    55   28   62 1
    56   29   63 1
    57   29   64 1
    58   29   65 1
    59   30   31 1
    60   30   32 1
    61   30   40 1
    62   31   66 1
    63   31   67 1
    64   31   68 1
    65   32   33 2
    66   32   34 1
    67   34   35 2
    68   34   69 1
    69   35   36 1
    70   35   70 1
    71   36   37 1
    72   36   38 1
    73   36   39 1
    74   37   71 1
    75   37   72 1
    76   37   73 1
    77   38   74 1
    78   38   75 1
    79   38   76 1
    80   39   77 1
    81   40   78 1
    82   41   79 1
@<TRIPOS>MOLECULE
ZINC19278080
   28    28     0     0     0
SMALL
USER_CHARGES
(2S)-4-amino-2-[(2-chloro-6-fluoro-benzoyl)amino]-4-oxo-butanoic acid
@<TRIPOS>ATOM
      1 C1         -1.3306    7.9740    2.2183 C.ar      1 <0>        -0.0710
      2 C2         -0.7025    7.2041    3.1800 C.ar      1 <0>        -0.1585
      3 C3         -0.7767    5.8248    3.1228 C.ar      1 <0>         0.1486
      4 C4         -1.4892    5.2094    2.0881 C.ar      1 <0>        -0.1419
      5 C5         -2.1155    5.9957    1.1172 C.ar      1 <0>         0.0149
      6 C6         -2.0369    7.3722    1.1922 C.ar      1 <0>        -0.1318
      7 Cl1        -2.9962    5.2436   -0.1761 Cl        1 <0>        -0.0294
      8 C7         -1.5740    3.7373    2.0189 C.2       1 <0>         0.5744
      9 O1         -2.4821    3.1537    2.5782 O.2       1 <0>        -0.5303
     10 N1         -0.6447    3.0402    1.3356 N.am      1 <0>        -0.6834
     11 C8         -0.7288    1.5792    1.2668 C.3       1 <0>         0.1235
     12 H1         -1.7949    1.3089    1.2463 H         1 <0>         0.0965
     13 C9         -0.0127    1.0858    0.0080 C.3       1 <0>        -0.1315
     14 C10        -0.7416    1.5850   -1.2129 C.2       1 <0>         0.5119
     15 O2         -1.7359    2.2682   -1.0884 O.2       1 <0>        -0.5317
     16 N2         -0.2884    1.2723   -2.4431 N.am      1 <0>        -0.8856
     17 C11        -0.0738    0.9805    2.4848 C.2       1 <0>         0.4572
     18 O3          0.4134    1.7002    3.3241 O.co2     1 <0>        -0.6196
     19 O4         -0.0315   -0.3525    2.6371 O.co2     1 <0>        -0.7673
     20 F1         -0.1634    5.0736    4.0634 F         1 <0>        -0.1105
     21 H2         -1.2691    9.0511    2.2682 H         1 <0>         0.1426
     22 H3         -0.1530    7.6814    3.9779 H         1 <0>         0.1449
     23 H4         -2.5246    7.9807    0.4451 H         1 <0>         0.1415
     24 H5          0.1769    3.5683    0.8296 H         1 <0>         0.4037
     25 H6          1.0193    1.4666    0.0002 H         1 <0>         0.0909
     26 H7          0.0023   -0.0141    0.0019 H         1 <0>         0.1156
     27 H8         -0.8204    1.6367   -3.3343 H         1 <0>         0.4106
     28 H9          0.6135    0.6527   -2.5559 H         1 <0>         0.4156
@<TRIPOS>BOND
     1    1    6 ar
     2    1    2 ar
     3    1   21 1
     4    2    3 ar
     5    2   22 1
     6    3    4 ar
     7    3   20 1
     8    4    5 ar
     9    4    8 1
    10    5    6 ar
    11    5    7 1
    12    6   23 1
    13    8    9 2
    14    8   10 am
    15   10   11 1
    16   10   24 1
    17   11   12 1
    18   11   13 1
    19   11   17 1
    20   13   14 1
    21   13   25 1
    22   13   26 1
    23   14   15 2
    24   14   16 am
    25   16   27 1
    26   16   28 1
    27   17   18 2
    28   17   19 1
@<TRIPOS>MOLECULE
ZINC33830395
   81    84     0     0     0
SMALL
USER_CHARGES

@<TRIPOS>ATOM
      1 C1          2.2231    1.8925   -1.4769 C.3       1 <0>        -0.2274
      2 C2          1.8240    0.4159   -1.4407 C.3       1 <0>        -0.0393
      3 C3          2.9385   -0.4531   -2.0359 C.3       1 <0>        -0.1363
      4 C4          4.0016   -0.4827   -0.9052 C.3       1 <0>         0.1145
      5 H1          4.4740   -1.4640   -0.8616 H         1 <0>         0.0712
      6 C5          3.2442   -0.1985    0.4149 C.3       1 <0>        -0.0733
      7 H2          3.5849    0.7407    0.8507 H         1 <0>         0.1027
      8 C6          1.7720   -0.0968    0.0250 C.3       1 <0>        -0.0491
      9 C7          0.9417    0.8914    0.8263 C.3       1 <0>        -0.1650
     10 C8         -0.4289    0.9451    0.1684 C.2       1 <0>         0.3675
     11 O1         -1.4314    0.8076    0.8275 O.2       1 <0>        -0.4436
     12 C9         -0.5165    1.1748   -1.3298 C.3       1 <0>        -0.0819
     13 C10         0.4428    0.2296   -2.0309 C.3       1 <0>        -0.0653
     14 H3          0.1104   -0.7928   -1.8511 H         1 <0>         0.0860
     15 C11         0.4238    0.4887   -3.5311 C.3       1 <0>        -0.0819
     16 C12         0.7585    1.9279   -3.7971 C.2       1 <0>        -0.1538
     17 C13         0.5073    2.8711   -2.9376 C.2       1 <0>        -0.0868
     18 C14        -0.1534    2.6236   -1.6096 C.3       1 <0>        -0.0514
     19 H4          0.5520    2.9443   -0.8431 H         1 <0>         0.1040
     20 C15        -1.3975    3.5060   -1.4688 C.3       1 <0>        -0.1068
     21 C16        -1.0053    4.9766   -1.6371 C.3       1 <0>         0.0624
     22 H5         -0.3094    5.2614   -0.8479 H         1 <0>         0.0889
     23 C17        -0.3433    5.1560   -2.9849 C.2       1 <0>         0.3399
     24 O2         -0.7553    5.9712   -3.7748 O.2       1 <0>        -0.4327
     25 C18         0.8885    4.2973   -3.3111 C.3       1 <0>        -0.0697
     26 C19         1.1905    4.3802   -4.8087 C.3       1 <0>        -0.1388
     27 C20         2.1135    4.7365   -2.5065 C.3       1 <0>        -0.1370
     28 O3         -2.1742    5.7952   -1.5628 O.3       1 <0>        -0.5454
     29 C21        -1.9460    0.9061   -1.8045 C.3       1 <0>        -0.1446
     30 C22         1.1260   -1.4831    0.0682 C.3       1 <0>        -0.1857
     31 C23         3.4540   -1.3471    1.4036 C.3       1 <0>         0.1102
     32 C24         4.9192   -1.3807    1.8429 C.3       1 <0>        -0.1411
     33 C25         2.5729   -1.1399    2.6085 C.2       1 <0>         0.3542
     34 O4          2.2074   -0.0224    2.9079 O.2       1 <0>        -0.4313
     35 C26         2.1583   -2.2861    3.4171 C.2       1 <0>        -0.2493
     36 C27         1.3781   -2.1026    4.4841 C.2       1 <0>        -0.0766
     37 C28         0.9509   -3.2835    5.3172 C.3       1 <0>         0.1469
     38 C29         1.4509   -3.1030    6.7519 C.3       1 <0>        -0.1763
     39 C30        -0.5759   -3.3817    5.3178 C.3       1 <0>        -0.1378
     40 O5          1.5050   -4.4802    4.7667 O.3       1 <0>        -0.5521
     41 O6          3.1170   -2.5850    0.7742 O.3       1 <0>        -0.5534
     42 O7          4.9877    0.5261   -1.1329 O.3       1 <0>        -0.5621
     43 H6          3.2953    1.9835   -1.3030 H         1 <0>         0.0695
     44 H7          1.9764    2.3118   -2.4523 H         1 <0>         0.1152
     45 H8          1.6819    2.4343   -0.7012 H         1 <0>         0.0692
     46 H9          2.5724   -1.4579   -2.2469 H         1 <0>         0.0762
     47 H10         3.3462    0.0065   -2.9362 H         1 <0>         0.0753
     48 H11         0.8474    0.5497    1.8570 H         1 <0>         0.1117
     49 H12         1.4068    1.8768    0.8000 H         1 <0>         0.1035
     50 H13         1.1587   -0.1512   -4.0194 H         1 <0>         0.0797
     51 H14        -0.5683    0.2678   -3.9251 H         1 <0>         0.0812
     52 H15         1.2248    2.1892   -4.7355 H         1 <0>         0.1228
     53 H16        -2.1239    3.2341   -2.2347 H         1 <0>         0.0845
     54 H17        -1.8376    3.3582   -0.4826 H         1 <0>         0.0870
     55 H18         0.3071    4.0843   -5.3744 H         1 <0>         0.0634
     56 H19         1.4624    5.4033   -5.0684 H         1 <0>         0.0676
     57 H20         2.0173    3.7122   -5.0501 H         1 <0>         0.0707
     58 H21         2.9492    4.0719   -2.7253 H         1 <0>         0.0805
     59 H22         2.3802    5.7576   -2.7790 H         1 <0>         0.0649
     60 H23         1.8837    4.6928   -1.4419 H         1 <0>         0.0635
     61 H24        -1.9990    6.7410   -1.6616 H         1 <0>         0.3860
     62 H25        -2.6317    1.5814   -1.2928 H         1 <0>         0.0707
     63 H26        -2.0086    1.0710   -2.8801 H         1 <0>         0.0675
     64 H27        -2.2159   -0.1256   -1.5788 H         1 <0>         0.0594
     65 H28         1.7542   -2.1935   -0.4692 H         1 <0>         0.1000
     66 H29         1.0209   -1.8027    1.1049 H         1 <0>         0.0529
     67 H30         0.1428   -1.4405   -0.4005 H         1 <0>         0.0651
     68 H31         5.2117   -0.3961    2.2077 H         1 <0>         0.0746
     69 H32         5.0430   -2.1147    2.6392 H         1 <0>         0.0660
     70 H33         5.5466   -1.6551    0.9949 H         1 <0>         0.0796
     71 H34         2.4837   -3.2808    3.1506 H         1 <0>         0.1423
     72 H35         1.0527   -1.1078    4.7506 H         1 <0>         0.1331
     73 H36         1.0282   -2.1903    7.1719 H         1 <0>         0.0719
     74 H37         1.1419   -3.9572    7.3545 H         1 <0>         0.0741
     75 H38         2.5386   -3.0331    6.7516 H         1 <0>         0.0619
     76 H39        -0.9321   -3.5103    4.2956 H         1 <0>         0.0663
     77 H40        -0.8849   -4.2359    5.9203 H         1 <0>         0.0728
     78 H41        -0.9986   -2.4690    5.7377 H         1 <0>         0.0756
     79 H42         2.4715   -4.4878    4.7352 H         1 <0>         0.3783
     80 H43         2.1967   -2.8532    0.9016 H         1 <0>         0.3851
     81 H44         5.4801    0.4158   -1.9578 H         1 <0>         0.3774
@<TRIPOS>BOND
     1    1    2 1
     2    1   43 1
     3    1   44 1
     4    1   45 1
     5    2    8 1
     6    2   13 1
     7    2    3 1
     8    3    4 1
     9    3   46 1
    10    3   47 1
    11    4    5 1
    12    4    6 1
    13    4   42 1
    14    6    7 1
    15    6    8 1
    16    6   31 1
    17    8    9 1
    18    8   30 1
    19    9   10 1
    20    9   48 1
    21    9   49 1
    22   10   11 2
    23   10   12 1
    24   12   18 1
    25   12   13 1
    26   12   29 1
    27   13   14 1
    28   13   15 1
    29   15   16 1
    30   15   50 1
    31   15   51 1
    32   16   17 2
    33   16   52 1
    34   17   25 1
    35   17   18 1
    36   18   19 1
    37   18   20 1
    38   20   21 1
    39   20   53 1
    40   20   54 1
    41   21   22 1
    42   21   23 1
    43   21   28 1
    44   23   24 2
    45   23   25 1
    46   25   26 1
    47   25   27 1
    48   26   55 1
    49   26   56 1
    50   26   57 1
    51   27   58 1
    52   27   59 1
    53   27   60 1
    54   28   61 1
    55   29   62 1
    56   29   63 1
    57   29   64 1
    58   30   65 1
    59   30   66 1
    60   30   67 1
    61   31   32 1
    62   31   33 1
    63   31   41 1
    64   32   68 1
    65   32   69 1
    66   32   70 1
    67   33   34 2
    68   33   35 1
    69   35   36 2
    70   35   71 1
    71   36   37 1
    72   36   72 1
    73   37   38 1
    74   37   39 1
    75   37   40 1
    76   38   73 1
    77   38   74 1
    78   38   75 1
    79   39   76 1
    80   39   77 1
    81   39   78 1
    82   40   79 1
    83   41   80 1
    84   42   81 1
@<TRIPOS>MOLECULE
ZINC19278906
   31    32     0     0     0
SMALL
USER_CHARGES
(2S)-2-[(2,6-difluorobenzoyl)amino]-3-(1H-imidazol-4-yl)propanoic acid
@<TRIPOS>ATOM
      1 C1          5.3813    0.4207    4.8831 C.ar      1 <0>        -0.0510
      2 C2          5.1515    1.7572    4.6114 C.ar      1 <0>        -0.1708
      3 C3          4.5180    2.1296    3.4408 C.ar      1 <0>         0.1689
      4 C4          4.1089    1.1501    2.5294 C.ar      1 <0>        -0.1891
      5 C5          4.3402   -0.1998    2.8149 C.ar      1 <0>         0.1603
      6 C6          4.9802   -0.5541    3.9877 C.ar      1 <0>        -0.1715
      7 F1          3.9439   -1.1539    1.9445 F         1 <0>        -0.1225
      8 C7          3.4320    1.5382    1.2772 C.2       1 <0>         0.5691
      9 O1          4.0857    1.7598    0.2763 O.2       1 <0>        -0.5334
     10 N1          2.0891    1.6470    1.2428 N.am      1 <0>        -0.6913
     11 C8          1.4170    2.0324   -0.0006 C.3       1 <0>         0.1082
     12 H1          1.9906    1.6021   -0.8348 H         1 <0>         0.0825
     13 C9         -0.0184    1.5028    0.0103 C.3       1 <0>        -0.0421
     14 C10         0.0021   -0.0041    0.0020 C.2       1 <0>        -0.0312
     15 C11        -0.5991   -0.8086    0.8992 C.2       1 <0>        -0.0287
     16 N2         -0.3320   -2.0959    0.5182 N.2       1 <0>        -0.5003
     17 H2          1.1898   -0.3191   -1.7226 H         1 <0>         0.4477
     18 C12         0.4313   -2.0331   -0.5941 C.2       1 <0>         0.1685
     19 N3          0.6271   -0.7789   -0.8969 N.pl3     1 <0>        -0.5251
     20 C13         1.3973    3.5348   -0.1161 C.2       1 <0>         0.4572
     21 O2          1.8937    4.2140    0.7511 O.co2     1 <0>        -0.6173
     22 O3          0.8282    4.1184   -1.1826 O.co2     1 <0>        -0.7641
     23 F2          4.2941    3.4357    3.1775 F         1 <0>        -0.1081
     24 H3          5.8764    0.1366    5.7999 H         1 <0>         0.1455
     25 H4          5.4682    2.5121    5.3159 H         1 <0>         0.1472
     26 H5          5.1639   -1.5954    4.2075 H         1 <0>         0.1455
     27 H6          1.4977    1.4464    2.1483 H         1 <0>         0.4132
     28 H7         -0.5332    1.8575    0.9153 H         1 <0>         0.0904
     29 H8         -0.5505    1.8672   -0.8808 H         1 <0>         0.1027
     30 H9         -1.1171   -0.4128    1.6575 H         1 <0>         0.1542
     31 H10         0.7424   -2.8749   -1.0352 H         1 <0>         0.1857
@<TRIPOS>BOND
     1    1    6 ar
     2    1    2 ar
     3    1   24 1
     4    2    3 ar
     5    2   25 1
     6    3    4 ar
     7    3   23 1
     8    4    5 ar
     9    4    8 1
    10    5    6 ar
    11    5    7 1
    12    6   26 1
    13    8    9 2
    14    8   10 am
    15   10   11 1
    16   10   27 1
    17   11   12 1
    18   11   13 1
    19   11   20 1
    20   13   14 1
    21   13   28 1
    22   13   29 1
    23   14   19 1
    24   14   15 2
    25   15   16 1
    26   15   30 1
    27   16   18 2
    28   17   19 1
    29   18   31 1
    30   18   19 1
    31   20   21 2
    32   20   22 1
@<TRIPOS>MOLECULE
ZINC19278906
   32    33     0     0     0
SMALL
USER_CHARGES
(2S)-2-[(2,6-difluorobenzoyl)amino]-3-(1H-imidazol-4-yl)propanoic acid
@<TRIPOS>ATOM
      1 C1          5.3813    0.4207    4.8831 C.ar      1 <0>        -0.0456
      2 C2          5.1515    1.7572    4.6114 C.ar      1 <0>        -0.1641
      3 C3          4.5180    2.1296    3.4408 C.ar      1 <0>         0.1719
      4 C4          4.1089    1.1501    2.5294 C.ar      1 <0>        -0.1952
      5 C5          4.3402   -0.1998    2.8149 C.ar      1 <0>         0.1527
      6 C6          4.9802   -0.5541    3.9877 C.ar      1 <0>        -0.1688
      7 F1          3.9439   -1.1539    1.9445 F         1 <0>        -0.1327
      8 C7          3.4320    1.5382    1.2772 C.2       1 <0>         0.5720
      9 O1          4.0857    1.7598    0.2763 O.2       1 <0>        -0.5195
     10 N1          2.0891    1.6470    1.2428 N.am      1 <0>        -0.7066
     11 C8          1.4170    2.0324   -0.0006 C.3       1 <0>         0.1021
     12 H1          1.9906    1.6021   -0.8348 H         1 <0>         0.0877
     13 C9         -0.0184    1.5028    0.0103 C.3       1 <0>        -0.0602
     14 C10         0.0021   -0.0041    0.0020 C.2       1 <0>         0.0445
     15 C11        -0.5991   -0.8086    0.8992 C.2       1 <0>         0.0118
     16 N2         -0.3320   -2.0959    0.5182 N.pl3     1 <0>        -0.5300
     17 H2          1.1898   -0.3191   -1.7226 H         1 <0>         0.5060
     18 C12         0.4313   -2.0331   -0.5941 C.cat     1 <0>         0.3332
     19 N3          0.6271   -0.7789   -0.8969 N.pl3     1 <0>        -0.4878
     20 C13         1.3973    3.5348   -0.1161 C.2       1 <0>         0.4530
     21 O2          1.8937    4.2140    0.7511 O.co2     1 <0>        -0.6034
     22 O3          0.8282    4.1184   -1.1826 O.co2     1 <0>        -0.7538
     23 F2          4.2941    3.4357    3.1775 F         1 <0>        -0.1050
     24 H3          5.8764    0.1366    5.7999 H         1 <0>         0.1497
     25 H4          5.4682    2.5121    5.3159 H         1 <0>         0.1518
     26 H5          5.1639   -1.5954    4.2075 H         1 <0>         0.1468
     27 H6          1.4977    1.4464    2.1483 H         1 <0>         0.4127
     28 H7         -0.5332    1.8575    0.9153 H         1 <0>         0.1144
     29 H8         -0.5505    1.8672   -0.8808 H         1 <0>         0.1306
     30 H9         -1.1171   -0.4128    1.6575 H         1 <0>         0.2012
     31 H10         0.7424   -2.8749   -1.0352 H         1 <0>         0.2289
     32 H11        -0.7308   -2.9370    1.1044 H         1 <0>         0.5015
@<TRIPOS>BOND
     1    1    6 ar
     2    1    2 ar
     3    1   24 1
     4    2    3 ar
     5    2   25 1
     6    3    4 ar
     7    3   23 1
     8    4    5 ar
     9    4    8 1
    10    5    6 ar
    11    5    7 1
    12    6   26 1
    13    8    9 2
    14    8   10 am
    15   10   11 1
    16   10   27 1
    17   11   12 1
    18   11   13 1
    19   11   20 1
    20   13   14 1
    21   13   28 1
    22   13   29 1
    23   14   19 1
    24   14   15 2
    25   15   16 1
    26   15   30 1
    27   16   18 2
    28   16   32 1
    29   17   19 1
    30   18   31 1
    31   18   19 1
    32   20   21 2
    33   20   22 1
@<TRIPOS>MOLECULE
ZINC19278906
   31    32     0     0     0
SMALL
USER_CHARGES

@<TRIPOS>ATOM
      1 C1         -0.0167    1.3788    0.0096 C.ar      1 <0>        -0.0536
      2 C2          1.1667    2.0945    0.0022 C.ar      1 <0>        -0.1715
      3 C3          2.3797    1.4319   -0.0129 C.ar      1 <0>         0.1696
      4 C4          2.4080    0.0332   -0.0207 C.ar      1 <0>        -0.1864
      5 C5          1.2061   -0.6828   -0.0130 C.ar      1 <0>         0.1578
      6 C6          0.0021   -0.0041    0.0020 C.ar      1 <0>        -0.1738
      7 F1          1.2222   -2.0337   -0.0208 F         1 <0>        -0.1231
      8 C7          3.6980   -0.6827   -0.0373 C.2       1 <0>         0.5654
      9 O1          4.2399   -0.9833    1.0088 O.2       1 <0>        -0.5269
     10 N1          4.2756   -1.0035   -1.2120 N.am      1 <0>        -0.6738
     11 C8          5.5565   -1.7143   -1.2284 C.3       1 <0>         0.0852
     12 H1          5.5964   -2.4105   -0.3907 H         1 <0>         0.0928
     13 C9          5.6936   -2.4879   -2.5414 C.3       1 <0>        -0.0298
     14 C10         4.6399   -3.5635   -2.6031 C.2       1 <0>         0.0244
     15 C11         3.7402   -3.7342   -3.5905 C.2       1 <0>        -0.0694
     16 N2          2.9796   -4.8201   -3.2499 N.pl3     1 <0>        -0.5746
     17 C12         3.4413   -5.2754   -2.0653 C.2       1 <0>         0.1779
     18 N3          4.4374   -4.5220   -1.6870 N.2       1 <0>        -0.4782
     19 C13         6.6837   -0.7211   -1.1105 C.2       1 <0>         0.4894
     20 O2          6.4398    0.4701   -1.0209 O.co2     1 <0>        -0.6813
     21 O3          7.8396   -1.1088   -1.1046 O.co2     1 <0>        -0.6959
     22 F2          3.5346    2.1329   -0.0206 F         1 <0>        -0.1059
     23 H2         -0.9609    1.9028    0.0260 H         1 <0>         0.1444
     24 H3          1.1431    3.1743    0.0078 H         1 <0>         0.1468
     25 H4         -0.9267   -0.5552    0.0079 H         1 <0>         0.1437
     26 H5          3.8432   -0.7637   -2.0465 H         1 <0>         0.3879
     27 H6          5.5649   -1.8046   -3.3808 H         1 <0>         0.0720
     28 H7          6.6821   -2.9443   -2.5926 H         1 <0>         0.0972
     29 H8          3.6382   -3.1303   -4.4800 H         1 <0>         0.1726
     30 H9          3.0531   -6.1248   -1.5229 H         1 <0>         0.2027
     31 H10         2.2460   -5.1929   -3.7634 H         1 <0>         0.4143
@<TRIPOS>BOND
     1    1    6 ar
     2    1    2 ar
     3    1   23 1
     4    2    3 ar
     5    2   24 1
     6    3    4 ar
     7    3   22 1
     8    4    5 ar
     9    4    8 1
    10    5    6 ar
    11    5    7 1
    12    6   25 1
    13    8    9 2
    14    8   10 am
    15   10   11 1
    16   10   26 1
    17   11   12 1
    18   11   13 1
    19   11   19 1
    20   13   27 1
    21   13   28 1
    22   13   14 1
    23   14   15 2
    24   14   18 1
    25   15   16 1
    26   15   29 1
    27   16   17 1
    28   16   31 1
    29   17   30 1
    30   17   18 2
    31   19   20 2
    32   19   21 1
@<TRIPOS>MOLECULE
ZINC19407717
   28    28     0     0     0
SMALL
USER_CHARGES
(2S)-4-amino-2-[(2,6-difluorobenzoyl)amino]-4-oxo-butanoic acid
@<TRIPOS>ATOM
      1 C1          1.1535    3.4390    0.0100 C.ar      1 <0>        -0.0531
      2 C2         -0.0478    4.1242    0.0252 C.ar      1 <0>        -0.1746
      3 C3         -1.2434    3.4308    0.0329 C.ar      1 <0>         0.1622
      4 C4         -1.2360    2.0318    0.0189 C.ar      1 <0>        -0.1867
      5 C5         -0.0162    1.3468    0.0094 C.ar      1 <0>         0.1675
      6 C6          1.1700    2.0561    0.0019 C.ar      1 <0>        -0.1730
      7 F1          0.0021   -0.0041    0.0020 F         1 <0>        -0.1088
      8 C7         -2.5074    1.2831    0.0203 C.2       1 <0>         0.5731
      9 O1         -3.0265    0.9685    1.0738 O.2       1 <0>        -0.5316
     10 N1         -3.0933    0.9480   -1.1462 N.am      1 <0>        -0.6844
     11 C8         -4.3557    0.2046   -1.1449 C.3       1 <0>         0.1212
     12 H1         -4.9371    0.5399   -0.2734 H         1 <0>         0.0966
     13 C9         -5.1104    0.4787   -2.4472 C.3       1 <0>        -0.1316
     14 C10        -5.5038    1.9324   -2.5034 C.2       1 <0>         0.5125
     15 O2         -5.2096    2.6759   -1.5916 O.2       1 <0>        -0.5372
     16 N2         -6.1827    2.4062   -3.5670 N.am      1 <0>        -0.8848
     17 C11        -4.0698   -1.2706   -1.0309 C.2       1 <0>         0.4579
     18 O3         -2.9287   -1.6610   -0.9583 O.co2     1 <0>        -0.6191
     19 O4         -5.0829   -2.1509   -1.0101 O.co2     1 <0>        -0.7662
     20 F2         -2.4158    4.1020    0.0477 F         1 <0>        -0.1168
     21 H2          2.0841    3.9871    0.0041 H         1 <0>         0.1441
     22 H3         -0.0516    5.2042    0.0315 H         1 <0>         0.1444
     23 H4          2.1126    1.5289   -0.0099 H         1 <0>         0.1460
     24 H5         -2.6236    1.2327   -2.0993 H         1 <0>         0.4047
     25 H6         -4.4623    0.2408   -3.3036 H         1 <0>         0.0923
     26 H7         -6.0140   -0.1475   -2.4862 H         1 <0>         0.1173
     27 H8         -6.4698    3.4673   -3.6080 H         1 <0>         0.4116
     28 H9         -6.4496    1.7318   -4.3940 H         1 <0>         0.4166
@<TRIPOS>BOND
     1    1    6 ar
     2    1    2 ar
     3    1   21 1
     4    2    3 ar
     5    2   22 1
     6    3    4 ar
     7    3   20 1
     8    4    5 ar
     9    4    8 1
    10    5    6 ar
    11    5    7 1
    12    6   23 1
    13    8    9 2
    14    8   10 am
    15   10   11 1
    16   10   24 1
    17   11   12 1
    18   11   13 1
    19   11   17 1
    20   13   14 1
    21   13   25 1
    22   13   26 1
    23   14   15 2
    24   14   16 am
    25   16   27 1
    26   16   28 1
    27   17   18 2
    28   17   19 1
@<TRIPOS>MOLECULE
ZINC26181491
   41    43     0     0     0
SMALL
USER_CHARGES
(2S)-3-(1H-indol-3-yl)-2-[(2-methylbenzoyl)amino]propanoic acid
@<TRIPOS>ATOM
      1 C1         -0.0611    1.5018    0.0154 C.3       1 <0>        -0.1083
      2 C2         -0.0185   -0.0045    0.0045 C.ar      1 <0>        -0.0284
      3 C3          0.1064   -0.7013    1.1888 C.ar      1 <0>        -0.1344
      4 C4          0.1458   -2.0841    1.1805 C.ar      1 <0>        -0.1020
      5 C5          0.0604   -2.7776   -0.0139 C.ar      1 <0>        -0.1363
      6 C6         -0.0652   -2.0932   -1.2049 C.ar      1 <0>        -0.0812
      7 C7         -0.1109   -0.6980   -1.2031 C.ar      1 <0>        -0.1190
      8 C8         -0.2510    0.0420   -2.4753 C.2       1 <0>         0.5569
      9 O1         -0.1769    1.2552   -2.4841 O.2       1 <0>        -0.5446
     10 N1         -0.4610   -0.6287   -3.6254 N.am      1 <0>        -0.6966
     11 C9         -0.5998    0.1046   -4.8860 C.3       1 <0>         0.1145
     12 H1          0.0602    0.9830   -4.8330 H         1 <0>         0.0871
     13 C10        -0.2097   -0.8066   -6.0516 C.3       1 <0>        -0.0389
     14 C11         1.2536   -1.1526   -5.9507 C.2       1 <0>        -0.1552
     15 C12         2.2664   -0.5286   -6.5726 C.2       1 <0>         0.0403
     16 N2          3.4542   -1.1201   -6.2388 N.pl3     1 <0>        -0.6093
     17 H2          4.3968   -0.7334   -6.6534 H         1 <0>         0.4369
     18 C13         3.2283   -2.1713   -5.3787 C.ar      1 <0>         0.1066
     19 C14         1.8399   -2.2378   -5.1604 C.ar      1 <0>        -0.0947
     20 C15         1.3133   -3.2192   -4.3189 C.ar      1 <0>        -0.0712
     21 C16         2.1505   -4.1117   -3.7105 C.ar      1 <0>        -0.1492
     22 C17         3.5207   -4.0506   -3.9228 C.ar      1 <0>        -0.1046
     23 C18         4.0616   -3.0899   -4.7493 C.ar      1 <0>        -0.1329
     24 C19        -2.0298    0.5498   -5.0533 C.2       1 <0>         0.4582
     25 O2         -2.8489    0.2821   -4.2064 O.co2     1 <0>        -0.6272
     26 O3         -2.3935    1.2438   -6.1432 O.co2     1 <0>        -0.7685
     27 H3          0.0249    1.8635    1.0507 H         1 <0>         0.0501
     28 H4         -1.0135    1.8448   -0.4150 H         1 <0>         0.0813
     29 H5          0.7743    1.8965   -0.5815 H         1 <0>         0.0817
     30 H6          0.1732   -0.1660    2.1245 H         1 <0>         0.1237
     31 H7          0.2433   -2.6248    2.1103 H         1 <0>         0.1211
     32 H8          0.0917   -3.8572   -0.0136 H         1 <0>         0.1236
     33 H9         -0.1322   -2.6357   -2.1364 H         1 <0>         0.1219
     34 H10        -0.5282   -1.7266   -3.6175 H         1 <0>         0.3990
     35 H11        -0.8081   -1.7287   -6.0123 H         1 <0>         0.0679
     36 H12        -0.3989   -0.2870   -7.0025 H         1 <0>         0.0953
     37 H13         2.1596    0.3165   -7.2366 H         1 <0>         0.1693
     38 H14         0.2480   -3.2729   -4.1492 H         1 <0>         0.1148
     39 H15         1.7426   -4.8705   -3.0591 H         1 <0>         0.1191
     40 H16         4.1695   -4.7630   -3.4351 H         1 <0>         0.1195
     41 H17         5.1292   -3.0502   -4.9076 H         1 <0>         0.1137
@<TRIPOS>BOND
     1    1    2 1
     2    1   27 1
     3    1   28 1
     4    1   29 1
     5    2    7 ar
     6    2    3 ar
     7    3    4 ar
     8    3   30 1
     9    4    5 ar
    10    4   31 1
    11    5    6 ar
    12    5   32 1
    13    6    7 ar
    14    6   33 1
    15    7    8 1
    16    8    9 2
    17    8   10 am
    18   10   11 1
    19   10   34 1
    20   11   12 1
    21   11   13 1
    22   11   24 1
    23   13   14 1
    24   13   35 1
    25   13   36 1
    26   14   19 1
    27   14   15 2
    28   15   16 1
    29   15   37 1
    30   16   17 1
    31   16   18 1
    32   18   23 ar
    33   18   19 ar
    34   19   20 ar
    35   20   21 ar
    36   20   38 1
    37   21   22 ar
    38   21   39 1
    39   22   23 ar
    40   22   40 1
    41   23   41 1
    42   24   25 2
    43   24   26 1
@<TRIPOS>MOLECULE
ZINC20549702
   31    32     0     0     0
SMALL
USER_CHARGES
(2S)-2-[(2,6-dichlorobenzoyl)amino]-3-(1H-imidazol-4-yl)propanoic acid
@<TRIPOS>ATOM
      1 C1          5.3811    0.4208    4.8827 C.ar      1 <0>        -0.0869
      2 C2          5.1510    1.7575    4.6106 C.ar      1 <0>        -0.1137
      3 C3          4.5180    2.1285    3.4407 C.ar      1 <0>        -0.0025
      4 C4          4.1096    1.1497    2.5307 C.ar      1 <0>        -0.0996
      5 C5          4.3404   -0.1988    2.8154 C.ar      1 <0>        -0.0006
      6 C6          4.9797   -0.5538    3.9869 C.ar      1 <0>        -0.1147
      7 Cl1         3.8307   -1.4241    1.6963 Cl        1 <0>        -0.0440
      8 C7          3.4320    1.5382    1.2772 C.2       1 <0>         0.5714
      9 O1          4.0857    1.7598    0.2764 O.2       1 <0>        -0.5309
     10 N1          2.0891    1.6470    1.2428 N.am      1 <0>        -0.6898
     11 C8          1.4170    2.0324   -0.0006 C.3       1 <0>         0.1106
     12 H1          1.9906    1.6021   -0.8348 H         1 <0>         0.0806
     13 C9         -0.0184    1.5028    0.0103 C.3       1 <0>        -0.0425
     14 C10         0.0021   -0.0041    0.0020 C.2       1 <0>        -0.0276
     15 C11        -0.5991   -0.8086    0.8992 C.2       1 <0>        -0.0281
     16 N2         -0.3320   -2.0959    0.5182 N.2       1 <0>        -0.4978
     17 H2          1.1898   -0.3191   -1.7226 H         1 <0>         0.4468
     18 C12         0.4313   -2.0331   -0.5941 C.2       1 <0>         0.1652
     19 N3          0.6271   -0.7789   -0.8969 N.pl3     1 <0>        -0.5242
     20 C13         1.3973    3.5348   -0.1161 C.2       1 <0>         0.4569
     21 O2          1.8937    4.2140    0.7511 O.co2     1 <0>        -0.6110
     22 O3          0.8282    4.1184   -1.1826 O.co2     1 <0>        -0.7681
     23 Cl2         4.2299    3.8065    3.1016 Cl        1 <0>        -0.0133
     24 H3          5.8763    0.1368    5.7995 H         1 <0>         0.1424
     25 H4          5.4676    2.5127    5.3147 H         1 <0>         0.1429
     26 H5          5.1628   -1.5953    4.2063 H         1 <0>         0.1414
     27 H6          1.4977    1.4464    2.1483 H         1 <0>         0.4111
     28 H7         -0.5332    1.8575    0.9153 H         1 <0>         0.0894
     29 H8         -0.5505    1.8672   -0.8808 H         1 <0>         0.1009
     30 H9         -1.1171   -0.4128    1.6575 H         1 <0>         0.1530
     31 H10         0.7424   -2.8749   -1.0352 H         1 <0>         0.1828
@<TRIPOS>BOND
     1    1    6 ar
     2    1    2 ar
     3    1   24 1
     4    2    3 ar
     5    2   25 1
     6    3    4 ar
     7    3   23 1
     8    4    5 ar
     9    4    8 1
    10    5    6 ar
    11    5    7 1
    12    6   26 1
    13    8    9 2
    14    8   10 am
    15   10   11 1
    16   10   27 1
    17   11   12 1
    18   11   13 1
    19   11   20 1
    20   13   14 1
    21   13   28 1
    22   13   29 1
    23   14   19 1
    24   14   15 2
    25   15   16 1
    26   15   30 1
    27   16   18 2
    28   17   19 1
    29   18   31 1
    30   18   19 1
    31   20   21 2
    32   20   22 1
@<TRIPOS>MOLECULE
ZINC20549702
   32    33     0     0     0
SMALL
USER_CHARGES
(2S)-2-[(2,6-dichlorobenzoyl)amino]-3-(1H-imidazol-4-yl)propanoic acid
@<TRIPOS>ATOM
      1 C1          5.3811    0.4208    4.8827 C.ar      1 <0>        -0.0807
      2 C2          5.1510    1.7575    4.6106 C.ar      1 <0>        -0.1067
      3 C3          4.5180    2.1285    3.4407 C.ar      1 <0>        -0.0018
      4 C4          4.1096    1.1497    2.5307 C.ar      1 <0>        -0.1059
      5 C5          4.3404   -0.1988    2.8154 C.ar      1 <0>         0.0008
      6 C6          4.9797   -0.5538    3.9869 C.ar      1 <0>        -0.1123
      7 Cl1         3.8307   -1.4241    1.6963 Cl        1 <0>        -0.0671
      8 C7          3.4320    1.5382    1.2772 C.2       1 <0>         0.5734
      9 O1          4.0857    1.7598    0.2764 O.2       1 <0>        -0.5165
     10 N1          2.0891    1.6470    1.2428 N.am      1 <0>        -0.7055
     11 C8          1.4170    2.0324   -0.0006 C.3       1 <0>         0.1041
     12 H1          1.9906    1.6021   -0.8348 H         1 <0>         0.0861
     13 C9         -0.0184    1.5028    0.0103 C.3       1 <0>        -0.0604
     14 C10         0.0021   -0.0041    0.0020 C.2       1 <0>         0.0472
     15 C11        -0.5991   -0.8086    0.8992 C.2       1 <0>         0.0129
     16 N2         -0.3320   -2.0959    0.5182 N.pl3     1 <0>        -0.5289
     17 H2          1.1898   -0.3191   -1.7226 H         1 <0>         0.5057
     18 C12         0.4313   -2.0331   -0.5941 C.cat     1 <0>         0.3278
     19 N3          0.6271   -0.7789   -0.8969 N.pl3     1 <0>        -0.4867
     20 C13         1.3973    3.5348   -0.1161 C.2       1 <0>         0.4530
     21 O2          1.8937    4.2140    0.7511 O.co2     1 <0>        -0.5973
     22 O3          0.8282    4.1184   -1.1826 O.co2     1 <0>        -0.7574
     23 Cl2         4.2299    3.8065    3.1016 Cl        1 <0>        -0.0057
     24 H3          5.8763    0.1368    5.7995 H         1 <0>         0.1471
     25 H4          5.4676    2.5127    5.3147 H         1 <0>         0.1477
     26 H5          5.1628   -1.5953    4.2063 H         1 <0>         0.1434
     27 H6          1.4977    1.4464    2.1483 H         1 <0>         0.4110
     28 H7         -0.5332    1.8575    0.9153 H         1 <0>         0.1139
     29 H8         -0.5505    1.8672   -0.8808 H         1 <0>         0.1293
     30 H9         -1.1171   -0.4128    1.6575 H         1 <0>         0.2011
     31 H10         0.7424   -2.8749   -1.0352 H         1 <0>         0.2271
     32 H11        -0.7308   -2.9370    1.1044 H         1 <0>         0.5012
@<TRIPOS>BOND
     1    1    6 ar
     2    1    2 ar
     3    1   24 1
     4    2    3 ar
     5    2   25 1
     6    3    4 ar
     7    3   23 1
     8    4    5 ar
     9    4    8 1
    10    5    6 ar
    11    5    7 1
    12    6   26 1
    13    8    9 2
    14    8   10 am
    15   10   11 1
    16   10   27 1
    17   11   12 1
    18   11   13 1
    19   11   20 1
    20   13   14 1
    21   13   28 1
    22   13   29 1
    23   14   19 1
    24   14   15 2
    25   15   16 1
    26   15   30 1
    27   16   18 2
    28   16   32 1
    29   17   19 1
    30   18   31 1
    31   18   19 1
    32   20   21 2
    33   20   22 1
@<TRIPOS>MOLECULE
ZINC20549702
   31    32     0     0     0
SMALL
USER_CHARGES

@<TRIPOS>ATOM
      1 C1         -0.0167    1.3791    0.0096 C.ar      1 <0>        -0.0890
      2 C2          1.1675    2.0940    0.0022 C.ar      1 <0>        -0.1126
      3 C3          2.3786    1.4306   -0.0134 C.ar      1 <0>        -0.0020
      4 C4          2.4058    0.0335   -0.0211 C.ar      1 <0>        -0.0971
      5 C5          1.2052   -0.6817   -0.0130 C.ar      1 <0>        -0.0017
      6 C6          0.0021   -0.0041    0.0020 C.ar      1 <0>        -0.1158
      7 Cl1         1.2263   -2.4176   -0.0230 Cl        1 <0>        -0.0444
      8 C7          3.6968   -0.6837   -0.0382 C.2       1 <0>         0.5605
      9 O1          4.2390   -0.9844    1.0075 O.2       1 <0>        -0.5226
     10 N1          4.2738   -1.0047   -1.2131 N.am      1 <0>        -0.6712
     11 C8          5.5544   -1.7160   -1.2301 C.3       1 <0>         0.0884
     12 H1          5.5944   -2.4122   -0.3923 H         1 <0>         0.0912
     13 C9          5.6907   -2.4896   -2.5430 C.3       1 <0>        -0.0318
     14 C10         4.6366   -3.5648   -2.6044 C.2       1 <0>         0.0262
     15 C11         3.7365   -3.7353   -3.5914 C.2       1 <0>        -0.0663
     16 N2          2.9756   -4.8208   -3.2505 N.pl3     1 <0>        -0.5740
     17 C12         3.4375   -5.2763   -2.0661 C.2       1 <0>         0.1749
     18 N3          4.4341   -4.5233   -1.6882 N.2       1 <0>        -0.4740
     19 C13         6.6821   -0.7233   -1.1126 C.2       1 <0>         0.4919
     20 O2          7.7272   -1.0486   -0.5756 O.co2     1 <0>        -0.6940
     21 O3          6.5493    0.4052   -1.5545 O.co2     1 <0>        -0.6845
     22 Cl2         3.8634    2.3300   -0.0239 Cl        1 <0>        -0.0165
     23 H2         -0.9607    1.9035    0.0260 H         1 <0>         0.1421
     24 H3          1.1449    3.1738    0.0081 H         1 <0>         0.1432
     25 H4         -0.9266   -0.5554    0.0079 H         1 <0>         0.1404
     26 H5          3.8412   -0.7647   -2.0475 H         1 <0>         0.3885
     27 H6          5.5620   -1.8063   -3.3824 H         1 <0>         0.0759
     28 H7          6.6791   -2.9464   -2.5947 H         1 <0>         0.0890
     29 H8          3.6344   -3.1313   -4.4809 H         1 <0>         0.1720
     30 H9          3.0492   -6.1256   -1.5235 H         1 <0>         0.1996
     31 H10         2.2416   -5.1934   -3.7638 H         1 <0>         0.4136
@<TRIPOS>BOND
     1    1    6 ar
     2    1    2 ar
     3    1   23 1
     4    2    3 ar
     5    2   24 1
     6    3    4 ar
     7    3   22 1
     8    4    5 ar
     9    4    8 1
    10    5    6 ar
    11    5    7 1
    12    6   25 1
    13    8    9 2
    14    8   10 am
    15   10   11 1
    16   10   26 1
    17   11   12 1
    18   11   13 1
    19   11   19 1
    20   13   27 1
    21   13   28 1
    22   13   14 1
    23   14   15 2
    24   14   18 1
    25   15   16 1
    26   15   29 1
    27   16   17 1
    28   16   31 1
    29   17   30 1
    30   17   18 2
    31   19   20 2
    32   19   21 1
@<TRIPOS>MOLECULE
ZINC03109867
   38    40     0     0     0
SMALL
USER_CHARGES

@<TRIPOS>ATOM
      1 C1         -0.0165    1.3620    0.0095 C.ar      1 <0>        -0.1485
      2 C2          1.1697    2.0834    0.0021 C.ar      1 <0>        -0.1036
      3 C3          2.3856    1.4362   -0.0134 C.ar      1 <0>        -0.1322
      4 C4          2.4281    0.0456   -0.0212 C.ar      1 <0>         0.0945
      5 C5          1.2234   -0.6807   -0.0132 C.ar      1 <0>        -0.0933
      6 C6          0.0021   -0.0041    0.0020 C.ar      1 <0>        -0.0705
      7 C7          1.6036   -2.0953   -0.0245 C.2       1 <0>        -0.1503
      8 C8          2.9451   -2.1410   -0.0380 C.2       1 <0>         0.0451
      9 N1          3.4551   -0.8713   -0.0363 N.pl3     1 <0>        -0.5975
     10 H1          4.3995   -0.6501   -0.0442 H         1 <0>         0.4123
     11 C9          0.6664   -3.2754   -0.0210 C.3       1 <0>        -0.0408
     12 C10         0.2361   -3.5891   -1.4554 C.3       1 <0>         0.0859
     13 H2          1.1200   -3.7379   -2.0756 H         1 <0>         0.0831
     14 C11        -0.6016   -4.8418   -1.4659 C.2       1 <0>         0.4914
     15 O1         -1.7958   -4.7747   -1.7023 O.co2     1 <0>        -0.6851
     16 O2         -0.0851   -5.9225   -1.2381 O.co2     1 <0>        -0.6973
     17 N2         -0.5497   -2.4718   -1.9849 N.am      1 <0>        -0.6808
     18 C12        -0.6132   -2.2632   -3.3149 C.2       1 <0>         0.5490
     19 O3         -0.0186   -3.0023   -4.0751 O.2       1 <0>        -0.5238
     20 C13        -1.4058   -1.1362   -3.8490 C.ar      1 <0>        -0.1088
     21 C14        -2.0854   -0.2819   -2.9784 C.ar      1 <0>        -0.0737
     22 C15        -2.8228    0.7682   -3.4833 C.ar      1 <0>        -0.1249
     23 C16        -2.8913    0.9770   -4.8500 C.ar      1 <0>        -0.0945
     24 C17        -2.2216    0.1354   -5.7190 C.ar      1 <0>        -0.1247
     25 C18        -1.4739   -0.9171   -5.2270 C.ar      1 <0>         0.0099
     26 Cl1        -0.6272   -1.9684   -6.3185 Cl        1 <0>        -0.0343
     27 H3         -0.9613    1.8849    0.0259 H         1 <0>         0.1197
     28 H4          1.1388    3.1630    0.0081 H         1 <0>         0.1203
     29 H5          3.3028    2.0064   -0.0198 H         1 <0>         0.1146
     30 H6         -0.9246   -0.5587    0.0082 H         1 <0>         0.1156
     31 H7          3.5346   -3.0459   -0.0490 H         1 <0>         0.1706
     32 H8          1.1742   -4.1414    0.4036 H         1 <0>         0.0901
     33 H9         -0.2127   -3.0396    0.5787 H         1 <0>         0.0688
     34 H10        -1.0242   -1.8821   -1.3783 H         1 <0>         0.3854
     35 H11        -2.0339   -0.4435   -1.9118 H         1 <0>         0.1305
     36 H12        -3.3488    1.4294   -2.8106 H         1 <0>         0.1314
     37 H13        -3.4708    1.8009   -5.2394 H         1 <0>         0.1315
     38 H14        -2.2798    0.3035   -6.7842 H         1 <0>         0.1347
@<TRIPOS>BOND
     1    1    6 ar
     2    1    2 ar
     3    1   27 1
     4    2    3 ar
     5    2   28 1
     6    3    4 ar
     7    3   29 1
     8    4    9 1
     9    4    5 ar
    10    5    6 ar
    11    5    7 1
    12    6   30 1
    13    7    8 2
    14    7   11 1
    15    8    9 1
    16    8   31 1
    17    9   10 1
    18   11   12 1
    19   11   32 1
    20   11   33 1
    21   12   13 1
    22   12   14 1
    23   12   17 1
    24   14   15 2
    25   14   16 1
    26   17   18 am
    27   17   34 1
    28   18   19 2
    29   18   20 1
    30   20   25 ar
    31   20   21 ar
    32   21   22 ar
    33   21   35 1
    34   22   23 ar
    35   22   36 1
    36   23   24 ar
    37   23   37 1
    38   24   25 ar
    39   24   38 1
    40   25   26 1
@<TRIPOS>MOLECULE
ZINC13488292
   31    31     0     0     0
SMALL
USER_CHARGES
(2S)-5-amino-2-[(2-bromobenzoyl)amino]-5-oxo-pentanoic acid
@<TRIPOS>ATOM
      1 C1          6.6748    4.7858   -0.0690 C.ar      1 <0>        -0.1155
      2 C2          7.3758    4.8840    1.1204 C.ar      1 <0>        -0.1000
      3 C3          6.7617    4.5744    2.3201 C.ar      1 <0>        -0.1024
      4 C4          5.4428    4.1645    2.3384 C.ar      1 <0>        -0.0469
      5 C5          4.7302    4.0635    1.1415 C.ar      1 <0>        -0.0948
      6 C6          5.3590    4.3728   -0.0660 C.ar      1 <0>        -0.0828
      7 C7          3.3188    3.6252    1.1527 C.2       1 <0>         0.5445
      8 O1          2.7756    3.3517    2.2052 O.2       1 <0>        -0.5076
      9 N1          2.6340    3.5287   -0.0041 N.am      1 <0>        -0.6938
     10 C8          1.2350    3.0943    0.0069 C.3       1 <0>         0.1027
     11 H1          0.7441    3.4725    0.9036 H         1 <0>         0.0926
     12 C9          0.5222    3.6385   -1.2327 C.3       1 <0>        -0.0931
     13 C10         0.4722    5.1661   -1.1627 C.3       1 <0>        -0.1409
     14 C11        -0.2299    5.7022   -2.3837 C.2       1 <0>         0.5148
     15 O2         -0.6491    4.9377   -3.2268 O.2       1 <0>        -0.5373
     16 N2         -0.3921    7.0312   -2.5387 N.am      1 <0>        -0.8628
     17 C12         1.1765    1.5884   -0.0006 C.2       1 <0>         0.4597
     18 O3          2.1986    0.9442   -0.0139 O.co2     1 <0>        -0.6274
     19 Br1         4.6045    3.7408    3.9796 Br        1 <0>        -0.0118
     20 H2          7.1608    5.0289   -1.0023 H         1 <0>         0.1321
     21 H3          8.4074    5.2037    1.1115 H         1 <0>         0.1321
     22 H4          7.3145    4.6528    3.2445 H         1 <0>         0.1354
     23 H5          4.8149    4.2924   -0.9955 H         1 <0>         0.1335
     24 H6          3.0675    3.7470   -0.8440 H         1 <0>         0.3883
     25 H7          1.0650    3.3334   -2.1273 H         1 <0>         0.0687
     26 H8         -0.4929    3.2432   -1.2710 H         1 <0>         0.0960
     27 H9         -0.0706    5.4713   -0.2681 H         1 <0>         0.0950
     28 H10         1.4872    5.5615   -1.1244 H         1 <0>         0.0895
     29 H11        -0.0568    7.6426   -1.8644 H         1 <0>         0.3995
     30 H12        -0.8440    7.3762   -3.3246 H         1 <0>         0.3966
     31 O4         -0.0110    0.9628    0.0073 O.co2     1 <0>        -0.7637
@<TRIPOS>BOND
     1    1    6 ar
     2    1    2 ar
     3    1   20 1
     4    2    3 ar
     5    2   21 1
     6    3    4 ar
     7    3   22 1
     8    4    5 ar
     9    4   19 1
    10    5    6 ar
    11    5    7 1
    12    6   23 1
    13    7    8 2
    14    7    9 am
    15    9   10 1
    16    9   24 1
    17   10   11 1
    18   10   12 1
    19   10   17 1
    20   12   13 1
    21   12   25 1
    22   12   26 1
    23   13   14 1
    24   13   27 1
    25   13   28 1
    26   14   15 2
    27   14   16 am
    28   16   29 1
    29   16   30 1
    30   17   18 2
    31   17   31 1
@<TRIPOS>MOLECULE
ZINC13488303
   31    32     0     0     0
SMALL
USER_CHARGES
(2S)-2-[(2-bromobenzoyl)amino]-3-(1H-imidazol-4-yl)propanoic acid
@<TRIPOS>ATOM
      1 C1         -3.6302   -1.2282    0.0116 C.ar      1 <0>        -0.1166
      2 C2         -4.8368   -0.5501    0.0210 C.ar      1 <0>        -0.1023
      3 C3         -4.8602    0.8325    0.0291 C.ar      1 <0>        -0.1027
      4 C4         -3.6777    1.5461    0.0279 C.ar      1 <0>        -0.0476
      5 C5         -2.4570    0.8675    0.0184 C.ar      1 <0>        -0.0913
      6 C6         -2.4418   -0.5285    0.0049 C.ar      1 <0>        -0.0831
      7 C7         -1.1873    1.6238    0.0165 C.2       1 <0>         0.5447
      8 O1         -1.2038    2.8392    0.0232 O.2       1 <0>        -0.5072
      9 N1         -0.0111    0.9658    0.0074 N.am      1 <0>        -0.6875
     10 C8          1.2475    1.7155   -0.0006 C.3       1 <0>         0.1147
     11 H1          1.1346    2.6215    0.5948 H         1 <0>         0.0994
     12 C9          2.3605    0.8501    0.5937 C.3       1 <0>        -0.0303
     13 C10         2.0658    0.5812    2.0470 C.2       1 <0>         0.0245
     14 C11         1.9804   -0.6317    2.6259 C.2       1 <0>        -0.0693
     15 N2          1.7024   -0.4202    3.9494 N.pl3     1 <0>        -0.5778
     16 H2          1.5836   -1.1233    4.6505 H         1 <0>         0.4199
     17 C12         1.6185    0.9153    4.1314 C.2       1 <0>         0.1769
     18 N3          1.8369    1.5078    2.9894 N.2       1 <0>        -0.4778
     19 C13         1.6022    2.0866   -1.4175 C.2       1 <0>         0.4586
     20 O2          0.8780    1.7585   -2.3273 O.co2     1 <0>        -0.6291
     21 Br1        -3.7113    3.4367    0.0384 Br        1 <0>        -0.0113
     22 H3         -3.6194   -2.3082    0.0050 H         1 <0>         0.1309
     23 H4         -5.7643   -1.1034    0.0217 H         1 <0>         0.1313
     24 H5         -5.8052    1.3554    0.0361 H         1 <0>         0.1349
     25 H6         -1.5014   -1.0593   -0.0070 H         1 <0>         0.1320
     26 H7          0.0021   -0.0041    0.0020 H         1 <0>         0.3848
     27 H8          2.4140   -0.0948    0.0530 H         1 <0>         0.0717
     28 H9          3.3129    1.3729    0.5068 H         1 <0>         0.1003
     29 H10         2.1086   -1.5876    2.1398 H         1 <0>         0.1725
     30 H11         1.4061    1.4109    5.0672 H         1 <0>         0.2024
     31 O3          2.7227    2.7816   -1.6688 O.co2     1 <0>        -0.7655
@<TRIPOS>BOND
     1    1    6 ar
     2    1    2 ar
     3    1   22 1
     4    2    3 ar
     5    2   23 1
     6    3    4 ar
     7    3   24 1
     8    4    5 ar
     9    4   21 1
    10    5    6 ar
    11    5    7 1
    12    6   25 1
    13    7    8 2
    14    7    9 am
    15    9   10 1
    16    9   26 1
    17   10   11 1
    18   10   12 1
    19   10   19 1
    20   12   13 1
    21   12   27 1
    22   12   28 1
    23   13   18 1
    24   13   14 2
    25   14   15 1
    26   14   29 1
    27   15   16 1
    28   15   17 1
    29   17   18 2
    30   17   30 1
    31   19   20 2
    32   19   31 1
@<TRIPOS>MOLECULE
ZINC13488303
   31    32     0     0     0
SMALL
USER_CHARGES

@<TRIPOS>ATOM
      1 C1         -0.0166    1.3749    0.0096 C.ar      1 <0>        -0.1144
      2 C2          1.1703    2.0868    0.0021 C.ar      1 <0>        -0.1000
      3 C3          2.3828    1.4220   -0.0135 C.ar      1 <0>        -0.1031
      4 C4          2.4165    0.0413   -0.0212 C.ar      1 <0>        -0.0474
      5 C5          1.2221   -0.6827   -0.0132 C.ar      1 <0>        -0.0943
      6 C6          0.0021   -0.0041    0.0020 C.ar      1 <0>        -0.0797
      7 C7          1.2496   -2.1603   -0.0218 C.2       1 <0>         0.5411
      8 O1          2.3135   -2.7483   -0.0359 O.2       1 <0>        -0.5121
      9 N1          0.0953   -2.8558   -0.0141 N.am      1 <0>        -0.6836
     10 C8          0.1225   -4.3205   -0.0226 C.3       1 <0>         0.0872
     11 H1          0.9769   -4.6714    0.5562 H         1 <0>         0.0820
     12 C9         -1.1689   -4.8583    0.5970 C.3       1 <0>        -0.0429
     13 C10        -1.2280   -4.4692    2.0517 C.2       1 <0>         0.0002
     14 C11        -1.6840   -3.3056    2.5535 C.2       1 <0>        -0.0316
     15 N2         -1.5670   -3.3554    3.8888 N.2       1 <0>        -0.4941
     16 H2         -0.4626   -6.1279    3.0779 H         1 <0>         0.4191
     17 C12        -1.0558   -4.5056    4.2334 C.2       1 <0>         0.1694
     18 N3         -0.8341   -5.2327    3.1173 N.pl3     1 <0>        -0.5651
     19 C13         0.2414   -4.8125   -1.4421 C.2       1 <0>         0.4930
     20 O2          0.8083   -5.8661   -1.6767 O.co2     1 <0>        -0.6914
     21 O3         -0.2294   -4.1569   -2.3559 O.co2     1 <0>        -0.6847
     22 Br1         4.0752   -0.8665   -0.0431 Br        1 <0>        -0.0141
     23 H3         -0.9599    1.9006    0.0259 H         1 <0>         0.1328
     24 H4          1.1495    3.1666    0.0081 H         1 <0>         0.1320
     25 H5          3.3053    1.9836   -0.0200 H         1 <0>         0.1349
     26 H6         -0.9251   -0.5579    0.0082 H         1 <0>         0.1339
     27 H7         -0.7536   -2.3866   -0.0029 H         1 <0>         0.3892
     28 H8         -2.0265   -4.4365    0.0729 H         1 <0>         0.0921
     29 H9         -1.1885   -5.9447    0.5105 H         1 <0>         0.0861
     30 H10        -2.0754   -2.4776    1.9812 H         1 <0>         0.1625
     31 H11        -0.8477   -4.8244    5.2441 H         1 <0>         0.2032
@<TRIPOS>BOND
     1    1    6 ar
     2    1    2 ar
     3    1   23 1
     4    2    3 ar
     5    2   24 1
     6    3    4 ar
     7    3   25 1
     8    4    5 ar
     9    4   22 1
    10    5    6 ar
    11    5    7 1
    12    6   26 1
    13    7    8 2
    14    7    9 am
    15    9   10 1
    16    9   27 1
    17   10   11 1
    18   10   12 1
    19   10   19 1
    20   12   28 1
    21   12   29 1
    22   12   13 1
    23   13   14 2
    24   13   18 1
    25   14   15 1
    26   14   30 1
    27   15   17 2
    28   16   18 1
    29   17   31 1
    30   17   18 1
    31   19   20 2
    32   19   21 1
@<TRIPOS>MOLECULE
ZINC13488303
   32    33     0     0     0
SMALL
USER_CHARGES
(2S)-2-[(2-bromobenzoyl)amino]-3-(1H-imidazol-4-yl)propanoic acid
@<TRIPOS>ATOM
      1 C1         -3.6302   -1.2282    0.0116 C.ar      1 <0>        -0.1153
      2 C2         -4.8368   -0.5501    0.0210 C.ar      1 <0>        -0.0931
      3 C3         -4.8602    0.8325    0.0291 C.ar      1 <0>        -0.0995
      4 C4         -3.6777    1.5461    0.0279 C.ar      1 <0>        -0.0470
      5 C5         -2.4570    0.8675    0.0184 C.ar      1 <0>        -0.1032
      6 C6         -2.4418   -0.5285    0.0049 C.ar      1 <0>        -0.0837
      7 C7         -1.1873    1.6238    0.0165 C.2       1 <0>         0.5507
      8 O1         -1.2038    2.8392    0.0232 O.2       1 <0>        -0.5051
      9 N1         -0.0111    0.9658    0.0074 N.am      1 <0>        -0.7147
     10 C8          1.2475    1.7155   -0.0006 C.3       1 <0>         0.1055
     11 H1          1.0943    2.6268    0.5961 H         1 <0>         0.0881
     12 C9          2.3605    0.8501    0.5937 C.3       1 <0>        -0.0614
     13 C10         2.0658    0.5812    2.0470 C.2       1 <0>         0.0469
     14 C11         1.9804   -0.6317    2.6259 C.2       1 <0>         0.0097
     15 N2          1.7024   -0.4202    3.9494 N.pl3     1 <0>        -0.5304
     16 H2          1.8551    2.5758    2.7266 H         1 <0>         0.5065
     17 C12         1.6185    0.9153    4.1314 C.cat     1 <0>         0.3319
     18 N3          1.8369    1.5078    2.9894 N.pl3     1 <0>        -0.4876
     19 C13         1.6022    2.0866   -1.4175 C.2       1 <0>         0.4539
     20 O2          0.8780    1.7585   -2.3273 O.co2     1 <0>        -0.6072
     21 O3          2.7227    2.7816   -1.6688 O.co2     1 <0>        -0.7553
     22 Br1        -3.7113    3.4367    0.0384 Br        1 <0>        -0.0075
     23 H3         -3.6194   -2.3082    0.0050 H         1 <0>         0.1341
     24 H4         -5.7643   -1.1034    0.0217 H         1 <0>         0.1359
     25 H5         -5.8052    1.3554    0.0361 H         1 <0>         0.1387
     26 H6         -1.5014   -1.0593   -0.0070 H         1 <0>         0.1305
     27 H7          0.0039   -0.1341    0.0060 H         1 <0>         0.4046
     28 H8          2.4145   -0.1034    0.0479 H         1 <0>         0.1132
     29 H9          3.3217    1.3777    0.5059 H         1 <0>         0.1295
     30 H10         2.1175   -1.4576    2.0789 H         1 <0>         0.2012
     31 H11         1.4162    1.2846    5.0384 H         1 <0>         0.2287
     32 H12         1.5928   -1.2758    4.6319 H         1 <0>         0.5015
@<TRIPOS>BOND
     1    1    6 ar
     2    1    2 ar
     3    1   23 1
     4    2    3 ar
     5    2   24 1
     6    3    4 ar
     7    3   25 1
     8    4    5 ar
     9    4   22 1
    10    5    6 ar
    11    5    7 1
    12    6   26 1
    13    7    8 2
    14    7    9 am
    15    9   10 1
    16    9   27 1
    17   10   11 1
    18   10   12 1
    19   10   19 1
    20   12   13 1
    21   12   28 1
    22   12   29 1
    23   13   18 1
    24   13   14 2
    25   14   15 1
    26   14   30 1
    27   15   17 2
    28   15   32 1
    29   16   18 1
    30   17   31 1
    31   17   18 1
    32   19   20 2
    33   19   21 1
@<TRIPOS>MOLECULE
ZINC00077527
   34    35     0     0     0
SMALL
USER_CHARGES
2-(2-bromobenzoyl)amino-3-phenyl-propanoic acid
@<TRIPOS>ATOM
      1 C1          1.1750    1.7832    0.0004 C.ar      1 <0>        -0.1339
      2 C2         -0.0126    1.0758    0.0080 C.ar      1 <0>        -0.1183
      3 C3         -1.2190    1.7507    0.0173 C.ar      1 <0>        -0.1148
      4 C4         -1.2377    3.1328    0.0299 C.ar      1 <0>        -0.0654
      5 C5         -0.0501    3.8402    0.0223 C.ar      1 <0>        -0.1181
      6 C6          1.1563    3.1654    0.0076 C.ar      1 <0>        -0.1200
      7 C7         -2.5528    3.8685    0.0455 C.3       1 <0>        -0.0766
      8 C8         -3.0112    4.1243   -1.3917 C.3       1 <0>         0.1125
      9 H1         -3.0478    3.1801   -1.9349 H         1 <0>         0.0920
     10 C9         -4.3823    4.7494   -1.3779 C.2       1 <0>         0.4593
     11 O1         -4.5540    5.8402   -1.8685 O.co2     1 <0>        -0.6251
     12 N1         -2.0679    5.0308   -2.0510 N.am      1 <0>        -0.6904
     13 C10        -1.9462    5.0170   -3.3932 C.2       1 <0>         0.5462
     14 O2         -2.6192    4.2524   -4.0567 O.2       1 <0>        -0.5086
     15 C11        -0.9946    5.9314   -4.0584 C.ar      1 <0>        -0.0931
     16 C12        -0.2243    6.8149   -3.2999 C.ar      1 <0>        -0.0821
     17 C13         0.6654    7.6622   -3.9264 C.ar      1 <0>        -0.1153
     18 C14         0.7884    7.6460   -5.3050 C.ar      1 <0>        -0.1004
     19 C15         0.0251    6.7775   -6.0636 C.ar      1 <0>        -0.1024
     20 C16        -0.8659    5.9197   -5.4490 C.ar      1 <0>        -0.0467
     21 Br1        -1.9094    4.7331   -6.4877 Br        1 <0>        -0.0122
     22 H2          2.1175    1.2560   -0.0115 H         1 <0>         0.1154
     23 H3          0.0021   -0.0041    0.0020 H         1 <0>         0.1180
     24 H4         -2.1469    1.1980    0.0188 H         1 <0>         0.1241
     25 H5         -0.0647    4.9201    0.0276 H         1 <0>         0.1154
     26 H6          2.0841    3.7181    0.0014 H         1 <0>         0.1166
     27 H7         -3.2997    3.2667    0.5633 H         1 <0>         0.0990
     28 H8         -2.4307    4.8201    0.5628 H         1 <0>         0.0715
     29 H9         -1.5309    5.6409   -1.5216 H         1 <0>         0.3868
     30 H10        -0.3222    6.8321   -2.2245 H         1 <0>         0.1318
     31 H11         1.2644    8.3433   -3.3402 H         1 <0>         0.1320
     32 H12         1.4835    8.3150   -5.7904 H         1 <0>         0.1321
     33 H13         0.1258    6.7703   -7.1389 H         1 <0>         0.1353
     34 O3         -5.4130    4.0945   -0.8206 O.co2     1 <0>        -0.7647
@<TRIPOS>BOND
     1    1    6 ar
     2    1    2 ar
     3    1   22 1
     4    2    3 ar
     5    2   23 1
     6    3    4 ar
     7    3   24 1
     8    4    5 ar
     9    4    7 1
    10    5    6 ar
    11    5   25 1
    12    6   26 1
    13    7    8 1
    14    7   27 1
    15    7   28 1
    16    8    9 1
    17    8   10 1
    18    8   12 1
    19   10   11 2
    20   10   34 1
    21   12   13 am
    22   12   29 1
    23   13   14 2
    24   13   15 1
    25   15   20 ar
    26   15   16 ar
    27   16   17 ar
    28   16   30 1
    29   17   18 ar
    30   17   31 1
    31   18   19 ar
    32   18   32 1
    33   19   20 ar
    34   19   33 1
    35   20   21 1
@<TRIPOS>MOLECULE
ZINC13488295
   25    25     0     0     0
SMALL
USER_CHARGES
(2R)-2-[(2-bromobenzoyl)amino]-3-sulfanyl-propanoic acid
@<TRIPOS>ATOM
      1 C1          6.6748    4.7858   -0.0690 C.ar      1 <0>        -0.1158
      2 C2          7.3758    4.8840    1.1204 C.ar      1 <0>        -0.1001
      3 C3          6.7617    4.5744    2.3201 C.ar      1 <0>        -0.1031
      4 C4          5.4428    4.1645    2.3384 C.ar      1 <0>        -0.0463
      5 C5          4.7302    4.0635    1.1415 C.ar      1 <0>        -0.0929
      6 C6          5.3590    4.3728   -0.0660 C.ar      1 <0>        -0.0797
      7 C7          3.3188    3.6252    1.1527 C.2       1 <0>         0.5490
      8 O1          2.7756    3.3517    2.2052 O.2       1 <0>        -0.5080
      9 N1          2.6340    3.5287   -0.0041 N.am      1 <0>        -0.6901
     10 C8          1.2350    3.0943    0.0069 C.3       1 <0>         0.1215
     11 H1          0.7441    3.4725    0.9036 H         1 <0>         0.1039
     12 C9          0.5222    3.6385   -1.2327 C.3       1 <0>        -0.0487
     13 S1          0.5925    5.4511   -1.2236 S.3       1 <0>        -0.2587
     14 C10         1.1765    1.5884   -0.0006 C.2       1 <0>         0.4656
     15 O2          2.1986    0.9442   -0.0139 O.co2     1 <0>        -0.6163
     16 Br1         4.6045    3.7408    3.9796 Br        1 <0>        -0.0125
     17 H2          7.1608    5.0289   -1.0023 H         1 <0>         0.1319
     18 H3          8.4074    5.2037    1.1115 H         1 <0>         0.1316
     19 H4          7.3145    4.6528    3.2445 H         1 <0>         0.1351
     20 H5          4.8149    4.2924   -0.9955 H         1 <0>         0.1344
     21 H6          3.0675    3.7470   -0.8440 H         1 <0>         0.3922
     22 H7          1.0130    3.2604   -2.1295 H         1 <0>         0.0825
     23 H8         -0.5188    3.3153   -1.2245 H         1 <0>         0.1077
     24 H9         -0.0577    5.8076   -2.3458 H         1 <0>         0.0765
     25 O3         -0.0110    0.9628    0.0073 O.co2     1 <0>        -0.7596
@<TRIPOS>BOND
     1    1    6 ar
     2    1    2 ar
     3    1   17 1
     4    2    3 ar
     5    2   18 1
     6    3    4 ar
     7    3   19 1
     8    4    5 ar
     9    4   16 1
    10    5    6 ar
    11    5    7 1
    12    6   20 1
    13    7    8 2
    14    7    9 am
    15    9   10 1
    16    9   21 1
    17   10   11 1
    18   10   12 1
    19   10   14 1
    20   12   13 1
    21   12   22 1
    22   12   23 1
    23   13   24 1
    24   14   15 2
    25   14   25 1
@<TRIPOS>MOLECULE
ZINC13488301
   35    36     0     0     0
SMALL
USER_CHARGES
(2S)-2-[(2-bromobenzoyl)amino]-3-(4-hydroxyphenyl)propanoic acid
@<TRIPOS>ATOM
      1 C1         -3.6302   -1.2282    0.0116 C.ar      1 <0>        -0.1153
      2 C2         -4.8368   -0.5501    0.0210 C.ar      1 <0>        -0.1001
      3 C3         -4.8602    0.8325    0.0291 C.ar      1 <0>        -0.1022
      4 C4         -3.6777    1.5461    0.0279 C.ar      1 <0>        -0.0466
      5 C5         -2.4570    0.8675    0.0184 C.ar      1 <0>        -0.0934
      6 C6         -2.4418   -0.5285    0.0049 C.ar      1 <0>        -0.0821
      7 C7         -1.1873    1.6238    0.0165 C.2       1 <0>         0.5467
      8 O1         -1.2038    2.8392    0.0232 O.2       1 <0>        -0.5078
      9 N1         -0.0111    0.9658    0.0074 N.am      1 <0>        -0.6914
     10 C8          1.2475    1.7155   -0.0006 C.3       1 <0>         0.1118
     11 H1          1.1346    2.6215    0.5948 H         1 <0>         0.0924
     12 C9          2.3605    0.8501    0.5937 C.3       1 <0>        -0.0756
     13 C10         2.0658    0.5812    2.0470 C.ar      1 <0>        -0.0721
     14 C11         2.5407    1.4429    3.0184 C.ar      1 <0>        -0.0984
     15 C12         2.2672    1.2017    4.3509 C.ar      1 <0>        -0.1406
     16 C13         1.5249    0.0876    4.7147 C.ar      1 <0>         0.0870
     17 C14         1.0543   -0.7786    3.7385 C.ar      1 <0>        -0.1421
     18 C15         1.3257   -0.5299    2.4071 C.ar      1 <0>        -0.1021
     19 O2          1.2588   -0.1547    6.0252 O.3       1 <0>        -0.5013
     20 C16         1.6022    2.0866   -1.4175 C.2       1 <0>         0.4595
     21 O3          0.8780    1.7585   -2.3273 O.co2     1 <0>        -0.6246
     22 Br1        -3.7113    3.4367    0.0384 Br        1 <0>        -0.0120
     23 H2         -3.6194   -2.3082    0.0050 H         1 <0>         0.1321
     24 H3         -5.7643   -1.1034    0.0217 H         1 <0>         0.1322
     25 H4         -5.8052    1.3554    0.0361 H         1 <0>         0.1354
     26 H5         -1.5014   -1.0593   -0.0070 H         1 <0>         0.1317
     27 H6          0.0021   -0.0041    0.0020 H         1 <0>         0.3866
     28 H7          2.4140   -0.0948    0.0530 H         1 <0>         0.0727
     29 H8          3.3129    1.3729    0.5068 H         1 <0>         0.1002
     30 H9          3.1223    2.3076    2.7349 H         1 <0>         0.1300
     31 H10         2.6347    1.8774    5.1090 H         1 <0>         0.1251
     32 H11         0.4759   -1.6464    4.0193 H         1 <0>         0.1238
     33 H12         0.9593   -1.2037    1.6467 H         1 <0>         0.1212
     34 H13         1.9242   -0.6992    6.4676 H         1 <0>         0.3841
     35 O4          2.7227    2.7816   -1.6688 O.co2     1 <0>        -0.7646
@<TRIPOS>BOND
     1    1    6 ar
     2    1    2 ar
     3    1   23 1
     4    2    3 ar
     5    2   24 1
     6    3    4 ar
     7    3   25 1
     8    4    5 ar
     9    4   22 1
    10    5    6 ar
    11    5    7 1
    12    6   26 1
    13    7    8 2
    14    7    9 am
    15    9   10 1
    16    9   27 1
    17   10   11 1
    18   10   12 1
    19   10   20 1
    20   12   13 1
    21   12   28 1
    22   12   29 1
    23   13   18 ar
    24   13   14 ar
    25   14   15 ar
    26   14   30 1
    27   15   16 ar
    28   15   31 1
    29   16   17 ar
    30   16   19 1
    31   17   18 ar
    32   17   32 1
    33   18   33 1
    34   19   34 1
    35   20   21 2
    36   20   35 1
@<TRIPOS>MOLECULE
ZINC13488293
   25    25     0     0     0
SMALL
USER_CHARGES
(2S)-2-[(2-bromobenzoyl)amino]-3-hydroxy-propanoic acid
@<TRIPOS>ATOM
      1 C1          2.4034    0.0357   -0.0207 C.ar      1 <0>        -0.1155
      2 C2          2.3782    1.4196   -0.0130 C.ar      1 <0>        -0.1002
      3 C3          1.1719    2.0955    0.0021 C.ar      1 <0>        -0.1028
      4 C4         -0.0169    1.3924    0.0097 C.ar      1 <0>        -0.0468
      5 C5          0.0021   -0.0041    0.0020 C.ar      1 <0>        -0.0941
      6 C6          1.2241   -0.6791   -0.0133 C.ar      1 <0>        -0.0816
      7 C7         -1.2656   -0.7637    0.0096 C.2       1 <0>         0.5433
      8 O1         -2.3280   -0.1732    0.0225 O.2       1 <0>        -0.5111
      9 N1         -1.2437   -2.1113    0.0021 N.am      1 <0>        -0.6882
     10 C8         -2.5003   -2.8643    0.0096 C.3       1 <0>         0.0985
     11 H1         -3.2501   -2.3259   -0.5701 H         1 <0>         0.1023
     12 C9         -2.2715   -4.2446   -0.6096 C.3       1 <0>         0.0893
     13 O2         -1.3767   -4.9941    0.2149 O.3       1 <0>        -0.5615
     14 C10        -2.9819   -3.0239    1.4286 C.2       1 <0>         0.4713
     15 O3         -2.3412   -2.5566    2.3402 O.co2     1 <0>        -0.6241
     16 Br1        -1.6658    2.3181    0.0226 Br        1 <0>        -0.0125
     17 H2          3.3492   -0.4856   -0.0329 H         1 <0>         0.1324
     18 H3          3.3049    1.9741   -0.0189 H         1 <0>         0.1322
     19 H4          1.1593    3.1754    0.0077 H         1 <0>         0.1355
     20 H5          1.2458   -1.7589   -0.0196 H         1 <0>         0.1344
     21 H6         -0.3960   -2.5826   -0.0082 H         1 <0>         0.3938
     22 H7         -3.2229   -4.7711   -0.6854 H         1 <0>         0.0669
     23 H8         -1.8395   -4.1298   -1.6037 H         1 <0>         0.0394
     24 H9         -1.1858   -5.8818   -0.1176 H         1 <0>         0.3691
     25 O4         -4.1226   -3.6853    1.6799 O.co2     1 <0>        -0.7702
@<TRIPOS>BOND
     1    1    6 ar
     2    1    2 ar
     3    1   17 1
     4    2    3 ar
     5    2   18 1
     6    3    4 ar
     7    3   19 1
     8    4    5 ar
     9    4   16 1
    10    5    6 ar
    11    5    7 1
    12    6   20 1
    13    7    8 2
    14    7    9 am
    15    9   10 1
    16    9   21 1
    17   10   11 1
    18   10   12 1
    19   10   14 1
    20   12   13 1
    21   12   22 1
    22   12   23 1
    23   13   24 1
    24   14   15 2
    25   14   25 1
@<TRIPOS>MOLECULE
ZINC01541801
   45    47     0     0     0
SMALL
USER_CHARGES
N-(3-hydroxypropyl)-5-methyl-1-[4-[3-(trifluoromethyl)phenyl]thiazol-2-yl]-pyrazole-4-carboxamide
@<TRIPOS>ATOM
      1 C1          0.8127   10.3741    0.0537 C.3       1 <0>        -0.1089
      2 C2          2.0752    9.5515    0.0363 C.2       1 <0>         0.1682
      3 C3          3.3673   10.0371    0.0264 C.2       1 <0>        -0.2728
      4 C4          4.2333    8.9198    0.0116 C.2       1 <0>         0.0987
      5 N1          3.5014    7.8399    0.0187 N.2       1 <0>        -0.2541
      6 N2          2.1510    8.2071    0.0279 N.pl3     1 <0>        -0.2801
      7 C5          1.0684    7.3300    0.0335 C.2       1 <0>         0.3307
      8 N3          1.0627    6.0106    0.0260 N.2       1 <0>        -0.4885
      9 C6         -0.0702    5.3272    0.0328 C.2       1 <0>         0.1164
     10 C7         -1.2607    6.0018    0.0425 C.2       1 <0>        -0.2003
     11 S1         -0.6817    7.6936    0.0520 S.3       1 <0>         0.1002
     12 C8         -0.0501    3.8441    0.0236 C.ar      1 <0>        -0.0296
     13 C9         -1.2462    3.1281    0.0308 C.ar      1 <0>        -0.0702
     14 C10        -1.2215    1.7486    0.0174 C.ar      1 <0>        -0.1178
     15 C11        -0.0126    1.0758    0.0080 C.ar      1 <0>        -0.0637
     16 C12         1.1772    1.7810    0.0004 C.ar      1 <0>        -0.1837
     17 C13         1.1646    3.1612    0.0084 C.ar      1 <0>        -0.0334
     18 C14         2.4899    1.0410   -0.0161 C.3       1 <0>         0.5091
     19 F1          2.2485   -0.3370   -0.0212 F         1 <0>        -0.1761
     20 F2          3.2091    1.3927   -1.1635 F         1 <0>        -0.1744
     21 F3          3.2309    1.3804    1.1210 F         1 <0>        -0.1744
     22 C15         3.7690   11.4554    0.0313 C.2       1 <0>         0.6001
     23 O1          2.9215   12.3273    0.0452 O.2       1 <0>        -0.5378
     24 N4          5.0756   11.7858    0.0203 N.am      1 <0>        -0.7246
     25 C16         5.4749   13.1953    0.0252 C.3       1 <0>         0.1245
     26 C17         7.0017   13.2930    0.0106 C.3       1 <0>        -0.1351
     27 C18         7.4186   14.7651    0.0156 C.3       1 <0>         0.0789
     28 O2          8.8446   14.8563    0.0020 O.3       1 <0>        -0.5751
     29 H1          0.5184   10.5663    1.0855 H         1 <0>         0.1019
     30 H2          0.9891   11.3212   -0.4562 H         1 <0>         0.1230
     31 H3          0.0173    9.8299   -0.4555 H         1 <0>         0.0741
     32 H4          5.3127    8.9542    0.0013 H         1 <0>         0.2049
     33 H5         -2.2704    5.6185    0.0449 H         1 <0>         0.2117
     34 H6         -2.1904    3.6523    0.0430 H         1 <0>         0.1371
     35 H7         -2.1475    1.1929    0.0187 H         1 <0>         0.1425
     36 H8          0.0021   -0.0041    0.0020 H         1 <0>         0.1426
     37 H9          2.0942    3.7108    0.0024 H         1 <0>         0.1453
     38 H10         5.7517   11.0902    0.0092 H         1 <0>         0.4020
     39 H11         5.0706   13.6905   -0.8577 H         1 <0>         0.0731
     40 H12         5.0884   13.6793    0.9221 H         1 <0>         0.0731
     41 H13         7.4059   12.7978    0.8935 H         1 <0>         0.0786
     42 H14         7.3881   12.8090   -0.8864 H         1 <0>         0.0786
     43 H15         7.0144   15.2602   -0.8673 H         1 <0>         0.0504
     44 H16         7.0321   15.2491    0.9126 H         1 <0>         0.0504
     45 H17         9.1808   15.7630    0.0043 H         1 <0>         0.3846
@<TRIPOS>BOND
     1    1    2 1
     2    1   29 1
     3    1   30 1
     4    1   31 1
     5    2    6 1
     6    2    3 2
     7    3    4 1
     8    3   22 1
     9    4    5 2
    10    4   32 1
    11    5    6 1
    12    6    7 1
    13    7   11 1
    14    7    8 2
    15    8    9 1
    16    9   10 2
    17    9   12 1
    18   10   11 1
    19   10   33 1
    20   12   17 ar
    21   12   13 ar
    22   13   14 ar
    23   13   34 1
    24   14   15 ar
    25   14   35 1
    26   15   16 ar
    27   15   36 1
    28   16   17 ar
    29   16   18 1
    30   17   37 1
    31   18   19 1
    32   18   20 1
    33   18   21 1
    34   22   23 2
    35   22   24 am
    36   24   25 1
    37   24   38 1
    38   25   26 1
    39   25   39 1
    40   25   40 1
    41   26   27 1
    42   26   41 1
    43   26   42 1
    44   27   28 1
    45   27   43 1
    46   27   44 1
    47   28   45 1
