@<TRIPOS>MOLECULE
ZINC03927570
   57    56     0     0     0
SMALL
USER_CHARGES

@<TRIPOS>ATOM
      1 C1         -0.2597    1.2718    0.4427 C.3       1 <0>        -0.1469
      2 C2         -0.2839   -0.2560    0.3637 C.3       1 <0>        -0.1434
      3 C3         -1.7287   -0.7359    0.2120 C.3       1 <0>         0.0132
      4 H1         -2.1848   -0.2489   -0.6499 H         1 <0>         0.1703
      5 C4         -1.7434   -2.2294    0.0111 C.2       1 <0>         0.4926
      6 O1         -1.9933   -2.9642    0.9430 O.2       1 <0>        -0.5262
      7 N1         -1.4789   -2.7485   -1.2043 N.am      1 <0>        -0.6690
      8 C5         -1.4932   -4.2004   -1.3996 C.3       1 <0>         0.0931
      9 C6         -1.1680   -4.5171   -2.8366 C.2       1 <0>         0.5186
     10 O2         -0.9462   -3.6186   -3.6204 O.2       1 <0>        -0.5609
     11 N2         -1.1237   -5.7989   -3.2507 N.am      1 <0>        -0.6568
     12 C7         -0.9138   -6.1039   -4.6682 C.3       1 <0>         0.1598
     13 H2         -0.1954   -5.4002   -5.0887 H         1 <0>         0.1117
     14 C8         -0.3744   -7.5287   -4.8088 C.3       1 <0>        -0.1925
     15 C9          0.9972   -7.6100   -4.1897 C.2       1 <0>         0.4972
     16 O3          1.5392   -6.6001   -3.7740 O.co2     1 <0>        -0.7009
     17 O4          1.5648   -8.6856   -4.1045 O.co2     1 <0>        -0.6939
     18 C10        -2.2224   -5.9871   -5.4063 C.2       1 <0>         0.5098
     19 O5         -3.2311   -5.6794   -4.8074 O.2       1 <0>        -0.5631
     20 N3         -2.2719   -6.2246   -6.7321 N.am      1 <0>        -0.6861
     21 C11        -3.5440   -6.1110   -7.4496 C.3       1 <0>         0.0722
     22 H3         -4.1353   -5.3047   -7.0156 H         1 <0>         0.0880
     23 C12        -3.2724   -5.8073   -8.9244 C.3       1 <0>         0.0903
     24 O6         -2.5985   -6.9163   -9.5228 O.3       1 <0>        -0.5565
     25 C13        -4.3028   -7.4080   -7.3353 C.2       1 <0>         0.5006
     26 O7         -3.8251   -8.3408   -6.7122 O.co2     1 <0>        -0.6742
     27 O8         -5.3943   -7.5246   -7.8660 O.co2     1 <0>        -0.7069
     28 N4         -2.4870   -0.3974    1.4238 N.4       1 <0>        -0.6215
     29 C14         1.1851    1.7518    0.5944 C.3       1 <0>         0.0920
     30 N5          1.2083    3.2147    0.6701 N.pl3     1 <0>        -0.7008
     31 C15         2.3990    3.8736    0.8084 C.cat     1 <0>         0.7451
     32 N6          2.4201    5.2036    0.8772 N.pl3     1 <0>        -0.7917
     33 N7          3.5374    3.1852    0.8742 N.pl3     1 <0>        -0.7893
     34 H4         -0.6875    1.6896   -0.4686 H         1 <0>         0.1036
     35 H5         -0.8439    1.6005    1.3022 H         1 <0>         0.0786
     36 H6          0.3003   -0.5846   -0.4958 H         1 <0>         0.1315
     37 H7          0.1439   -0.6737    1.2750 H         1 <0>         0.1088
     38 H8         -1.2790   -2.1608   -1.9496 H         1 <0>         0.4197
     39 H9         -0.7505   -4.6618   -0.7488 H         1 <0>         0.1129
     40 H10        -2.4817   -4.5900   -1.1563 H         1 <0>         0.1137
     41 H11        -1.2309   -6.5195   -2.6103 H         1 <0>         0.4047
     42 H12        -1.0440   -8.2226   -4.3007 H         1 <0>         0.0754
     43 H13        -0.3124   -7.7912   -5.8649 H         1 <0>         0.0875
     44 H14        -1.4651   -6.4707   -7.2111 H         1 <0>         0.3975
     45 H15        -4.2172   -5.6351   -9.4399 H         1 <0>         0.0591
     46 H16        -2.6481   -4.9173   -9.0031 H         1 <0>         0.0343
     47 H17        -2.3939   -6.7932  -10.4599 H         1 <0>         0.3669
     48 H18        -2.0648   -0.8483    2.2216 H         1 <0>         0.4428
     49 H19        -2.4771    0.6026    1.5583 H         1 <0>         0.4331
     50 H20         1.6130    1.3340    1.5058 H         1 <0>         0.0989
     51 H21         1.7693    1.4231   -0.2651 H         1 <0>         0.1045
     52 H22         0.3793    3.7160    0.6221 H         1 <0>         0.4354
     53 H23         1.5911    5.7049    0.8292 H         1 <0>         0.4414
     54 H24         3.5220    2.2166    0.8241 H         1 <0>         0.4412
     55 H25         4.3818    3.6524    0.9723 H         1 <0>         0.4436
     56 H26         3.2645    5.6708    0.9752 H         1 <0>         0.4436
     57 H27        -3.4398   -0.7139    1.3237 H         1 <0>         0.4473
@<TRIPOS>BOND
     1    1    2 1
     2    1   29 1
     3    1   34 1
     4    1   35 1
     5    2    3 1
     6    2   36 1
     7    2   37 1
     8    3    4 1
     9    3    5 1
    10    3   28 1
    11    5    6 2
    12    5    7 am
    13    7    8 1
    14    7   38 1
    15    8    9 1
    16    8   39 1
    17    8   40 1
    18    9   10 2
    19    9   11 am
    20   11   12 1
    21   11   41 1
    22   12   13 1
    23   12   14 1
    24   12   18 1
    25   14   15 1
    26   14   42 1
    27   14   43 1
    28   15   16 2
    29   15   17 1
    30   18   19 2
    31   18   20 am
    32   20   21 1
    33   20   44 1
    34   21   22 1
    35   21   23 1
    36   21   25 1
    37   23   24 1
    38   23   45 1
    39   23   46 1
    40   24   47 1
    41   25   26 2
    42   25   27 1
    43   28   48 1
    44   28   49 1
    45   28   57 1
    46   29   30 1
    47   29   50 1
    48   29   51 1
    49   30   31 1
    50   30   52 1
    51   31   32 2
    52   31   33 1
    53   32   53 1
    54   32   56 1
    55   33   54 1
    56   33   55 1
@<TRIPOS>MOLECULE
ZINC01490484
   52    54     0     0     0
SMALL
USER_CHARGES
2-(2,6-dichlorobenzoyl)amino-3-[4-(2,6-dimethoxyphenyl)phenyl]-propanoic acid
@<TRIPOS>ATOM
      1 C1         -2.3739    0.0589    0.0241 C.3       1 <0>         0.0269
      2 O1         -1.1639   -0.7011    0.0089 O.3       1 <0>        -0.3005
      3 C2          0.0021   -0.0041    0.0020 C.ar      1 <0>         0.1761
      4 C3         -0.0167    1.3815    0.0096 C.ar      1 <0>        -0.2478
      5 C4          1.1688    2.0927    0.0021 C.ar      1 <0>        -0.0425
      6 C5          2.3816    1.4293   -0.0130 C.ar      1 <0>        -0.2470
      7 C6          2.4178    0.0440   -0.0207 C.ar      1 <0>         0.1782
      8 C7          1.2239   -0.6824   -0.0133 C.ar      1 <0>        -0.1078
      9 C8          1.2533   -2.1648   -0.0210 C.ar      1 <0>        -0.0385
     10 C9          0.7738   -2.8798    1.0752 C.ar      1 <0>        -0.0918
     11 C10         0.7997   -4.2595    1.0606 C.ar      1 <0>        -0.1156
     12 C11         1.3096   -4.9328   -0.0349 C.ar      1 <0>        -0.0621
     13 C12         1.7913   -4.2284   -1.1236 C.ar      1 <0>        -0.1149
     14 C13         1.7660   -2.8486   -1.1222 C.ar      1 <0>        -0.0883
     15 C14         1.3409   -6.4395   -0.0422 C.3       1 <0>        -0.0752
     16 C15         2.6645   -6.9249    0.5522 C.3       1 <0>         0.1121
     17 H1          2.7980   -6.4922    1.5436 H         1 <0>         0.0895
     18 C16         2.6462   -8.4281    0.6584 C.2       1 <0>         0.4584
     19 O2          3.4720   -9.0854    0.0704 O.co2     1 <0>        -0.6157
     20 N1          3.7703   -6.5101   -0.3147 N.am      1 <0>        -0.6794
     21 C17         5.0080   -6.3600    0.1972 C.2       1 <0>         0.5702
     22 O3          5.2068   -6.5688    1.3782 O.2       1 <0>        -0.5234
     23 C18         6.1228   -5.9418   -0.6767 C.ar      1 <0>        -0.1005
     24 C19         6.4073   -4.5849   -0.8512 C.ar      1 <0>        -0.0053
     25 C20         7.4553   -4.2019   -1.6650 C.ar      1 <0>        -0.1165
     26 C21         8.2150   -5.1572   -2.3159 C.ar      1 <0>        -0.0881
     27 C22         7.9356   -6.5022   -2.1530 C.ar      1 <0>        -0.1152
     28 C23         6.8949   -6.9010   -1.3376 C.ar      1 <0>        -0.0025
     29 Cl1         6.5461   -8.5894   -1.1347 Cl        1 <0>        -0.0136
     30 Cl2         5.4508   -3.3839   -0.0410 Cl        1 <0>        -0.0293
     31 O4          3.6105   -0.6060   -0.0352 O.3       1 <0>        -0.2954
     32 C24         4.7895    0.2015   -0.0421 C.3       1 <0>         0.0258
     33 H2         -2.4002    0.6825    0.9177 H         1 <0>         0.0552
     34 H3         -2.4165    0.6920   -0.8621 H         1 <0>         0.0548
     35 H4         -3.2282   -0.6181    0.0283 H         1 <0>         0.1012
     36 H5         -0.9601    1.9073    0.0169 H         1 <0>         0.1288
     37 H6          1.1474    3.1725    0.0081 H         1 <0>         0.1255
     38 H7          3.3033    1.9921   -0.0184 H         1 <0>         0.1291
     39 H8          0.3795   -2.3551    1.9329 H         1 <0>         0.1128
     40 H9          0.4246   -4.8146    1.9077 H         1 <0>         0.1225
     41 H10         2.1883   -4.7593   -1.9762 H         1 <0>         0.1142
     42 H11         2.1430   -2.2997   -1.9724 H         1 <0>         0.1119
     43 H12         0.5127   -6.8229    0.5538 H         1 <0>         0.0976
     44 H13         1.2488   -6.7999   -1.0667 H         1 <0>         0.0708
     45 H14         3.6117   -6.3435   -1.2570 H         1 <0>         0.3901
     46 H15         7.6792   -3.1537   -1.7974 H         1 <0>         0.1399
     47 H16         9.0302   -4.8514   -2.9549 H         1 <0>         0.1410
     48 H17         8.5331   -7.2423   -2.6645 H         1 <0>         0.1420
     49 H18         5.6699   -0.4410   -0.0535 H         1 <0>         0.0991
     50 H19         4.7906    0.8352   -0.9289 H         1 <0>         0.0561
     51 H20         4.8072    0.8262    0.8509 H         1 <0>         0.0551
     52 O5          1.7123   -9.0367    1.4063 O.co2     1 <0>        -0.7680
@<TRIPOS>BOND
     1    1    2 1
     2    1   33 1
     3    1   34 1
     4    1   35 1
     5    2    3 1
     6    3    8 ar
     7    3    4 ar
     8    4    5 ar
     9    4   36 1
    10    5    6 ar
    11    5   37 1
    12    6    7 ar
    13    6   38 1
    14    7    8 ar
    15    7   31 1
    16    8    9 1
    17    9   14 ar
    18    9   10 ar
    19   10   11 ar
    20   10   39 1
    21   11   12 ar
    22   11   40 1
    23   12   13 ar
    24   12   15 1
    25   13   14 ar
    26   13   41 1
    27   14   42 1
    28   15   16 1
    29   15   43 1
    30   15   44 1
    31   16   17 1
    32   16   18 1
    33   16   20 1
    34   18   19 2
    35   18   52 1
    36   20   21 am
    37   20   45 1
    38   21   22 2
    39   21   23 1
    40   23   28 ar
    41   23   24 ar
    42   24   25 ar
    43   24   30 1
    44   25   26 ar
    45   25   46 1
    46   26   27 ar
    47   26   47 1
    48   27   28 ar
    49   27   48 1
    50   28   29 1
    51   31   32 1
    52   32   49 1
    53   32   50 1
    54   32   51 1
