@<TRIPOS>MOLECULE
ZINC03782835
   62    64     0     0     0
SMALL
USER_CHARGES
2-[[1-[2-(4-amidinobenzoyl)amino-3-(4-hydroxyphenyl)-propanoyl]-4-piperidyl]oxy]acetic acid
@<TRIPOS>ATOM
      1 C1         -6.9680   -1.8027    0.0332 C.ar      1 <0>        -0.0853
      2 C2         -7.9229   -2.7826    0.2240 C.ar      1 <0>        -0.1327
      3 C3         -7.6434   -3.8734    1.0342 C.ar      1 <0>         0.1058
      4 C4         -6.4031   -3.9802    1.6464 C.ar      1 <0>        -0.1410
      5 C5         -5.4496   -3.0005    1.4480 C.ar      1 <0>        -0.0967
      6 C6         -5.7305   -1.9142    0.6400 C.ar      1 <0>        -0.0750
      7 C7         -4.6885   -0.8470    0.4253 C.3       1 <0>        -0.0922
      8 C8         -3.8333   -1.2066   -0.7913 C.3       1 <0>         0.1340
      9 H1         -4.4801   -1.3827   -1.6508 H         1 <0>         0.1195
     10 C9         -2.8908   -0.0710   -1.0962 C.2       1 <0>         0.5162
     11 O1         -1.7237   -0.1487   -0.7753 O.2       1 <0>        -0.5423
     12 N1         -3.3446    1.0310   -1.7255 N.am      1 <0>        -0.5983
     13 C10        -4.7237    1.0911   -2.2289 C.3       1 <0>         0.1009
     14 C11        -5.3960    2.3509   -1.6625 C.3       1 <0>        -0.1594
     15 C12        -4.5465    3.5756   -2.0101 C.3       1 <0>         0.0815
     16 C13        -3.1639    3.4382   -1.3686 C.3       1 <0>        -0.1313
     17 C14        -2.4680    2.1928   -1.9266 C.3       1 <0>         0.1158
     18 O2         -5.1858    4.7542   -1.5158 O.3       1 <0>        -0.3534
     19 C15        -6.0895    5.3579   -2.4436 C.3       1 <0>         0.0229
     20 C16        -6.7027    6.5856   -1.8209 C.2       1 <0>         0.4645
     21 O3         -6.3973    6.9103   -0.6979 O.co2     1 <0>        -0.6174
     22 N2         -3.0614   -2.4183   -0.5046 N.am      1 <0>        -0.7023
     23 C17        -3.6155   -3.6317   -0.6973 C.2       1 <0>         0.5448
     24 O4         -4.7556   -3.7207   -1.1090 O.2       1 <0>        -0.4909
     25 C18        -2.8362   -4.8551   -0.4078 C.ar      1 <0>        -0.0545
     26 C19        -1.5246   -4.7532    0.0596 C.ar      1 <0>        -0.0861
     27 C20        -0.8008   -5.8930    0.3336 C.ar      1 <0>        -0.0605
     28 C21        -1.3746   -7.1488    0.1340 C.ar      1 <0>        -0.1413
     29 C22        -2.6834   -7.2512   -0.3379 C.ar      1 <0>        -0.0671
     30 C23        -3.4099   -6.1121   -0.6073 C.ar      1 <0>        -0.0552
     31 C24        -0.5940   -8.3743    0.4240 C.cat     1 <0>         0.6000
     32 N3          0.6987   -8.2735    0.8902 N.pl3     1 <0>        -0.7791
     33 O5         -8.5830   -4.8362    1.2275 O.3       1 <0>        -0.5031
     34 H2         -7.1866   -0.9509   -0.5937 H         1 <0>         0.1265
     35 H3         -8.8878   -2.6972   -0.2538 H         1 <0>         0.1280
     36 H4         -6.1830   -4.8287    2.2774 H         1 <0>         0.1191
     37 H5         -4.4837   -3.0833    1.9241 H         1 <0>         0.1130
     38 H6         -4.0531   -0.7767    1.3081 H         1 <0>         0.0865
     39 H7         -5.1796    0.1110    0.2538 H         1 <0>         0.0981
     40 H8         -4.7135    1.1372   -3.3179 H         1 <0>         0.0800
     41 H9         -5.2703    0.2059   -1.9037 H         1 <0>         0.0873
     42 H10        -5.4832    2.2642   -0.5795 H         1 <0>         0.0785
     43 H11        -6.3883    2.4603   -2.1002 H         1 <0>         0.0836
     44 H12        -4.4392    3.6477   -3.0924 H         1 <0>         0.0573
     45 H13        -3.2721    3.3411   -0.2882 H         1 <0>         0.0767
     46 H14        -2.5674    4.3214   -1.5970 H         1 <0>         0.0875
     47 H15        -1.5257    2.0347   -1.4020 H         1 <0>         0.0983
     48 H16        -2.2775    2.3269   -2.9915 H         1 <0>         0.0740
     49 H17        -5.5483    5.6402   -3.3466 H         1 <0>         0.0519
     50 H18        -6.8764    4.6481   -2.6985 H         1 <0>         0.0506
     51 H19        -2.1515   -2.3473   -0.1761 H         1 <0>         0.4090
     52 H20        -1.0788   -3.7811    0.2102 H         1 <0>         0.1528
     53 H21         0.2123   -5.8144    0.6995 H         1 <0>         0.1441
     54 H22        -3.1272   -8.2237   -0.4920 H         1 <0>         0.1426
     55 H23        -4.4232   -6.1915   -0.9724 H         1 <0>         0.1623
     56 H24        -0.6989  -10.4067    0.3994 H         1 <0>         0.4446
     57 H25         1.0977   -7.4002    1.0287 H         1 <0>         0.4437
     58 H26         1.2099   -9.0758    1.0801 H         1 <0>         0.4316
     59 H27        -9.1628   -4.6736    1.9840 H         1 <0>         0.3904
     60 O6         -7.5884    7.3185   -2.5140 O.co2     1 <0>        -0.7627
     61 N4         -1.1949   -9.5347    0.2145 N.pl3     1 <0>        -0.7573
     62 H28        -2.1604   -9.5572   -0.1341 H         1 <0>         0.4612
@<TRIPOS>BOND
     1    1    6 ar
     2    1    2 ar
     3    1   34 1
     4    2    3 ar
     5    2   35 1
     6    3    4 ar
     7    3   33 1
     8    4    5 ar
     9    4   36 1
    10    5    6 ar
    11    5   37 1
    12    6    7 1
    13    7    8 1
    14    7   38 1
    15    7   39 1
    16    8    9 1
    17    8   10 1
    18    8   22 1
    19   10   11 2
    20   10   12 am
    21   12   17 1
    22   12   13 1
    23   13   14 1
    24   13   40 1
    25   13   41 1
    26   14   15 1
    27   14   42 1
    28   14   43 1
    29   15   16 1
    30   15   18 1
    31   15   44 1
    32   16   17 1
    33   16   45 1
    34   16   46 1
    35   17   47 1
    36   17   48 1
    37   18   19 1
    38   19   20 1
    39   19   49 1
    40   19   50 1
    41   20   21 2
    42   20   60 1
    43   22   23 am
    44   22   51 1
    45   23   24 2
    46   23   25 1
    47   25   30 ar
    48   25   26 ar
    49   26   27 ar
    50   26   52 1
    51   27   28 ar
    52   27   53 1
    53   28   29 ar
    54   28   31 1
    55   29   30 ar
    56   29   54 1
    57   30   55 1
    58   31   32 1
    59   31   61 2
    60   32   57 1
    61   32   58 1
    62   33   59 1
    63   56   61 1
    64   61   62 1
@<TRIPOS>MOLECULE
ZINC03927570
   57    56     0     0     0
SMALL
USER_CHARGES

@<TRIPOS>ATOM
      1 C1         -0.2597    1.2718    0.4427 C.3       1 <0>        -0.1469
      2 C2         -0.2839   -0.2560    0.3637 C.3       1 <0>        -0.1434
      3 C3         -1.7287   -0.7359    0.2120 C.3       1 <0>         0.0132
      4 H1         -2.1848   -0.2489   -0.6499 H         1 <0>         0.1703
      5 C4         -1.7434   -2.2294    0.0111 C.2       1 <0>         0.4926
      6 O1         -1.9933   -2.9642    0.9430 O.2       1 <0>        -0.5262
      7 N1         -1.4789   -2.7485   -1.2043 N.am      1 <0>        -0.6690
      8 C5         -1.4932   -4.2004   -1.3996 C.3       1 <0>         0.0931
      9 C6         -1.1680   -4.5171   -2.8366 C.2       1 <0>         0.5186
     10 O2         -0.9462   -3.6186   -3.6204 O.2       1 <0>        -0.5609
     11 N2         -1.1237   -5.7989   -3.2507 N.am      1 <0>        -0.6568
     12 C7         -0.9138   -6.1039   -4.6682 C.3       1 <0>         0.1598
     13 H2         -0.1954   -5.4002   -5.0887 H         1 <0>         0.1117
     14 C8         -0.3744   -7.5287   -4.8088 C.3       1 <0>        -0.1925
     15 C9          0.9972   -7.6100   -4.1897 C.2       1 <0>         0.4972
     16 O3          1.5392   -6.6001   -3.7740 O.co2     1 <0>        -0.7009
     17 O4          1.5648   -8.6856   -4.1045 O.co2     1 <0>        -0.6939
     18 C10        -2.2224   -5.9871   -5.4063 C.2       1 <0>         0.5098
     19 O5         -3.2311   -5.6794   -4.8074 O.2       1 <0>        -0.5631
     20 N3         -2.2719   -6.2246   -6.7321 N.am      1 <0>        -0.6861
     21 C11        -3.5440   -6.1110   -7.4496 C.3       1 <0>         0.0722
     22 H3         -4.1353   -5.3047   -7.0156 H         1 <0>         0.0880
     23 C12        -3.2724   -5.8073   -8.9244 C.3       1 <0>         0.0903
     24 O6         -2.5985   -6.9163   -9.5228 O.3       1 <0>        -0.5565
     25 C13        -4.3028   -7.4080   -7.3353 C.2       1 <0>         0.5006
     26 O7         -3.8251   -8.3408   -6.7122 O.co2     1 <0>        -0.6742
     27 O8         -5.3943   -7.5246   -7.8660 O.co2     1 <0>        -0.7069
     28 N4         -2.4870   -0.3974    1.4238 N.4       1 <0>        -0.6215
     29 C14         1.1851    1.7518    0.5944 C.3       1 <0>         0.0920
     30 N5          1.2083    3.2147    0.6701 N.pl3     1 <0>        -0.7008
     31 C15         2.3990    3.8736    0.8084 C.cat     1 <0>         0.7451
     32 N6          2.4201    5.2036    0.8772 N.pl3     1 <0>        -0.7917
     33 N7          3.5374    3.1852    0.8742 N.pl3     1 <0>        -0.7893
     34 H4         -0.6875    1.6896   -0.4686 H         1 <0>         0.1036
     35 H5         -0.8439    1.6005    1.3022 H         1 <0>         0.0786
     36 H6          0.3003   -0.5846   -0.4958 H         1 <0>         0.1315
     37 H7          0.1439   -0.6737    1.2750 H         1 <0>         0.1088
     38 H8         -1.2790   -2.1608   -1.9496 H         1 <0>         0.4197
     39 H9         -0.7505   -4.6618   -0.7488 H         1 <0>         0.1129
     40 H10        -2.4817   -4.5900   -1.1563 H         1 <0>         0.1137
     41 H11        -1.2309   -6.5195   -2.6103 H         1 <0>         0.4047
     42 H12        -1.0440   -8.2226   -4.3007 H         1 <0>         0.0754
     43 H13        -0.3124   -7.7912   -5.8649 H         1 <0>         0.0875
     44 H14        -1.4651   -6.4707   -7.2111 H         1 <0>         0.3975
     45 H15        -4.2172   -5.6351   -9.4399 H         1 <0>         0.0591
     46 H16        -2.6481   -4.9173   -9.0031 H         1 <0>         0.0343
     47 H17        -2.3939   -6.7932  -10.4599 H         1 <0>         0.3669
     48 H18        -2.0648   -0.8483    2.2216 H         1 <0>         0.4428
     49 H19        -2.4771    0.6026    1.5583 H         1 <0>         0.4331
     50 H20         1.6130    1.3340    1.5058 H         1 <0>         0.0989
     51 H21         1.7693    1.4231   -0.2651 H         1 <0>         0.1045
     52 H22         0.3793    3.7160    0.6221 H         1 <0>         0.4354
     53 H23         1.5911    5.7049    0.8292 H         1 <0>         0.4414
     54 H24         3.5220    2.2166    0.8241 H         1 <0>         0.4412
     55 H25         4.3818    3.6524    0.9723 H         1 <0>         0.4436
     56 H26         3.2645    5.6708    0.9752 H         1 <0>         0.4436
     57 H27        -3.4398   -0.7139    1.3237 H         1 <0>         0.4473
@<TRIPOS>BOND
     1    1    2 1
     2    1   29 1
     3    1   34 1
     4    1   35 1
     5    2    3 1
     6    2   36 1
     7    2   37 1
     8    3    4 1
     9    3    5 1
    10    3   28 1
    11    5    6 2
    12    5    7 am
    13    7    8 1
    14    7   38 1
    15    8    9 1
    16    8   39 1
    17    8   40 1
    18    9   10 2
    19    9   11 am
    20   11   12 1
    21   11   41 1
    22   12   13 1
    23   12   14 1
    24   12   18 1
    25   14   15 1
    26   14   42 1
    27   14   43 1
    28   15   16 2
    29   15   17 1
    30   18   19 2
    31   18   20 am
    32   20   21 1
    33   20   44 1
    34   21   22 1
    35   21   23 1
    36   21   25 1
    37   23   24 1
    38   23   45 1
    39   23   46 1
    40   24   47 1
    41   25   26 2
    42   25   27 1
    43   28   48 1
    44   28   49 1
    45   28   57 1
    46   29   30 1
    47   29   50 1
    48   29   51 1
    49   30   31 1
    50   30   52 1
    51   31   32 2
    52   31   33 1
    53   32   53 1
    54   32   56 1
    55   33   54 1
    56   33   55 1
@<TRIPOS>MOLECULE
ZINC15721320
   57    56     0     0     0
SMALL
USER_CHARGES

@<TRIPOS>ATOM
      1 C1         -0.2597    1.2718    0.4427 C.3       1 <0>        -0.1488
      2 C2         -0.2839   -0.2560    0.3637 C.3       1 <0>        -0.1437
      3 C3         -1.7287   -0.7359    0.2120 C.3       1 <0>         0.0130
      4 H1         -2.1848   -0.2489   -0.6499 H         1 <0>         0.1710
      5 C4         -1.7434   -2.2294    0.0111 C.2       1 <0>         0.4927
      6 O1         -1.9933   -2.9642    0.9430 O.2       1 <0>        -0.5264
      7 N1         -1.4789   -2.7485   -1.2043 N.am      1 <0>        -0.6685
      8 C5         -1.4932   -4.2004   -1.3996 C.3       1 <0>         0.0931
      9 C6         -1.1680   -4.5171   -2.8366 C.2       1 <0>         0.5182
     10 O2         -0.9462   -3.6186   -3.6204 O.2       1 <0>        -0.5558
     11 N2         -1.1237   -5.7989   -3.2507 N.am      1 <0>        -0.6589
     12 C7         -0.9138   -6.1039   -4.6682 C.3       1 <0>         0.1597
     13 H2         -0.1954   -5.4002   -5.0887 H         1 <0>         0.1157
     14 C8         -0.3744   -7.5287   -4.8088 C.3       1 <0>        -0.1940
     15 C9          0.9972   -7.6100   -4.1897 C.2       1 <0>         0.4974
     16 O3          1.5392   -6.6001   -3.7740 O.co2     1 <0>        -0.6987
     17 O4          1.5648   -8.6856   -4.1045 O.co2     1 <0>        -0.6943
     18 C10        -2.2224   -5.9871   -5.4063 C.2       1 <0>         0.5085
     19 O5         -3.2311   -5.6794   -4.8073 O.2       1 <0>        -0.5585
     20 N3         -2.2719   -6.2246   -6.7321 N.am      1 <0>        -0.6875
     21 C11        -3.5440   -6.1110   -7.4496 C.3       1 <0>         0.0972
     22 H3         -4.1353   -5.3047   -7.0156 H         1 <0>         0.0902
     23 C12        -3.2724   -5.8073   -8.9244 C.3       1 <0>        -0.0502
     24 S1         -2.3591   -4.2461   -9.0620 S.3       1 <0>        -0.2603
     25 C13        -4.3028   -7.4080   -7.3353 C.2       1 <0>         0.4973
     26 O6         -5.5219   -7.4043   -7.3483 O.co2     1 <0>        -0.6908
     27 O7         -3.6975   -8.4611   -7.2299 O.co2     1 <0>        -0.6729
     28 N4         -2.4870   -0.3974    1.4238 N.4       1 <0>        -0.6216
     29 C14         1.1851    1.7518    0.5944 C.3       1 <0>         0.0822
     30 N5          1.2083    3.2147    0.6701 N.pl3     1 <0>        -0.6641
     31 C15         2.3430    3.8425    0.8019 C.cat     1 <0>         0.7419
     32 N6          3.5180    3.1320    0.8698 N.pl3     1 <0>        -0.8077
     33 N7          2.3647    5.2153    0.8729 N.pl3     1 <0>        -0.8111
     34 H4         -0.6875    1.6896   -0.4686 H         1 <0>         0.1054
     35 H5         -0.8439    1.6005    1.3022 H         1 <0>         0.0799
     36 H6          0.3003   -0.5846   -0.4958 H         1 <0>         0.1325
     37 H7          0.1439   -0.6737    1.2750 H         1 <0>         0.1094
     38 H8         -1.2790   -2.1608   -1.9496 H         1 <0>         0.4201
     39 H9         -0.7505   -4.6618   -0.7488 H         1 <0>         0.1126
     40 H10        -2.4817   -4.5900   -1.1563 H         1 <0>         0.1135
     41 H11        -1.2309   -6.5195   -2.6103 H         1 <0>         0.4040
     42 H12        -1.0440   -8.2226   -4.3007 H         1 <0>         0.0734
     43 H13        -0.3124   -7.7912   -5.8649 H         1 <0>         0.0880
     44 H14        -1.4651   -6.4707   -7.2111 H         1 <0>         0.3983
     45 H15        -2.6811   -6.6136   -9.3584 H         1 <0>         0.0884
     46 H16        -4.2189   -5.7228   -9.4583 H         1 <0>         0.0956
     47 H17        -2.1818   -4.0884  -10.3859 H         1 <0>         0.0728
     48 H18        -2.0648   -0.8483    2.2216 H         1 <0>         0.4428
     49 H19        -2.4771    0.6026    1.5583 H         1 <0>         0.4329
     50 H20         1.6130    1.3340    1.5057 H         1 <0>         0.1067
     51 H21         1.7693    1.4231   -0.2651 H         1 <0>         0.1125
     52 H22         3.5026    2.1634    0.8197 H         1 <0>         0.4389
     53 H23         4.3623    3.5992    0.9679 H         1 <0>         0.4414
     54 H24         1.5357    5.7167    0.8249 H         1 <0>         0.4389
     55 H25         3.2091    5.6826    0.9709 H         1 <0>         0.4415
     56 H26         0.3793    3.7160    0.6221 H         1 <0>         0.4388
     57 H27        -3.4398   -0.7139    1.3237 H         1 <0>         0.4476
@<TRIPOS>BOND
     1    1    2 1
     2    1   29 1
     3    1   34 1
     4    1   35 1
     5    2    3 1
     6    2   36 1
     7    2   37 1
     8    3    4 1
     9    3    5 1
    10    3   28 1
    11    5    6 2
    12    5    7 am
    13    7    8 1
    14    7   38 1
    15    8    9 1
    16    8   39 1
    17    8   40 1
    18    9   10 2
    19    9   11 am
    20   11   12 1
    21   11   41 1
    22   12   13 1
    23   12   14 1
    24   12   18 1
    25   14   15 1
    26   14   42 1
    27   14   43 1
    28   15   16 2
    29   15   17 1
    30   18   19 2
    31   18   20 am
    32   20   21 1
    33   20   44 1
    34   21   22 1
    35   21   23 1
    36   21   25 1
    37   23   24 1
    38   23   45 1
    39   23   46 1
    40   24   47 1
    41   25   26 2
    42   25   27 1
    43   28   48 1
    44   28   49 1
    45   28   57 1
    46   29   30 1
    47   29   50 1
    48   29   51 1
    49   30   31 2
    50   30   56 1
    51   31   32 1
    52   31   33 1
    53   32   52 1
    54   32   53 1
    55   33   54 1
    56   33   55 1
@<TRIPOS>MOLECULE
ZINC03920638
   66    66     0     0     0
SMALL
USER_CHARGES

@<TRIPOS>ATOM
      1 C1          1.5289    0.1436   -0.7615 C.ar      1 <0>        -0.1390
      2 C2          2.8419   -0.1591   -0.4525 C.ar      1 <0>        -0.1220
      3 C3          3.2287   -1.4768   -0.2949 C.ar      1 <0>        -0.1177
      4 C4          2.3025   -2.4918   -0.4462 C.ar      1 <0>        -0.0581
      5 C5          0.9907   -2.1894   -0.7604 C.ar      1 <0>        -0.1156
      6 C6          0.6028   -0.8714   -0.9128 C.ar      1 <0>        -0.1202
      7 C7          2.7243   -3.9284   -0.2749 C.3       1 <0>        -0.0785
      8 C8          2.5541   -4.3387    1.1892 C.3       1 <0>         0.1158
      9 H1          1.5282   -4.1465    1.5036 H         1 <0>         0.0847
     10 C9          2.8582   -5.8072    1.3381 C.2       1 <0>         0.4488
     11 O1          3.7518   -6.1683    2.0667 O.co2     1 <0>        -0.5927
     12 N1          3.4742   -3.5624    2.0241 N.am      1 <0>        -0.6967
     13 C10         3.1925   -3.3568    3.3259 C.2       1 <0>         0.5333
     14 O2          2.1772   -3.8143    3.8063 O.2       1 <0>        -0.5312
     15 C11         4.1390   -2.5582    4.1847 C.3       1 <0>         0.1495
     16 H2          4.2409   -1.5531    3.7754 H         1 <0>         0.0969
     17 C12         5.5078   -3.2413    4.2062 C.3       1 <0>        -0.1683
     18 C13         5.3806   -4.6012    4.8430 C.2       1 <0>         0.4669
     19 O3          4.2940   -5.0154    5.1712 O.co2     1 <0>        -0.6084
     20 N2          3.6115   -2.4787    5.5491 N.am      1 <0>        -0.6560
     21 C14         3.9172   -1.4231    6.3294 C.2       1 <0>         0.5006
     22 O4          4.6992   -0.5840    5.9352 O.2       1 <0>        -0.5707
     23 C15         3.2873   -1.2854    7.6914 C.3       1 <0>         0.0926
     24 N3          3.7783   -0.0645    8.3354 N.am      1 <0>        -0.6724
     25 C16         3.3484    0.2663    9.5691 C.2       1 <0>         0.4912
     26 O5          2.5551   -0.4467   10.1464 O.2       1 <0>        -0.5224
     27 C17         3.8535    1.5223   10.2315 C.3       1 <0>         0.0182
     28 H3          3.9179    2.3216    9.4933 H         1 <0>         0.1679
     29 C18         5.2395    1.2635   10.8254 C.3       1 <0>        -0.1420
     30 C19         5.8052    2.5692   11.3878 C.3       1 <0>        -0.1451
     31 C20         7.1913    2.3105   11.9818 C.3       1 <0>         0.0909
     32 N4          7.7328    3.5606   12.5202 N.pl3     1 <0>        -0.7048
     33 C21         8.9754    3.5745   13.1084 C.cat     1 <0>         0.7425
     34 N5          9.4837    4.7477   13.6138 N.pl3     1 <0>        -0.8040
     35 H4          1.2268    1.1731   -0.8850 H         1 <0>         0.1125
     36 H5          3.5655    0.6339   -0.3346 H         1 <0>         0.1147
     37 H6          4.2545   -1.7134   -0.0538 H         1 <0>         0.1184
     38 H7          0.2681   -2.9826   -0.8830 H         1 <0>         0.1241
     39 H8         -0.4229   -0.6349   -1.1546 H         1 <0>         0.1162
     40 H9          2.1052   -4.5666   -0.9053 H         1 <0>         0.0977
     41 H10         3.7698   -4.0371   -0.5634 H         1 <0>         0.0722
     42 H11         4.2861   -3.1964    1.6399 H         1 <0>         0.3860
     43 H12         5.8752   -3.3508    3.1859 H         1 <0>         0.0791
     44 H13         6.2075   -2.6349    4.7813 H         1 <0>         0.0687
     45 H14         3.0421   -3.1857    5.8910 H         1 <0>         0.4248
     46 H15         2.2037   -1.2304    7.5868 H         1 <0>         0.1144
     47 H16         3.5500   -2.1491    8.3022 H         1 <0>         0.1157
     48 H17         4.4128    0.5058    7.8738 H         1 <0>         0.4192
     49 H18         5.1604    0.5275   11.6253 H         1 <0>         0.1089
     50 H19         5.9031    0.8852   10.0479 H         1 <0>         0.1308
     51 H20         5.8842    3.3053   10.5878 H         1 <0>         0.1026
     52 H21         5.1415    2.9475   12.1654 H         1 <0>         0.0792
     53 H22         7.1122    1.5744   12.7817 H         1 <0>         0.0988
     54 H23         7.8549    1.9322   11.2042 H         1 <0>         0.1041
     55 H24         7.2148    4.3787   12.4618 H         1 <0>         0.4329
     56 H25        10.5582    2.3838   13.5834 H         1 <0>         0.4552
     57 H26         8.9656    5.5657   13.5554 H         1 <0>         0.4404
     58 H27        10.3604    4.7576   14.0287 H         1 <0>         0.4415
     59 H28         2.8510    1.1924   11.9992 H         1 <0>         0.4455
     60 H29         3.2100    2.7919   11.7188 H         1 <0>         0.4359
     61 O6          2.1363   -6.7140    0.6611 O.co2     1 <0>        -0.7797
     62 O7          6.4745   -5.3523    5.0458 O.co2     1 <0>        -0.7786
     63 N6          9.6324    2.4247   13.1569 N.pl3     1 <0>        -0.7917
     64 H30         9.2097    1.5750   12.7652 H         1 <0>         0.4568
     65 N7          2.9068    1.9199   11.2883 N.4       1 <0>        -0.6310
     66 H31         1.9769    2.0561   10.8747 H         1 <0>         0.4514
@<TRIPOS>BOND
     1    1    6 ar
     2    1    2 ar
     3    1   35 1
     4    2    3 ar
     5    2   36 1
     6    3    4 ar
     7    3   37 1
     8    4    5 ar
     9    4    7 1
    10    5    6 ar
    11    5   38 1
    12    6   39 1
    13    7    8 1
    14    7   40 1
    15    7   41 1
    16    8    9 1
    17    8   10 1
    18    8   12 1
    19   10   11 2
    20   10   61 1
    21   12   13 am
    22   12   42 1
    23   13   14 2
    24   13   15 1
    25   15   16 1
    26   15   17 1
    27   15   20 1
    28   17   18 1
    29   17   43 1
    30   17   44 1
    31   18   19 2
    32   18   62 1
    33   20   21 am
    34   20   45 1
    35   21   22 2
    36   21   23 1
    37   23   24 1
    38   23   46 1
    39   23   47 1
    40   24   25 am
    41   24   48 1
    42   25   26 2
    43   25   27 1
    44   27   28 1
    45   27   29 1
    46   27   65 1
    47   29   30 1
    48   29   49 1
    49   29   50 1
    50   30   31 1
    51   30   51 1
    52   30   52 1
    53   31   32 1
    54   31   53 1
    55   31   54 1
    56   32   33 1
    57   32   55 1
    58   33   34 1
    59   33   63 2
    60   34   57 1
    61   34   58 1
    62   56   63 1
    63   59   65 1
    64   60   65 1
    65   63   64 1
    66   65   66 1
@<TRIPOS>MOLECULE
ZINC13532268
   46    45     0     0     0
SMALL
USER_CHARGES
(2S)-2-[[2-[[(2S)-2-amino-5-guanidino-pentanoyl]amino]acetyl]amino]butanedioic acid
@<TRIPOS>ATOM
      1 C1          7.1555    4.6800   -0.9335 C.3       1 <0>        -0.1544
      2 C2          5.9155    3.8449   -0.6078 C.3       1 <0>        -0.1467
      3 C3          5.7823    3.7000    0.9094 C.3       1 <0>         0.0175
      4 H1          5.7739    4.6881    1.3693 H         1 <0>         0.1682
      5 C4          4.4970    2.9835    1.2347 C.2       1 <0>         0.4921
      6 O1          4.5129    1.8002    1.5003 O.2       1 <0>        -0.5314
      7 N1          3.3300    3.6576    1.2304 N.am      1 <0>        -0.6646
      8 C5          2.0806    2.9611    1.5465 C.3       1 <0>         0.0937
      9 C6          0.9312    3.9329    1.4727 C.2       1 <0>         0.5095
     10 O2          1.1355    5.0931    1.1843 O.2       1 <0>        -0.5669
     11 N2         -0.3240    3.5127    1.7271 N.am      1 <0>        -0.6501
     12 C7         -1.4421    4.4561    1.6493 C.3       1 <0>         0.1242
     13 H2         -1.2543    5.1773    0.8539 H         1 <0>         0.0915
     14 C8         -2.7338    3.6924    1.3508 C.3       1 <0>        -0.1547
     15 C9         -2.6434    3.0678   -0.0176 C.2       1 <0>         0.4646
     16 O3         -1.6478    3.2181   -0.6857 O.co2     1 <0>        -0.6465
     17 C10        -1.5795    5.1815    2.9631 C.2       1 <0>         0.4625
     18 O4         -0.8213    4.9357    3.8712 O.co2     1 <0>        -0.6474
     19 C11         7.2888    4.8248   -2.4508 C.3       1 <0>         0.0983
     20 C12         9.5205    5.1946   -3.4243 C.cat     1 <0>         0.7404
     21 N3          9.5028    3.9439   -3.9949 N.pl3     1 <0>        -0.8063
     22 N4         10.6340    5.9913   -3.5487 N.pl3     1 <0>        -0.8101
     23 H3          7.0578    5.6669   -0.4815 H         1 <0>         0.1037
     24 H4          8.0416    4.1847   -0.5366 H         1 <0>         0.0723
     25 H5          6.0133    2.8579   -1.0599 H         1 <0>         0.1068
     26 H6          5.0295    4.3401   -1.0048 H         1 <0>         0.1331
     27 H7          3.3173    4.6040    1.0179 H         1 <0>         0.4198
     28 H8          2.1408    2.5454    2.5524 H         1 <0>         0.1086
     29 H9          1.9220    2.1557    0.8295 H         1 <0>         0.1098
     30 H10        -0.4874    2.5849    1.9577 H         1 <0>         0.3933
     31 H11        -2.8752    2.9116    2.0980 H         1 <0>         0.0635
     32 H12        -3.5782    4.3811    1.3808 H         1 <0>         0.0924
     33 H13         6.8881    2.8728    2.4363 H         1 <0>         0.4486
     34 H14         6.9484    2.0068    1.0177 H         1 <0>         0.4438
     35 H15         7.3864    3.8378   -2.9028 H         1 <0>         0.1066
     36 H16         6.4026    5.3200   -2.8478 H         1 <0>         0.1229
     37 H17         8.6752    3.4394   -4.0319 H         1 <0>         0.4374
     38 H18        10.3179    3.5661   -4.3605 H         1 <0>         0.4416
     39 H19        10.6465    6.8737   -3.1461 H         1 <0>         0.4395
     40 H20        11.4072    5.6710   -4.0392 H         1 <0>         0.4387
     41 O5         -3.6687    2.3446   -0.4944 O.co2     1 <0>        -0.7787
     42 O6         -2.5443    6.1007    3.1244 O.co2     1 <0>        -0.7621
     43 N5          6.9377    2.9421    1.4212 N.4       1 <0>        -0.6298
     44 H21         7.8032    3.4292    1.1606 H         1 <0>         0.4342
     45 N6          8.4817    5.6923   -2.7422 N.pl3     1 <0>        -0.6874
     46 H22         8.4996    6.6664   -2.4182 H         1 <0>         0.4578
@<TRIPOS>BOND
     1    1    2 1
     2    1   19 1
     3    1   23 1
     4    1   24 1
     5    2    3 1
     6    2   25 1
     7    2   26 1
     8    3    4 1
     9    3    5 1
    10    3   43 1
    11    5    6 2
    12    5    7 am
    13    7    8 1
    14    7   27 1
    15    8    9 1
    16    8   28 1
    17    8   29 1
    18    9   10 2
    19    9   11 am
    20   11   12 1
    21   11   30 1
    22   12   13 1
    23   12   14 1
    24   12   17 1
    25   14   15 1
    26   14   31 1
    27   14   32 1
    28   15   16 2
    29   15   41 1
    30   17   18 2
    31   17   42 1
    32   19   35 1
    33   19   36 1
    34   19   45 1
    35   20   21 1
    36   20   22 1
    37   20   45 2
    38   21   37 1
    39   21   38 1
    40   22   39 1
    41   22   40 1
    42   33   43 1
    43   34   43 1
    44   43   44 1
    45   45   46 1
@<TRIPOS>MOLECULE
ZINC03918297
   58    58     0     0     0
SMALL
USER_CHARGES
2-[2-[4-(4-amidinophenoxy)butanoylamino]-3-carboxy-propanoyl]amino-3-methyl-butanoic acid
@<TRIPOS>ATOM
      1 C1         -2.2980   14.7209   -1.8906 C.3       1 <0>        -0.1450
      2 C2         -2.7171   13.4128   -2.5647 C.3       1 <0>        -0.0812
      3 C3         -3.2372   13.7086   -3.9728 C.3       1 <0>        -0.1527
      4 C4         -1.5113   12.4753   -2.6529 C.3       1 <0>         0.1032
      5 H1         -1.7868   11.5807   -3.2113 H         1 <0>         0.0812
      6 C5         -0.3790   13.1779   -3.3566 C.2       1 <0>         0.4652
      7 O1          0.6741   13.3455   -2.7886 O.co2     1 <0>        -0.6235
      8 N1         -1.0871   12.0969   -1.3026 N.am      1 <0>        -0.7002
      9 C6         -0.4193   10.9431   -1.1046 C.2       1 <0>         0.5122
     10 O2         -0.1694   10.2181   -2.0442 O.2       1 <0>        -0.5533
     11 C7          0.0170   10.5538    0.2844 C.3       1 <0>         0.1531
     12 H2         -0.8577   10.4657    0.9286 H         1 <0>         0.1103
     13 C8          0.9559   11.6250    0.8429 C.3       1 <0>        -0.1633
     14 C9          1.2826   11.3071    2.2794 C.2       1 <0>         0.4657
     15 O3          0.7355   10.3830    2.8330 O.co2     1 <0>        -0.6350
     16 N2          0.7178    9.2684    0.2338 N.am      1 <0>        -0.6781
     17 C10         0.0153    8.1186    0.2029 C.2       1 <0>         0.5252
     18 O4         -1.1929    8.1433    0.3061 O.2       1 <0>        -0.5529
     19 C11         0.7309    6.8024    0.0399 C.3       1 <0>        -0.1354
     20 C12        -0.2907    5.6634    0.0366 C.3       1 <0>        -0.1034
     21 C13         0.4359    4.3272   -0.1289 C.3       1 <0>         0.0513
     22 O5         -0.5183    3.2634   -0.1320 O.3       1 <0>        -0.2878
     23 C14        -0.0349    2.0022   -0.2712 C.ar      1 <0>         0.2174
     24 C15        -0.9089    0.9224   -0.2822 C.ar      1 <0>        -0.1530
     25 C16        -0.4219   -0.3588   -0.4237 C.ar      1 <0>        -0.0200
     26 C17         0.9513   -0.5709   -0.5560 C.ar      1 <0>        -0.2172
     27 C18         1.8264    0.5163   -0.5445 C.ar      1 <0>        -0.0076
     28 C19         1.3324    1.7947   -0.4026 C.ar      1 <0>        -0.2135
     29 C20         1.4779   -1.9449   -0.7077 C.cat     1 <0>         0.6052
     30 N3          2.8339   -2.1527   -0.8381 N.pl3     1 <0>        -0.7884
     31 H3         -1.5107   15.1954   -2.4764 H         1 <0>         0.0661
     32 H4         -3.1570   15.3888   -1.8279 H         1 <0>         0.0468
     33 H5         -1.9275   14.5102   -0.8875 H         1 <0>         0.0477
     34 H6         -3.5043   12.9383   -1.9789 H         1 <0>         0.0570
     35 H7         -3.5358   12.7768   -4.4531 H         1 <0>         0.0408
     36 H8         -4.0963   14.3766   -3.9100 H         1 <0>         0.0347
     37 H9         -2.4501   14.1833   -4.5587 H         1 <0>         0.1055
     38 H10        -1.2869   12.6768   -0.5512 H         1 <0>         0.3924
     39 H11         1.8749   11.6439    0.2570 H         1 <0>         0.0787
     40 H12         0.4697   12.5990    0.7878 H         1 <0>         0.0873
     41 H13         1.6875    9.2447    0.2226 H         1 <0>         0.3994
     42 H14         1.4278    6.6630    0.8663 H         1 <0>         0.0946
     43 H15         1.2794    6.8013   -0.9021 H         1 <0>         0.0952
     44 H16        -0.9876    5.8028   -0.7899 H         1 <0>         0.0870
     45 H17        -0.8392    5.6646    0.9785 H         1 <0>         0.0873
     46 H18         1.1328    4.1878    0.6975 H         1 <0>         0.0766
     47 H19         0.9844    4.3260   -1.0707 H         1 <0>         0.0764
     48 H20        -1.9717    1.0877   -0.1843 H         1 <0>         0.1568
     49 H21        -1.1019   -1.1978   -0.4320 H         1 <0>         0.1393
     50 H22         2.8895    0.3556   -0.6462 H         1 <0>         0.1383
     51 H23         2.0091    2.6365   -0.3935 H         1 <0>         0.1556
     52 H24         0.9083   -3.8975   -0.8121 H         1 <0>         0.4394
     53 H25         3.4432   -1.3978   -0.8306 H         1 <0>         0.4418
     54 H26         3.1793   -3.0536   -0.9376 H         1 <0>         0.4274
     55 O6         -0.5405   13.6177   -4.6145 O.co2     1 <0>        -0.7679
     56 O7          2.1812   12.0506    2.9437 O.co2     1 <0>        -0.7716
     57 N4          0.5943   -2.9323   -0.7103 N.pl3     1 <0>        -0.7690
     58 H27        -0.4065   -2.7259   -0.6100 H         1 <0>         0.4583
@<TRIPOS>BOND
     1    1    2 1
     2    1   31 1
     3    1   32 1
     4    1   33 1
     5    2    3 1
     6    2    4 1
     7    2   34 1
     8    3   35 1
     9    3   36 1
    10    3   37 1
    11    4    5 1
    12    4    6 1
    13    4    8 1
    14    6    7 2
    15    6   55 1
    16    8    9 am
    17    8   38 1
    18    9   10 2
    19    9   11 1
    20   11   12 1
    21   11   13 1
    22   11   16 1
    23   13   14 1
    24   13   39 1
    25   13   40 1
    26   14   15 2
    27   14   56 1
    28   16   17 am
    29   16   41 1
    30   17   18 2
    31   17   19 1
    32   19   20 1
    33   19   42 1
    34   19   43 1
    35   20   21 1
    36   20   44 1
    37   20   45 1
    38   21   22 1
    39   21   46 1
    40   21   47 1
    41   22   23 1
    42   23   28 ar
    43   23   24 ar
    44   24   25 ar
    45   24   48 1
    46   25   26 ar
    47   25   49 1
    48   26   27 ar
    49   26   29 1
    50   27   28 ar
    51   27   50 1
    52   28   51 1
    53   29   30 1
    54   29   57 2
    55   30   53 1
    56   30   54 1
    57   52   57 1
    58   57   58 1
@<TRIPOS>MOLECULE
ZINC03919414
   62    61     0     0     0
SMALL
USER_CHARGES

@<TRIPOS>ATOM
      1 C1          0.4283    2.1973    0.1917 C.3       1 <0>        -0.1419
      2 C2          0.2538    0.6805    0.2901 C.3       1 <0>        -0.0846
      3 C3         -1.2296    0.3479    0.4623 C.3       1 <0>        -0.1384
      4 C4          0.7789    0.0228   -0.9876 C.3       1 <0>         0.0799
      5 H1          0.5743   -1.0474   -0.9560 H         1 <0>         0.0737
      6 C5          0.0927    0.6303   -2.1839 C.2       1 <0>         0.4971
      7 O1          0.5743    1.6070   -2.7321 O.co2     1 <0>        -0.6718
      8 O2         -0.9441    0.1450   -2.6036 O.co2     1 <0>        -0.7053
      9 N1          2.2240    0.2408   -1.0907 N.am      1 <0>        -0.6956
     10 C6          2.9857   -0.6153   -1.8002 C.2       1 <0>         0.5265
     11 O3          2.4749   -1.5661   -2.3534 O.2       1 <0>        -0.5327
     12 C7          4.4721   -0.3910   -1.9062 C.3       1 <0>         0.1537
     13 H2          4.9142   -0.4087   -0.9101 H         1 <0>         0.0918
     14 C8          4.7378    0.9675   -2.5580 C.3       1 <0>        -0.1950
     15 C9          4.1944    0.9651   -3.9637 C.2       1 <0>         0.4968
     16 O4          3.5794   -0.0028   -4.3779 O.co2     1 <0>        -0.6701
     17 O5          4.3699    1.9309   -4.6867 O.co2     1 <0>        -0.7061
     18 N2          5.0687   -1.4500   -2.7241 N.am      1 <0>        -0.6513
     19 C10         6.3515   -1.8126   -2.5260 C.2       1 <0>         0.4985
     20 O6          7.0385   -1.2033   -1.7338 O.2       1 <0>        -0.5741
     21 C11         6.9323   -2.9752   -3.2890 C.3       1 <0>         0.0927
     22 N3          8.3313   -3.1658   -2.8981 N.am      1 <0>        -0.6716
     23 C12         9.0579   -4.1549   -3.4551 C.2       1 <0>         0.4918
     24 O7          8.5536   -4.8871   -4.2800 O.2       1 <0>        -0.5225
     25 C13        10.4969   -4.3510   -3.0530 C.3       1 <0>         0.0140
     26 H3         10.5975   -4.2011   -1.9781 H         1 <0>         0.1698
     27 C14        11.3755   -3.3405   -3.7933 C.3       1 <0>        -0.1444
     28 C15        12.8170   -3.4555   -3.2934 C.3       1 <0>        -0.1462
     29 C16        13.6956   -2.4451   -4.0337 C.3       1 <0>         0.0917
     30 N4         15.0759   -2.5552   -3.5551 N.pl3     1 <0>        -0.7013
     31 C17        16.0472   -1.7453   -4.0764 C.cat     1 <0>         0.7453
     32 N5         17.3020   -1.8454   -3.6413 N.pl3     1 <0>        -0.7917
     33 N6         15.7381   -0.8565   -5.0191 N.pl3     1 <0>        -0.7889
     34 N7         10.9207   -5.7143   -3.3991 N.4       1 <0>        -0.6218
     35 H4          1.4852    2.4343    0.0690 H         1 <0>         0.0466
     36 H5         -0.1301    2.5724   -0.6660 H         1 <0>         0.0738
     37 H6          0.0542    2.6659    1.1019 H         1 <0>         0.0397
     38 H7          0.8122    0.3054    1.1477 H         1 <0>         0.0542
     39 H8         -1.7880    0.7230   -0.3954 H         1 <0>         0.0735
     40 H9         -1.3540   -0.7327    0.5324 H         1 <0>         0.0482
     41 H10        -1.6038    0.8165    1.3725 H         1 <0>         0.0428
     42 H11         2.6325    1.0012   -0.6483 H         1 <0>         0.3866
     43 H12         4.2464    1.7501   -1.9799 H         1 <0>         0.0751
     44 H13         5.8113    1.1544   -2.5838 H         1 <0>         0.0622
     45 H14         4.5403   -1.8902   -3.4082 H         1 <0>         0.4252
     46 H15         6.3655   -3.8782   -3.0622 H         1 <0>         0.1141
     47 H16         6.8785   -2.7713   -4.3584 H         1 <0>         0.1154
     48 H17         8.7346   -2.5802   -2.2383 H         1 <0>         0.4191
     49 H18        11.3444   -3.5470   -4.8631 H         1 <0>         0.1094
     50 H19        11.0057   -2.3323   -3.6069 H         1 <0>         0.1313
     51 H20        12.8482   -3.2491   -2.2236 H         1 <0>         0.1032
     52 H21        13.1869   -4.4638   -3.4798 H         1 <0>         0.0787
     53 H22        13.6644   -2.6515   -5.1035 H         1 <0>         0.0991
     54 H23        13.3258   -1.4368   -3.8473 H         1 <0>         0.1044
     55 H24        15.3010   -3.2024   -2.8686 H         1 <0>         0.4352
     56 H25        17.9908   -1.2711   -4.0109 H         1 <0>         0.4438
     57 H26        14.8242   -0.7836   -5.3359 H         1 <0>         0.4413
     58 H27        16.4268   -0.2822   -5.3887 H         1 <0>         0.4439
     59 H28        10.8276   -5.8531   -4.3941 H         1 <0>         0.4435
     60 H29        11.8842   -5.8456   -3.1298 H         1 <0>         0.4334
     61 H30        17.5271   -2.4926   -2.9547 H         1 <0>         0.4413
     62 H31        10.3412   -6.3807   -2.9109 H         1 <0>         0.4468
@<TRIPOS>BOND
     1    1    2 1
     2    1   35 1
     3    1   36 1
     4    1   37 1
     5    2    3 1
     6    2    4 1
     7    2   38 1
     8    3   39 1
     9    3   40 1
    10    3   41 1
    11    4    5 1
    12    4    6 1
    13    4    9 1
    14    6    7 2
    15    6    8 1
    16    9   10 am
    17    9   42 1
    18   10   11 2
    19   10   12 1
    20   12   13 1
    21   12   14 1
    22   12   18 1
    23   14   15 1
    24   14   43 1
    25   14   44 1
    26   15   16 2
    27   15   17 1
    28   18   19 am
    29   18   45 1
    30   19   20 2
    31   19   21 1
    32   21   22 1
    33   21   46 1
    34   21   47 1
    35   22   23 am
    36   22   48 1
    37   23   24 2
    38   23   25 1
    39   25   26 1
    40   25   27 1
    41   25   34 1
    42   27   28 1
    43   27   49 1
    44   27   50 1
    45   28   29 1
    46   28   51 1
    47   28   52 1
    48   29   30 1
    49   29   53 1
    50   29   54 1
    51   30   31 1
    52   30   55 1
    53   31   32 2
    54   31   33 1
    55   32   56 1
    56   32   61 1
    57   33   57 1
    58   33   58 1
    59   34   59 1
    60   34   60 1
    61   34   62 1
@<TRIPOS>MOLECULE
ZINC13455558
   64    63     0     0     0
SMALL
USER_CHARGES

@<TRIPOS>ATOM
      1 C1         -0.2597    1.2718    0.4427 C.3       1 <0>        -0.1275
      2 C2         -0.2839   -0.2560    0.3637 C.3       1 <0>        -0.1359
      3 C3         -1.7287   -0.7359    0.2120 C.3       1 <0>         0.1354
      4 H1         -2.1848   -0.2489   -0.6499 H         1 <0>         0.1276
      5 C4         -1.7434   -2.2294    0.0111 C.2       1 <0>         0.4996
      6 O1         -1.9933   -2.9642    0.9430 O.2       1 <0>        -0.5282
      7 N1         -1.4789   -2.7485   -1.2043 N.am      1 <0>        -0.6956
      8 C5         -1.4932   -4.2004   -1.3996 C.3       1 <0>         0.1014
      9 C6         -1.1680   -4.5171   -2.8366 C.2       1 <0>         0.5198
     10 O2         -0.9462   -3.6186   -3.6204 O.2       1 <0>        -0.5597
     11 N2         -1.1237   -5.7989   -3.2507 N.am      1 <0>        -0.6622
     12 C7         -0.9138   -6.1039   -4.6682 C.3       1 <0>         0.1603
     13 H2         -0.1954   -5.4002   -5.0887 H         1 <0>         0.1105
     14 C8         -0.3744   -7.5287   -4.8088 C.3       1 <0>        -0.1912
     15 C9          0.9972   -7.6100   -4.1897 C.2       1 <0>         0.4972
     16 O3          1.5392   -6.6001   -3.7740 O.co2     1 <0>        -0.6984
     17 O4          1.5648   -8.6856   -4.1045 O.co2     1 <0>        -0.6971
     18 C10        -2.2224   -5.9871   -5.4063 C.2       1 <0>         0.5097
     19 O5         -3.2311   -5.6794   -4.8074 O.2       1 <0>        -0.5613
     20 N3         -2.2719   -6.2246   -6.7321 N.am      1 <0>        -0.6876
     21 C11        -3.5440   -6.1110   -7.4496 C.3       1 <0>         0.0724
     22 H3         -4.1353   -5.3047   -7.0156 H         1 <0>         0.0880
     23 C12        -3.2724   -5.8073   -8.9244 C.3       1 <0>         0.0905
     24 O6         -2.5985   -6.9163   -9.5228 O.3       1 <0>        -0.5565
     25 C13        -4.3028   -7.4080   -7.3353 C.2       1 <0>         0.5011
     26 O7         -3.8251   -8.3408   -6.7122 O.co2     1 <0>        -0.6746
     27 O8         -5.3943   -7.5246   -7.8660 O.co2     1 <0>        -0.7084
     28 N4         -2.4849   -0.3983    1.4205 N.am      1 <0>        -0.6968
     29 C14        -2.1018   -0.8913    2.6149 C.2       1 <0>         0.4988
     30 O9         -1.1310   -1.6144    2.6892 O.2       1 <0>        -0.4903
     31 C15        -2.8796   -0.5440    3.8580 C.3       1 <0>        -0.0270
     32 N5         -2.2650   -1.2004    5.0196 N.4       1 <0>        -0.6210
     33 C16         1.1851    1.7518    0.5944 C.3       1 <0>         0.0907
     34 N6          1.2083    3.2147    0.6701 N.pl3     1 <0>        -0.6958
     35 C17         2.3990    3.8736    0.8084 C.cat     1 <0>         0.7415
     36 N7          2.4201    5.2036    0.8772 N.pl3     1 <0>        -0.7955
     37 N8          3.5374    3.1852    0.8742 N.pl3     1 <0>        -0.7912
     38 H4         -0.6875    1.6896   -0.4686 H         1 <0>         0.0893
     39 H5         -0.8439    1.6005    1.3022 H         1 <0>         0.0758
     40 H6          0.3003   -0.5846   -0.4958 H         1 <0>         0.0994
     41 H7          0.1439   -0.6737    1.2750 H         1 <0>         0.1000
     42 H8         -1.2790   -2.1608   -1.9496 H         1 <0>         0.4127
     43 H9         -0.7505   -4.6618   -0.7488 H         1 <0>         0.1015
     44 H10        -2.4817   -4.5900   -1.1563 H         1 <0>         0.1019
     45 H11        -1.2309   -6.5195   -2.6103 H         1 <0>         0.4025
     46 H12        -1.0440   -8.2226   -4.3007 H         1 <0>         0.0741
     47 H13        -0.3124   -7.7912   -5.8649 H         1 <0>         0.0859
     48 H14        -1.4651   -6.4707   -7.2111 H         1 <0>         0.3969
     49 H15        -4.2172   -5.6351   -9.4399 H         1 <0>         0.0586
     50 H16        -2.6481   -4.9173   -9.0031 H         1 <0>         0.0346
     51 H17        -2.3939   -6.7932  -10.4599 H         1 <0>         0.3661
     52 H18        -3.2614    0.1800    1.3610 H         1 <0>         0.4146
     53 H19        -2.8690    0.5362    4.0033 H         1 <0>         0.1585
     54 H20        -3.9090   -0.8860    3.7499 H         1 <0>         0.1644
     55 H21        -1.3122   -0.8839    5.1196 H         1 <0>         0.4382
     56 H22        -2.7858   -0.9679    5.8519 H         1 <0>         0.4437
     57 H23         1.6130    1.3340    1.5058 H         1 <0>         0.0918
     58 H24         1.7693    1.4231   -0.2651 H         1 <0>         0.0997
     59 H25         0.3793    3.7160    0.6221 H         1 <0>         0.4344
     60 H26         1.5911    5.7049    0.8292 H         1 <0>         0.4403
     61 H27         3.5220    2.2166    0.8241 H         1 <0>         0.4415
     62 H28         4.3818    3.6524    0.9723 H         1 <0>         0.4416
     63 H29         3.2645    5.6708    0.9752 H         1 <0>         0.4416
     64 H30        -2.2749   -2.2004    4.8851 H         1 <0>         0.4482
@<TRIPOS>BOND
     1    1    2 1
     2    1   33 1
     3    1   38 1
     4    1   39 1
     5    2    3 1
     6    2   40 1
     7    2   41 1
     8    3    4 1
     9    3    5 1
    10    3   28 1
    11    5    6 2
    12    5    7 am
    13    7    8 1
    14    7   42 1
    15    8    9 1
    16    8   43 1
    17    8   44 1
    18    9   10 2
    19    9   11 am
    20   11   12 1
    21   11   45 1
    22   12   13 1
    23   12   14 1
    24   12   18 1
    25   14   15 1
    26   14   46 1
    27   14   47 1
    28   15   16 2
    29   15   17 1
    30   18   19 2
    31   18   20 am
    32   20   21 1
    33   20   48 1
    34   21   22 1
    35   21   23 1
    36   21   25 1
    37   23   24 1
    38   23   49 1
    39   23   50 1
    40   24   51 1
    41   25   26 2
    42   25   27 1
    43   28   29 am
    44   28   52 1
    45   29   30 2
    46   29   31 1
    47   31   32 1
    48   31   53 1
    49   31   54 1
    50   32   55 1
    51   32   56 1
    52   32   64 1
    53   33   34 1
    54   33   57 1
    55   33   58 1
    56   34   35 1
    57   34   59 1
    58   35   36 2
    59   35   37 1
    60   36   60 1
    61   36   63 1
    62   37   61 1
    63   37   62 1
@<TRIPOS>MOLECULE
ZINC13455558
   64    63     0     0     0
SMALL
USER_CHARGES

@<TRIPOS>ATOM
      1 C1         -0.2597    1.2718    0.4427 C.3       1 <0>        -0.1294
      2 C2         -0.2839   -0.2560    0.3637 C.3       1 <0>        -0.1362
      3 C3         -1.7287   -0.7359    0.2120 C.3       1 <0>         0.1354
      4 H1         -2.1848   -0.2489   -0.6499 H         1 <0>         0.1279
      5 C4         -1.7434   -2.2294    0.0111 C.2       1 <0>         0.4995
      6 O1         -1.9933   -2.9642    0.9430 O.2       1 <0>        -0.5279
      7 N1         -1.4789   -2.7485   -1.2043 N.am      1 <0>        -0.6954
      8 C5         -1.4932   -4.2004   -1.3996 C.3       1 <0>         0.1013
      9 C6         -1.1680   -4.5171   -2.8366 C.2       1 <0>         0.5197
     10 O2         -0.9462   -3.6186   -3.6204 O.2       1 <0>        -0.5598
     11 N2         -1.1237   -5.7989   -3.2507 N.am      1 <0>        -0.6621
     12 C7         -0.9138   -6.1039   -4.6682 C.3       1 <0>         0.1603
     13 H2         -0.1954   -5.4002   -5.0887 H         1 <0>         0.1105
     14 C8         -0.3744   -7.5287   -4.8088 C.3       1 <0>        -0.1912
     15 C9          0.9972   -7.6100   -4.1897 C.2       1 <0>         0.4972
     16 O3          1.5392   -6.6001   -3.7740 O.co2     1 <0>        -0.6985
     17 O4          1.5648   -8.6856   -4.1045 O.co2     1 <0>        -0.6970
     18 C10        -2.2224   -5.9871   -5.4063 C.2       1 <0>         0.5097
     19 O5         -3.2311   -5.6794   -4.8074 O.2       1 <0>        -0.5614
     20 N3         -2.2719   -6.2246   -6.7321 N.am      1 <0>        -0.6876
     21 C11        -3.5440   -6.1110   -7.4496 C.3       1 <0>         0.0724
     22 H3         -4.1353   -5.3047   -7.0156 H         1 <0>         0.0880
     23 C12        -3.2724   -5.8073   -8.9244 C.3       1 <0>         0.0905
     24 O6         -2.5985   -6.9163   -9.5228 O.3       1 <0>        -0.5565
     25 C13        -4.3028   -7.4080   -7.3353 C.2       1 <0>         0.5011
     26 O7         -3.8251   -8.3408   -6.7122 O.co2     1 <0>        -0.6746
     27 O8         -5.3943   -7.5246   -7.8660 O.co2     1 <0>        -0.7083
     28 N4         -2.4849   -0.3983    1.4205 N.am      1 <0>        -0.6971
     29 C14        -2.1018   -0.8913    2.6149 C.2       1 <0>         0.4987
     30 O9         -1.1310   -1.6144    2.6892 O.2       1 <0>        -0.4901
     31 C15        -2.8796   -0.5440    3.8580 C.3       1 <0>        -0.0270
     32 N5         -2.2650   -1.2004    5.0196 N.4       1 <0>        -0.6210
     33 C16         1.1851    1.7518    0.5944 C.3       1 <0>         0.0807
     34 N6          1.2083    3.2147    0.6701 N.pl3     1 <0>        -0.6588
     35 C17         2.3429    3.8425    0.8019 C.cat     1 <0>         0.7383
     36 N7          3.5179    3.1320    0.8698 N.pl3     1 <0>        -0.8098
     37 N8          2.3647    5.2153    0.8729 N.pl3     1 <0>        -0.8149
     38 H4         -0.6875    1.6896   -0.4686 H         1 <0>         0.0909
     39 H5         -0.8439    1.6005    1.3022 H         1 <0>         0.0773
     40 H6          0.3003   -0.5846   -0.4958 H         1 <0>         0.1002
     41 H7          0.1439   -0.6737    1.2750 H         1 <0>         0.1007
     42 H8         -1.2790   -2.1608   -1.9496 H         1 <0>         0.4127
     43 H9         -0.7505   -4.6618   -0.7488 H         1 <0>         0.1016
     44 H10        -2.4817   -4.5900   -1.1563 H         1 <0>         0.1020
     45 H11        -1.2309   -6.5195   -2.6103 H         1 <0>         0.4026
     46 H12        -1.0440   -8.2226   -4.3007 H         1 <0>         0.0741
     47 H13        -0.3124   -7.7912   -5.8649 H         1 <0>         0.0860
     48 H14        -1.4651   -6.4707   -7.2111 H         1 <0>         0.3969
     49 H15        -4.2172   -5.6351   -9.4399 H         1 <0>         0.0586
     50 H16        -2.6481   -4.9173   -9.0031 H         1 <0>         0.0346
     51 H17        -2.3939   -6.7932  -10.4599 H         1 <0>         0.3662
     52 H18        -3.2614    0.1800    1.3610 H         1 <0>         0.4147
     53 H19        -2.8690    0.5362    4.0033 H         1 <0>         0.1585
     54 H20        -3.9090   -0.8860    3.7499 H         1 <0>         0.1645
     55 H21        -2.7858   -0.9679    5.8519 H         1 <0>         0.4439
     56 H22        -2.2749   -2.2004    4.8851 H         1 <0>         0.4483
     57 H23         1.6130    1.3340    1.5058 H         1 <0>         0.0999
     58 H24         1.7693    1.4231   -0.2651 H         1 <0>         0.1077
     59 H25         3.5026    2.1634    0.8198 H         1 <0>         0.4392
     60 H26         4.3623    3.5992    0.9679 H         1 <0>         0.4395
     61 H27         1.5357    5.7167    0.8249 H         1 <0>         0.4378
     62 H28         3.2091    5.6826    0.9709 H         1 <0>         0.4396
     63 H29         0.3793    3.7160    0.6221 H         1 <0>         0.4378
     64 H30        -1.3122   -0.8839    5.1196 H         1 <0>         0.4382
@<TRIPOS>BOND
     1    1    2 1
     2    1   33 1
     3    1   38 1
     4    1   39 1
     5    2    3 1
     6    2   40 1
     7    2   41 1
     8    3    4 1
     9    3    5 1
    10    3   28 1
    11    5    6 2
    12    5    7 am
    13    7    8 1
    14    7   42 1
    15    8    9 1
    16    8   43 1
    17    8   44 1
    18    9   10 2
    19    9   11 am
    20   11   12 1
    21   11   45 1
    22   12   13 1
    23   12   14 1
    24   12   18 1
    25   14   15 1
    26   14   46 1
    27   14   47 1
    28   15   16 2
    29   15   17 1
    30   18   19 2
    31   18   20 am
    32   20   21 1
    33   20   48 1
    34   21   22 1
    35   21   23 1
    36   21   25 1
    37   23   24 1
    38   23   49 1
    39   23   50 1
    40   24   51 1
    41   25   26 2
    42   25   27 1
    43   28   29 am
    44   28   52 1
    45   29   30 2
    46   29   31 1
    47   31   32 1
    48   31   53 1
    49   31   54 1
    50   32   55 1
    51   32   56 1
    52   32   64 1
    53   33   34 1
    54   33   57 1
    55   33   58 1
    56   34   35 2
    57   34   63 1
    58   35   36 1
    59   35   37 1
    60   36   59 1
    61   36   60 1
    62   37   61 1
    63   37   62 1
@<TRIPOS>MOLECULE
ZINC11726787
   59    60     0     0     0
SMALL
USER_CHARGES

@<TRIPOS>ATOM
      1 C1         -0.2647   -0.0684  -12.2132 C.3       1 <0>        -0.1533
      2 C2          0.9979   -0.8189  -11.7850 C.3       1 <0>         0.0617
      3 O1          0.7537   -1.4968  -10.5510 O.3       1 <0>        -0.3522
      4 C3          1.7687   -2.2076  -10.0349 C.2       1 <0>         0.4595
      5 O2          2.8294   -2.2527  -10.6117 O.2       1 <0>        -0.4838
      6 C4          1.5852   -2.9494   -8.7360 C.3       1 <0>         0.0709
      7 O3          2.7983   -3.6247   -8.3977 O.3       1 <0>        -0.3580
      8 C5          2.7314   -4.3628   -7.1759 C.3       1 <0>         0.0910
      9 C6          2.2607   -5.7896   -7.4673 C.3       1 <0>        -0.1615
     10 C7          2.1570   -6.5675   -6.1517 C.3       1 <0>         0.1021
     11 N1          3.4468   -6.4886   -5.4526 N.am      1 <0>        -0.6052
     12 C8          4.0346   -5.1655   -5.2018 C.3       1 <0>         0.1142
     13 C9          4.1173   -4.4033   -6.5281 C.3       1 <0>        -0.1319
     14 C10         4.0786   -7.6084   -5.0486 C.2       1 <0>         0.5176
     15 O4          5.1856   -7.5368   -4.5583 O.2       1 <0>        -0.5360
     16 C11         3.4097   -8.9495   -5.2062 C.3       1 <0>         0.1227
     17 H1          2.9473   -9.0114   -6.1913 H         1 <0>         0.1190
     18 C12         2.3367   -9.1141   -4.1280 C.3       1 <0>        -0.1620
     19 N2          4.4081  -10.0126   -5.0678 N.am      1 <0>        -0.7028
     20 C13         4.1981  -11.2134   -5.6426 C.2       1 <0>         0.5520
     21 O5          3.1804  -11.4143   -6.2759 O.2       1 <0>        -0.5128
     22 C14         5.2063  -12.2867   -5.5029 C.ar      1 <0>        -0.0641
     23 C15         6.3728  -12.0581   -4.7708 C.ar      1 <0>        -0.0800
     24 C16         7.3115  -13.0581   -4.6409 C.ar      1 <0>        -0.0635
     25 C17         7.0965  -14.2991   -5.2409 C.ar      1 <0>        -0.1287
     26 C18         5.9312  -14.5280   -5.9730 C.ar      1 <0>        -0.0657
     27 C19         4.9890  -13.5307   -6.0982 C.ar      1 <0>        -0.0540
     28 C20         8.1064  -15.3742   -5.1009 C.cat     1 <0>         0.6124
     29 N3          9.3655  -15.0713   -4.9688 N.pl3     1 <0>        -0.7188
     30 N4          7.7128  -16.6946   -5.1106 N.pl3     1 <0>        -0.5343
     31 O6          8.6779  -17.7221   -4.9769 O.3       1 <0>        -0.3047
     32 H2         -1.0822   -0.7775  -12.3438 H         1 <0>         0.0679
     33 H3         -0.5331    0.6583  -11.4463 H         1 <0>         0.0683
     34 H4         -0.0784    0.4487  -13.1544 H         1 <0>         0.0830
     35 H5          1.2663   -1.5456  -12.5518 H         1 <0>         0.0698
     36 H6          1.8154   -0.1098  -11.6544 H         1 <0>         0.0703
     37 H7          1.3308   -2.2422   -7.9465 H         1 <0>         0.0972
     38 H8          0.7817   -3.6779   -8.8439 H         1 <0>         0.0952
     39 H9          2.0276   -3.8799   -6.4980 H         1 <0>         0.0722
     40 H10         1.2839   -5.7591   -7.9499 H         1 <0>         0.0854
     41 H11         2.9769   -6.2817   -8.1254 H         1 <0>         0.0811
     42 H12         1.3765   -6.1301   -5.5291 H         1 <0>         0.0827
     43 H13         1.9183   -7.6102   -6.3616 H         1 <0>         0.0938
     44 H14         3.4072   -4.6137   -4.5018 H         1 <0>         0.0779
     45 H15         5.0348   -5.2831   -4.7849 H         1 <0>         0.1035
     46 H16         4.8160   -4.9084   -7.1950 H         1 <0>         0.0796
     47 H17         4.4618   -3.3861   -6.3422 H         1 <0>         0.0903
     48 H18         1.6056   -8.3106   -4.2174 H         1 <0>         0.0792
     49 H19         1.8380  -10.0749   -4.2553 H         1 <0>         0.0790
     50 H20         2.8021   -9.0739   -3.1432 H         1 <0>         0.0693
     51 H21         5.2204   -9.8522   -4.5624 H         1 <0>         0.4114
     52 H22         6.5395  -11.0973   -4.3065 H         1 <0>         0.1541
     53 H23         8.2141  -12.8812   -4.0749 H         1 <0>         0.1497
     54 H24         5.7655  -15.4888   -6.4375 H         1 <0>         0.1482
     55 H25         4.0847  -13.7095   -6.6610 H         1 <0>         0.1634
     56 H26        10.0266  -15.7752   -4.8772 H         1 <0>         0.4433
     57 H27         6.7745  -16.9203   -5.2091 H         1 <0>         0.4524
     58 H28         8.3069  -18.6149   -4.9951 H         1 <0>         0.4336
     59 H29         9.6426  -14.1417   -4.9620 H         1 <0>         0.4486
@<TRIPOS>BOND
     1    1    2 1
     2    1   32 1
     3    1   33 1
     4    1   34 1
     5    2    3 1
     6    2   35 1
     7    2   36 1
     8    3    4 1
     9    4    5 2
    10    4    6 1
    11    6    7 1
    12    6   37 1
    13    6   38 1
    14    7    8 1
    15    8   13 1
    16    8    9 1
    17    8   39 1
    18    9   10 1
    19    9   40 1
    20    9   41 1
    21   10   11 1
    22   10   42 1
    23   10   43 1
    24   11   12 1
    25   11   14 am
    26   12   13 1
    27   12   44 1
    28   12   45 1
    29   13   46 1
    30   13   47 1
    31   14   15 2
    32   14   16 1
    33   16   17 1
    34   16   18 1
    35   16   19 1
    36   18   48 1
    37   18   49 1
    38   18   50 1
    39   19   20 am
    40   19   51 1
    41   20   21 2
    42   20   22 1
    43   22   27 ar
    44   22   23 ar
    45   23   24 ar
    46   23   52 1
    47   24   25 ar
    48   24   53 1
    49   25   26 ar
    50   25   28 1
    51   26   27 ar
    52   26   54 1
    53   27   55 1
    54   28   29 2
    55   28   30 1
    56   29   56 1
    57   29   59 1
    58   30   31 1
    59   30   57 1
    60   31   58 1
@<TRIPOS>MOLECULE
ZINC11726787
   58    59     0     0     0
SMALL
USER_CHARGES
ethyl 2-[[1-[(2S)-2-[[4-(N-hydroxycarbamimidoyl)benzoyl]amino]propanoyl]-4-piperidyl]oxy]acetate
@<TRIPOS>ATOM
      1 C1        -13.8847  -12.8504   -3.1665 C.3       1 <0>        -0.1557
      2 C2        -12.4368  -12.3669   -3.0633 C.3       1 <0>         0.0616
      3 O1        -12.3667  -11.2405   -2.1497 O.3       1 <0>        -0.3583
      4 C3        -11.1572  -10.6949   -1.9467 C.2       1 <0>         0.4605
      5 O2        -10.1892  -11.1435   -2.5137 O.2       1 <0>        -0.4848
      6 C4        -11.0067   -9.5227   -1.0117 C.3       1 <0>         0.0686
      7 O3         -9.6351   -9.1248   -0.9635 O.3       1 <0>        -0.3630
      8 C5         -9.3819   -8.0144   -0.1003 C.3       1 <0>         0.0925
      9 C6         -7.9650   -8.1229    0.4677 C.3       1 <0>        -0.1315
     10 C7         -7.7095   -6.9499    1.4193 C.3       1 <0>         0.1125
     11 N1         -7.9788   -5.6944    0.7052 N.am      1 <0>        -0.6081
     12 C8         -9.2817   -5.5205    0.0487 C.3       1 <0>         0.1011
     13 C9         -9.5176   -6.7118   -0.8921 C.3       1 <0>        -0.1588
     14 C10        -7.0505   -4.7185    0.6579 C.2       1 <0>         0.5194
     15 O4         -5.9487   -4.9062    1.1290 O.2       1 <0>        -0.5326
     16 C11        -7.3814   -3.3940    0.0198 C.3       1 <0>         0.1284
     17 H1         -8.4306   -3.1341    0.2236 H         1 <0>         0.1128
     18 C12        -7.1172   -3.4727   -1.4851 C.3       1 <0>        -0.1617
     19 N2         -6.5442   -2.3456    0.6084 N.am      1 <0>        -0.7235
     20 C13        -6.9625   -1.0645    0.5987 C.2       1 <0>         0.5629
     21 O5         -8.0342   -0.7788    0.1018 O.2       1 <0>        -0.5325
     22 C14        -6.1172   -0.0060    1.1930 C.ar      1 <0>        -0.1097
     23 C15        -6.5502    1.3212    1.1831 C.ar      1 <0>        -0.0509
     24 C16        -5.7627    2.3066    1.7372 C.ar      1 <0>        -0.0960
     25 C17        -4.5328    1.9784    2.3079 C.ar      1 <0>        -0.0580
     26 C18        -4.0970    0.6531    2.3130 C.ar      1 <0>        -0.0966
     27 C19        -4.8863   -0.3339    1.7643 C.ar      1 <0>        -0.0752
     28 C20        -3.6863    3.0385    2.9036 C.cat     1 <0>         0.4463
     29 N3         -4.0903    4.2760    2.8943 N.pl3     1 <0>        -0.7965
     30 N4         -2.4715    2.7147    3.4674 N.pl3     1 <0>        -0.4438
     31 O6         -1.6599    3.7287    4.0315 O.3       1 <0>        -0.5977
     32 H2        -13.9378  -13.7037   -3.8586 H         1 <0>         0.0837
     33 H3        -14.5182  -12.0334   -3.5424 H         1 <0>         0.0685
     34 H4        -14.2390  -13.1617   -2.1727 H         1 <0>         0.0685
     35 H5        -11.8033  -13.1839   -2.6874 H         1 <0>         0.0733
     36 H6        -12.0824  -12.0557   -4.0571 H         1 <0>         0.0733
     37 H7        -11.6193   -8.6839   -1.3738 H         1 <0>         0.0956
     38 H8        -11.3401   -9.8121   -0.0042 H         1 <0>         0.0968
     39 H9        -10.1365   -8.0758    0.6977 H         1 <0>         0.0697
     40 H10        -7.8613   -9.0709    1.0159 H         1 <0>         0.0887
     41 H11        -7.2365   -8.0941   -0.3560 H         1 <0>         0.0817
     42 H12        -8.3751   -7.0333    2.2911 H         1 <0>         0.0754
     43 H13        -6.6620   -6.9711    1.7544 H         1 <0>         0.1044
     44 H14       -10.0740   -5.4818    0.8108 H         1 <0>         0.0795
     45 H15        -9.2802   -4.5829   -0.5265 H         1 <0>         0.0963
     46 H16        -8.7729   -6.6955   -1.7016 H         1 <0>         0.0838
     47 H17       -10.5280   -6.6476   -1.3221 H         1 <0>         0.0839
     48 H18        -7.3588   -2.5059   -1.9508 H         1 <0>         0.0787
     49 H19        -7.7458   -4.2598   -1.9270 H         1 <0>         0.0740
     50 H20        -6.0571   -3.7090   -1.6594 H         1 <0>         0.0702
     51 H21        -5.5742   -2.6041    1.0582 H         1 <0>         0.4322
     52 H22        -7.5025    1.5753    0.7416 H         1 <0>         0.1496
     53 H23        -6.0978    3.3333    1.7299 H         1 <0>         0.1387
     54 H24        -3.1426    0.4003    2.7507 H         1 <0>         0.1370
     55 H25        -4.5510   -1.3605    1.7725 H         1 <0>         0.1400
     56 H26        -3.4619    5.0631    3.3366 H         1 <0>         0.4569
     57 H27        -2.1322    1.6684    3.4793 H         1 <0>         0.4296
     58 H28        -5.0601    4.5346    2.4442 H         1 <0>         0.4383
@<TRIPOS>BOND
     1    1    2 1
     2    1   32 1
     3    1   33 1
     4    1   34 1
     5    2    3 1
     6    2   35 1
     7    2   36 1
     8    3    4 1
     9    4    5 2
    10    4    6 1
    11    6    7 1
    12    6   37 1
    13    6   38 1
    14    7    8 1
    15    8   13 1
    16    8    9 1
    17    8   39 1
    18    9   10 1
    19    9   40 1
    20    9   41 1
    21   10   11 1
    22   10   42 1
    23   10   43 1
    24   11   12 1
    25   11   14 am
    26   12   13 1
    27   12   44 1
    28   12   45 1
    29   13   46 1
    30   13   47 1
    31   14   15 2
    32   14   16 1
    33   16   17 1
    34   16   18 1
    35   16   19 1
    36   18   48 1
    37   18   49 1
    38   18   50 1
    39   19   20 am
    40   19   51 1
    41   20   21 2
    42   20   22 1
    43   22   27 ar
    44   22   23 ar
    45   23   24 ar
    46   23   52 1
    47   24   25 ar
    48   24   53 1
    49   25   26 ar
    50   25   28 1
    51   26   27 ar
    52   26   54 1
    53   27   55 1
    54   28   29 2
    55   28   30 1
    56   29   56 1
    57   29   58 1
    58   30   31 1
    59   30   57 1
@<TRIPOS>MOLECULE
ZINC03951736
   50    51     0     0     0
SMALL
USER_CHARGES
ethyl 3-[[1-(4-amidinophenyl)-2-oxo-pyrrolidin-3-yl]carbamoylamino]propanoate
@<TRIPOS>ATOM
      1 C1          3.6526   -0.2668    3.0923 C.3       1 <0>        -0.1545
      2 C2          3.4881    1.2534    3.0420 C.3       1 <0>         0.0621
      3 O1          4.7356    1.8613    2.6148 O.3       1 <0>        -0.3580
      4 C3          4.7596    3.2000    2.5183 C.2       1 <0>         0.4661
      5 O2          3.7710    3.8425    2.7821 O.2       1 <0>        -0.4999
      6 C4          6.0197    3.9015    2.0811 C.3       1 <0>        -0.1269
      7 C5          5.7794    5.4123    2.0549 C.3       1 <0>         0.1475
      8 N1          7.0043    6.0942    1.6299 N.am      1 <0>        -0.7418
      9 C6          7.0284    7.4382    1.5330 C.2       1 <0>         0.7056
     10 O3          6.0335    8.0849    1.7984 O.2       1 <0>        -0.5633
     11 N2          8.1553    8.0656    1.1419 N.am      1 <0>        -0.7317
     12 C7          8.1815    9.5266    1.0366 C.3       1 <0>         0.1404
     13 H1          7.5271    9.9739    1.7848 H         1 <0>         0.1388
     14 C8          9.6259   10.0549    1.1959 C.3       1 <0>        -0.1410
     15 C9         10.0914   10.1473   -0.2743 C.3       1 <0>         0.0865
     16 N3          8.8651   10.3113   -1.0637 N.am      1 <0>        -0.5605
     17 C10         7.7775    9.9645   -0.3540 C.2       1 <0>         0.5061
     18 O4          6.6381    9.9973   -0.7683 O.2       1 <0>        -0.4636
     19 C11         8.8324   10.7685   -2.3822 C.ar      1 <0>         0.2463
     20 C12         7.6332   10.7708   -3.0864 C.ar      1 <0>        -0.1643
     21 C13         7.5969   11.2268   -4.3857 C.ar      1 <0>        -0.0188
     22 C14         8.7674   11.6762   -4.9993 C.ar      1 <0>        -0.1972
     23 C15         9.9708   11.6674   -4.2919 C.ar      1 <0>        -0.0253
     24 C16        10.0001   11.2157   -2.9909 C.ar      1 <0>        -0.1621
     25 C17         8.7327   12.1612   -6.3963 C.cat     1 <0>         0.6026
     26 N4          7.5439   12.1693   -7.0935 N.pl3     1 <0>        -0.7841
     27 H2          3.9164   -0.6367    2.1015 H         1 <0>         0.0674
     28 H3          4.4423   -0.5238    3.7982 H         1 <0>         0.0681
     29 H4          2.7161   -0.7231    3.4129 H         1 <0>         0.0833
     30 H5          2.6983    1.5104    2.3361 H         1 <0>         0.0725
     31 H6          3.2243    1.6234    4.0328 H         1 <0>         0.0732
     32 H7          6.8239    3.6734    2.7806 H         1 <0>         0.1153
     33 H8          6.2979    3.5605    1.0839 H         1 <0>         0.1134
     34 H9          4.9753    5.6403    1.3555 H         1 <0>         0.0809
     35 H10         5.5012    5.7532    3.0522 H         1 <0>         0.0826
     36 H11         7.7982    5.5784    1.4181 H         1 <0>         0.3985
     37 H12         8.9491    7.5499    0.9301 H         1 <0>         0.4025
     38 H13         9.6323   11.0367    1.6694 H         1 <0>         0.1107
     39 H14        10.2398    9.3495    1.7558 H         1 <0>         0.1143
     40 H15        10.7451   11.0090   -0.4095 H         1 <0>         0.1005
     41 H16        10.6075    9.2322   -0.5647 H         1 <0>         0.0934
     42 H17         6.7287   10.4189   -2.6127 H         1 <0>         0.1745
     43 H18         6.6646   11.2322   -4.9309 H         1 <0>         0.1410
     44 H19        10.8780   12.0142   -4.7642 H         1 <0>         0.1400
     45 H20        10.9309   11.2083   -2.4432 H         1 <0>         0.1509
     46 H21         9.9051   12.9178   -7.8798 H         1 <0>         0.4428
     47 H22         6.7301   11.8570   -6.6681 H         1 <0>         0.4423
     48 H23         7.5211   12.4874   -8.0096 H         1 <0>         0.4302
     49 N5          9.8777   12.5742   -6.9196 N.pl3     1 <0>        -0.7653
     50 H24        10.7374   12.5484   -6.3589 H         1 <0>         0.4581
@<TRIPOS>BOND
     1    1    2 1
     2    1   27 1
     3    1   28 1
     4    1   29 1
     5    2    3 1
     6    2   30 1
     7    2   31 1
     8    3    4 1
     9    4    5 2
    10    4    6 1
    11    6    7 1
    12    6   32 1
    13    6   33 1
    14    7    8 1
    15    7   34 1
    16    7   35 1
    17    8    9 am
    18    8   36 1
    19    9   10 2
    20    9   11 am
    21   11   12 1
    22   11   37 1
    23   12   13 1
    24   12   17 1
    25   12   14 1
    26   14   15 1
    27   14   38 1
    28   14   39 1
    29   15   16 1
    30   15   40 1
    31   15   41 1
    32   16   17 am
    33   16   19 1
    34   17   18 2
    35   19   24 ar
    36   19   20 ar
    37   20   21 ar
    38   20   42 1
    39   21   22 ar
    40   21   43 1
    41   22   23 ar
    42   22   25 1
    43   23   24 ar
    44   23   44 1
    45   24   45 1
    46   25   26 1
    47   25   49 2
    48   26   47 1
    49   26   48 1
    50   46   49 1
    51   49   50 1
@<TRIPOS>MOLECULE
ZINC01535967
   49    49     0     0     0
SMALL
USER_CHARGES

@<TRIPOS>ATOM
      1 C1          8.2823    0.2612   -7.6097 C.3       1 <0>        -0.1554
      2 C2          7.2703   -0.3540   -6.6410 C.3       1 <0>         0.0635
      3 O1          7.8527   -0.4243   -5.3128 O.3       1 <0>        -0.3562
      4 C3          7.0886   -0.9434   -4.3391 C.2       1 <0>         0.4611
      5 O2          5.9700   -1.3264   -4.5883 O.2       1 <0>        -0.4980
      6 C4          7.6257   -1.0485   -2.9350 C.3       1 <0>        -0.1212
      7 C5          6.5623   -1.6702   -2.0274 C.3       1 <0>         0.2743
      8 H1          6.2432   -2.6259   -2.4433 H         1 <0>         0.1208
      9 C6          7.1268   -1.8834   -0.6848 C.1       1 <0>        -0.2167
     10 C7          7.5772   -2.0535    0.3860 C.1       1 <0>        -0.1556
     11 N1          5.4110   -0.7688   -1.9355 N.am      1 <0>        -0.7167
     12 C8          4.1913   -1.2613   -1.6419 C.2       1 <0>         0.5238
     13 O3          4.0468   -2.4507   -1.4538 O.2       1 <0>        -0.5328
     14 C9          3.0071   -0.3340   -1.5474 C.3       1 <0>        -0.1261
     15 C10         1.7534   -1.1413   -1.2049 C.3       1 <0>        -0.1257
     16 C11         0.5692   -0.2141   -1.1104 C.2       1 <0>         0.5216
     17 O4          0.7137    0.9753   -1.2985 O.2       1 <0>        -0.5070
     18 N2         -0.6506   -0.7066   -0.8168 N.am      1 <0>        -0.6771
     19 C12        -1.7262    0.1620   -0.6244 C.ar      1 <0>         0.2283
     20 C13        -1.5159    1.4101   -0.0481 C.ar      1 <0>        -0.1272
     21 C14        -2.5748    2.2716    0.1376 C.ar      1 <0>        -0.0302
     22 C15        -3.8613    1.8865   -0.2431 C.ar      1 <0>        -0.1852
     23 C16        -4.0702    0.6310   -0.8162 C.ar      1 <0>        -0.0341
     24 C17        -3.0069   -0.2244   -1.0043 C.ar      1 <0>        -0.1476
     25 C18        -5.0009    2.8073   -0.0402 C.cat     1 <0>         0.6024
     26 N3         -4.7931    4.0467    0.5257 N.pl3     1 <0>        -0.7833
     27 H2          7.8451    0.3139   -8.6069 H         1 <0>         0.0825
     28 H3          8.5431    1.2649   -7.2738 H         1 <0>         0.0678
     29 H4          9.1797   -0.3568   -7.6388 H         1 <0>         0.0689
     30 H5          7.0096   -1.3576   -6.9770 H         1 <0>         0.0721
     31 H6          6.3730    0.2640   -6.6121 H         1 <0>         0.0706
     32 H7          7.8803   -0.0542   -2.5680 H         1 <0>         0.1182
     33 H8          8.5169   -1.6759   -2.9330 H         1 <0>         0.1299
     34 H9          7.9799   -2.2055    1.3437 H         1 <0>         0.2221
     35 H10         5.5267    0.1824   -2.0860 H         1 <0>         0.4033
     36 H11         2.8642    0.1713   -2.5027 H         1 <0>         0.1057
     37 H12         3.1867    0.4064   -0.7680 H         1 <0>         0.1041
     38 H13         1.8964   -1.6466   -0.2497 H         1 <0>         0.1141
     39 H14         1.5738   -1.8818   -1.9843 H         1 <0>         0.1138
     40 H15        -0.7819   -1.6649   -0.7432 H         1 <0>         0.4253
     41 H16        -0.5210    1.7057    0.2503 H         1 <0>         0.1571
     42 H17        -2.4101    3.2425    0.5812 H         1 <0>         0.1407
     43 H18        -5.0645    0.3305   -1.1120 H         1 <0>         0.1402
     44 H19        -3.1681   -1.1960   -1.4477 H         1 <0>         0.1523
     45 H20        -7.0129    2.9803   -0.3043 H         1 <0>         0.4432
     46 H21        -3.8995    4.3151    0.7910 H         1 <0>         0.4424
     47 H22        -5.5405    4.6505    0.6588 H         1 <0>         0.4305
     48 N4         -6.1956    2.3815   -0.4235 N.pl3     1 <0>        -0.7637
     49 H23        -6.2989    1.4489   -0.8405 H         1 <0>         0.4589
@<TRIPOS>BOND
     1    1    2 1
     2    1   27 1
     3    1   28 1
     4    1   29 1
     5    2    3 1
     6    2   30 1
     7    2   31 1
     8    3    4 1
     9    4    5 2
    10    4    6 1
    11    6    7 1
    12    6   32 1
    13    6   33 1
    14    7    8 1
    15    7    9 1
    16    7   11 1
    17    9   10 3
    18   10   34 1
    19   11   12 am
    20   11   35 1
    21   12   13 2
    22   12   14 1
    23   14   15 1
    24   14   36 1
    25   14   37 1
    26   15   16 1
    27   15   38 1
    28   15   39 1
    29   16   17 2
    30   16   18 am
    31   18   19 1
    32   18   40 1
    33   19   24 ar
    34   19   20 ar
    35   20   21 ar
    36   20   41 1
    37   21   22 ar
    38   21   42 1
    39   22   23 ar
    40   22   25 1
    41   23   24 ar
    42   23   43 1
    43   24   44 1
    44   25   26 1
    45   25   48 2
    46   26   46 1
    47   26   47 1
    48   45   48 1
    49   48   49 1
@<TRIPOS>MOLECULE
ZINC03806104
   66    67     0     0     0
SMALL
USER_CHARGES

@<TRIPOS>ATOM
      1 C1         -0.0187    1.5258    0.0104 C.3       1 <0>        -0.1540
      2 C2          0.0021   -0.0041    0.0020 C.3       1 <0>        -0.1175
      3 C3          0.7421   -0.5109    1.2415 C.3       1 <0>        -0.1104
      4 C4          0.7628   -2.0407    1.2331 C.3       1 <0>        -0.6136
      5 S1          1.6402   -2.6417    2.7027 S.o2      1 <0>         2.6148
      6 O1          3.0192   -2.3092    2.6195 O.2       1 <0>        -0.9711
      7 O2          0.8928   -2.3449    3.8744 O.2       1 <0>        -0.9822
      8 N1          1.5954   -4.2925    2.5798 N.pl3     1 <0>        -1.0849
      9 C5          2.2935   -4.9644    1.4810 C.3       1 <0>         0.0841
     10 H1          3.1099   -4.3335    1.1295 H         1 <0>         0.0850
     11 C6          2.8563   -6.2988    1.9746 C.3       1 <0>        -0.0653
     12 C7          3.9112   -6.0431    3.0200 C.ar      1 <0>        -0.0939
     13 C8          5.2318   -5.8831    2.6432 C.ar      1 <0>        -0.0744
     14 C9          6.2007   -5.6491    3.5997 C.ar      1 <0>        -0.1449
     15 C10         5.8476   -5.5743    4.9392 C.ar      1 <0>         0.1101
     16 C11         4.5218   -5.7347    5.3147 C.ar      1 <0>        -0.2066
     17 C12         3.5558   -5.9634    4.3539 C.ar      1 <0>        -0.0773
     18 O3          6.7990   -5.3447    5.8821 O.3       1 <0>        -0.3192
     19 C13         6.3630   -5.2802    7.2414 C.3       1 <0>         0.0592
     20 C14         7.5650   -5.0168    8.1506 C.3       1 <0>        -0.1201
     21 C15         7.0982   -4.9477    9.6061 C.3       1 <0>        -0.1196
     22 C16         8.3002   -4.6843   10.5153 C.3       1 <0>        -0.1155
     23 C17         7.8334   -4.6153   11.9707 C.3       1 <0>        -0.1015
     24 C18         6.9210   -3.3998   12.1587 C.3       1 <0>        -0.1489
     25 C19         6.5221   -3.2914   13.6320 C.3       1 <0>        -0.0076
     26 N2          7.7252   -3.1344   14.4581 N.4       1 <0>        -0.5054
     27 C20         8.5709   -4.3281   14.3383 C.3       1 <0>        -0.0068
     28 C21         9.0486   -4.4765   12.8922 C.3       1 <0>        -0.1451
     29 C22         1.3286   -5.2135    0.3505 C.2       1 <0>         0.4796
     30 O4          0.1656   -4.8624    0.4531 O.co2     1 <0>        -0.6802
     31 O5          1.7110   -5.7662   -0.6667 O.co2     1 <0>        -0.6877
     32 H2          1.0039    1.9031    0.0027 H         1 <0>         0.0537
     33 H3         -0.5459    1.8868   -0.8726 H         1 <0>         0.0555
     34 H4         -0.5289    1.8773    0.9072 H         1 <0>         0.0534
     35 H5         -1.0205   -0.3814    0.0098 H         1 <0>         0.0679
     36 H6          0.5123   -0.3556   -0.8948 H         1 <0>         0.0678
     37 H7          1.7647   -0.1336    1.2338 H         1 <0>         0.0713
     38 H8          0.2319   -0.1594    2.1383 H         1 <0>         0.0714
     39 H9         -0.2598   -2.4180    1.2409 H         1 <0>         0.1430
     40 H10         1.2730   -2.3923    0.3363 H         1 <0>         0.1317
     41 H11         1.1068   -4.8146    3.2353 H         1 <0>         0.4090
     42 H12         2.0525   -6.8942    2.4075 H         1 <0>         0.0727
     43 H13         3.2981   -6.8388    1.1371 H         1 <0>         0.0926
     44 H14         5.5062   -5.9414    1.6003 H         1 <0>         0.1326
     45 H15         7.2323   -5.5249    3.3049 H         1 <0>         0.1270
     46 H16         4.2444   -5.6770    6.3569 H         1 <0>         0.1198
     47 H17         2.5229   -6.0840    4.6452 H         1 <0>         0.1223
     48 H18         5.6392   -4.4728    7.3530 H         1 <0>         0.0592
     49 H19         5.8978   -6.2260    7.5190 H         1 <0>         0.0588
     50 H20         8.2888   -5.8241    8.0391 H         1 <0>         0.0749
     51 H21         8.0302   -4.0709    7.8730 H         1 <0>         0.0745
     52 H22         6.3744   -4.1404    9.7176 H         1 <0>         0.0673
     53 H23         6.6330   -5.8936    9.8837 H         1 <0>         0.0687
     54 H24         9.0240   -5.4917   10.4037 H         1 <0>         0.0760
     55 H25         8.7654   -3.7385   10.2376 H         1 <0>         0.0714
     56 H26         7.2874   -5.5247   12.2218 H         1 <0>         0.0901
     57 H27         7.4515   -2.4964   11.8578 H         1 <0>         0.0900
     58 H28         6.0264   -3.5181   11.5472 H         1 <0>         0.1156
     59 H29         5.8723   -2.4271   13.7694 H         1 <0>         0.1329
     60 H30         5.9915   -4.1951   13.9318 H         1 <0>         0.1299
     61 H31         8.2417   -2.3250   14.1478 H         1 <0>         0.4275
     62 H32         9.4336   -4.2293   14.9971 H         1 <0>         0.1317
     63 H33         7.9966   -5.2097   14.6230 H         1 <0>         0.1295
     64 H34         9.6748   -5.3643   12.8050 H         1 <0>         0.1121
     65 H35         9.6233   -3.5954   12.6065 H         1 <0>         0.0890
     66 H36         7.4559   -3.0096   15.4224 H         1 <0>         0.4304
@<TRIPOS>BOND
     1    1    2 1
     2    1   32 1
     3    1   33 1
     4    1   34 1
     5    2    3 1
     6    2   35 1
     7    2   36 1
     8    3    4 1
     9    3   37 1
    10    3   38 1
    11    4    5 1
    12    4   39 1
    13    4   40 1
    14    5    6 2
    15    5    7 2
    16    5    8 1
    17    8    9 1
    18    8   41 1
    19    9   10 1
    20    9   11 1
    21    9   29 1
    22   11   12 1
    23   11   42 1
    24   11   43 1
    25   12   17 ar
    26   12   13 ar
    27   13   14 ar
    28   13   44 1
    29   14   15 ar
    30   14   45 1
    31   15   16 ar
    32   15   18 1
    33   16   17 ar
    34   16   46 1
    35   17   47 1
    36   18   19 1
    37   19   20 1
    38   19   48 1
    39   19   49 1
    40   20   21 1
    41   20   50 1
    42   20   51 1
    43   21   22 1
    44   21   52 1
    45   21   53 1
    46   22   23 1
    47   22   54 1
    48   22   55 1
    49   23   28 1
    50   23   24 1
    51   23   56 1
    52   24   25 1
    53   24   57 1
    54   24   58 1
    55   25   26 1
    56   25   59 1
    57   25   60 1
    58   26   27 1
    59   26   61 1
    60   26   66 1
    61   27   28 1
    62   27   62 1
    63   27   63 1
    64   28   64 1
    65   28   65 1
    66   29   30 2
    67   29   31 1
