@<TRIPOS>MOLECULE
ZINC43199890
   53    56     0     0     0
SMALL
USER_CHARGES

@<TRIPOS>ATOM
      1 C1         -0.0326    1.3225    0.6276 C.ar      1 <0>        -0.0780
      2 C2          1.1450    2.0037    0.8430 C.ar      1 <0>        -0.0616
      3 C3          2.3654    1.3293    0.7657 C.ar      1 <0>        -0.1203
      4 C4          2.3907   -0.0352    0.4700 C.ar      1 <0>        -0.0899
      5 C5          1.2121   -0.7148    0.2549 C.ar      1 <0>        -0.0962
      6 C6         -0.0063   -0.0404    0.3323 C.ar      1 <0>        -0.0301
      7 C7         -1.2748   -0.7731    0.1006 C.ar      1 <0>         0.2537
      8 C8         -1.2618   -2.1398   -0.1902 C.ar      1 <0>        -0.2738
      9 C9         -2.4705   -2.7811   -0.3985 C.ar      1 <0>         0.1944
     10 N1         -3.5941   -2.0868   -0.3167 N.ar      1 <0>        -0.5548
     11 C10        -3.5766   -0.7910   -0.0393 C.ar      1 <0>         0.5676
     12 N2         -2.4434   -0.1401    0.1718 N.ar      1 <0>        -0.5590
     13 N3         -4.7751   -0.1011    0.0371 N.pl3     1 <0>        -0.6352
     14 C11        -5.9892   -0.7933   -0.0604 C.ar      1 <0>         0.1031
     15 C12        -6.1244   -2.0441    0.5274 C.ar      1 <0>        -0.0562
     16 C13        -7.3209   -2.7264    0.4313 C.ar      1 <0>        -0.1797
     17 C14        -8.3894   -2.1615   -0.2527 C.ar      1 <0>         0.2086
     18 C15        -8.2542   -0.9104   -0.8401 C.ar      1 <0>        -0.1791
     19 C16        -7.0592   -0.2261   -0.7399 C.ar      1 <0>        -0.0911
     20 N4         -9.6021   -2.8532   -0.3505 N.pl3     1 <0>        -0.6343
     21 C17       -10.7058   -2.3344   -1.1739 C.3       1 <0>         0.0873
     22 C18       -11.1916   -3.4590   -2.0953 C.3       1 <0>         0.0453
     23 O1        -11.4759   -4.6202   -1.3113 O.3       1 <0>        -0.3794
     24 C19       -10.3403   -5.1587   -0.6299 C.3       1 <0>         0.0452
     25 C20        -9.8089   -4.1239    0.3621 C.3       1 <0>         0.0866
     26 C21         3.6299    2.0597    0.9963 C.2       1 <0>         0.5671
     27 O2          3.6075    3.2476    1.2532 O.2       1 <0>        -0.5214
     28 N5          4.8075    1.4085    0.9216 N.am      1 <0>        -0.7282
     29 C22         6.0606    2.1323    1.1501 C.3       1 <0>         0.2199
     30 C23         7.1951    1.2046    1.0128 C.1       1 <0>         0.1890
     31 N6          8.0707    0.4886    0.9069 N.1       1 <0>        -0.3977
     32 H1         -0.9768    1.8428    0.6917 H         1 <0>         0.1451
     33 H2          1.1245    3.0591    1.0712 H         1 <0>         0.1444
     34 H3          3.3341   -0.5575    0.4097 H         1 <0>         0.1320
     35 H4          1.2315   -1.7700    0.0259 H         1 <0>         0.1383
     36 H5         -0.3303   -2.6830   -0.2514 H         1 <0>         0.1484
     37 H6         -2.4964   -3.8367   -0.6256 H         1 <0>         0.1723
     38 H7         -4.7739    0.8613    0.1581 H         1 <0>         0.4216
     39 H8         -5.2935   -2.4834    1.0593 H         1 <0>         0.1276
     40 H9         -7.4258   -3.6996    0.8879 H         1 <0>         0.1247
     41 H10        -9.0850   -0.4712   -1.3724 H         1 <0>         0.1259
     42 H11        -6.9552    0.7485   -1.1935 H         1 <0>         0.1246
     43 H12       -11.5227   -2.0088   -0.5298 H         1 <0>         0.0705
     44 H13       -10.3534   -1.4950   -1.7734 H         1 <0>         0.0922
     45 H14       -12.0955   -3.1398   -2.6141 H         1 <0>         0.1050
     46 H15       -10.4159   -3.6930   -2.8245 H         1 <0>         0.0558
     47 H16       -10.6318   -6.0622   -0.0943 H         1 <0>         0.1052
     48 H17        -9.5615   -5.3988   -1.3537 H         1 <0>         0.0556
     49 H18        -8.8629   -4.4691    0.7793 H         1 <0>         0.0929
     50 H19       -10.5339   -3.9816    1.1635 H         1 <0>         0.0704
     51 H20         4.8254    0.4606    0.7165 H         1 <0>         0.4072
     52 H21         6.1560    2.9338    0.4176 H         1 <0>         0.1192
     53 H22         6.0573    2.5563    2.1542 H         1 <0>         0.1192
@<TRIPOS>BOND
     1    1    6 ar
     2    1    2 ar
     3    1   32 1
     4    2    3 ar
     5    2   33 1
     6    3    4 ar
     7    3   26 1
     8    4    5 ar
     9    4   34 1
    10    5    6 ar
    11    5   35 1
    12    6    7 1
    13    7   12 ar
    14    7    8 ar
    15    8    9 ar
    16    8   36 1
    17    9   10 ar
    18    9   37 1
    19   10   11 ar
    20   11   12 ar
    21   11   13 1
    22   13   14 1
    23   13   38 1
    24   14   19 ar
    25   14   15 ar
    26   15   16 ar
    27   15   39 1
    28   16   17 ar
    29   16   40 1
    30   17   18 ar
    31   17   20 1
    32   18   19 ar
    33   18   41 1
    34   19   42 1
    35   20   25 1
    36   20   21 1
    37   21   22 1
    38   21   43 1
    39   21   44 1
    40   22   23 1
    41   22   45 1
    42   22   46 1
    43   23   24 1
    44   24   25 1
    45   24   47 1
    46   24   48 1
    47   25   49 1
    48   25   50 1
    49   26   27 2
    50   26   28 am
    51   28   29 1
    52   28   51 1
    53   29   30 1
    54   29   52 1
    55   29   53 1
    56   30   31 3
@<TRIPOS>MOLECULE
ZINC49070412
   65    70     0     0     0
SMALL
USER_CHARGES

@<TRIPOS>ATOM
      1 C1         -0.0164    1.3580    0.0095 C.ar      1 <0>        -0.0960
      2 C2          1.1640    2.0929    0.0022 C.ar      1 <0>        -0.0689
      3 C3          2.3915    1.4552   -0.0134 C.ar      1 <0>        -0.0273
      4 C4          2.4388    0.0398   -0.0214 C.ar      1 <0>         0.1105
      5 C5          1.2265   -0.6935   -0.0132 C.ar      1 <0>         0.0712
      6 C6          0.0021   -0.0041    0.0020 C.ar      1 <0>        -0.0710
      7 N1          1.2607   -2.0323   -0.0202 N.ar      1 <0>        -0.4118
      8 C7          2.4141   -2.6562   -0.0345 C.ar      1 <0>         0.0816
      9 C8          3.6197   -1.9309   -0.0422 C.ar      1 <0>         0.1844
     10 N2          3.6054   -0.6081   -0.0359 N.ar      1 <0>        -0.4203
     11 C9          4.9135   -2.6532   -0.0579 C.2       1 <0>        -0.1805
     12 C10         6.1943   -2.0717    0.0383 C.2       1 <0>         0.1062
     13 N3          7.0792   -3.0310   -0.0117 N.2       1 <0>        -0.2826
     14 N4          6.4066   -4.2521   -0.1406 N.pl3     1 <0>        -0.3736
     15 C11         5.0832   -4.0049   -0.1622 C.2       1 <0>         0.0784
     16 C12         7.0348   -5.5725   -0.2312 C.3       1 <0>         0.1567
     17 C13         6.2116   -6.4684   -1.1613 C.3       1 <0>        -0.1646
     18 C14         6.8281   -7.8686   -1.1890 C.3       1 <0>        -0.0001
     19 N5          6.8269   -8.4346    0.1653 N.4       1 <0>        -0.5084
     20 C15         7.6728   -7.6203    1.0462 C.3       1 <0>        -0.0020
     21 C16         7.0888   -6.2105    1.1599 C.3       1 <0>        -0.1643
     22 C17         3.6445    2.2453   -0.0221 C.ar      1 <0>         0.0181
     23 C18         4.6614    1.9543    0.8866 C.ar      1 <0>        -0.1249
     24 C19         5.8286    2.6945    0.8745 C.ar      1 <0>         0.1315
     25 C20         5.9891    3.7243   -0.0380 C.ar      1 <0>        -0.1456
     26 C21         4.9817    4.0176   -0.9425 C.ar      1 <0>         0.1534
     27 C22         3.8134    3.2789   -0.9428 C.ar      1 <0>        -0.1497
     28 F1          5.1436    5.0237   -1.8294 F         1 <0>        -0.1211
     29 C23         7.2635    4.5284   -0.0465 C.3       1 <0>         0.0934
     30 N6          8.2325    3.9008   -0.9549 N.3       1 <0>        -0.5299
     31 C24         8.6580    2.5887   -0.4464 C.3       1 <0>         0.0164
     32 C25         9.6188    1.9455   -1.4500 C.3       1 <0>         0.0656
     33 O1         10.7248    2.8241   -1.6738 O.3       1 <0>        -0.3842
     34 C26        10.3466    4.1111   -2.1699 C.3       1 <0>         0.0639
     35 C27         9.3932    4.7761   -1.1736 C.3       1 <0>         0.0172
     36 F2          6.8145    2.4134    1.7544 F         1 <0>        -0.1282
     37 H1         -0.9640    1.8759    0.0259 H         1 <0>         0.1454
     38 H2          1.1220    3.1720    0.0083 H         1 <0>         0.1447
     39 H3         -0.9266   -0.5554    0.0082 H         1 <0>         0.1449
     40 H4          2.4387   -3.7360   -0.0401 H         1 <0>         0.1668
     41 H5          6.4065   -1.0173    0.1359 H         1 <0>         0.1951
     42 H6          4.2981   -4.7415   -0.2489 H         1 <0>         0.1815
     43 H7          8.0462   -5.4688   -0.6242 H         1 <0>         0.1234
     44 H8          5.1868   -6.5291   -0.7951 H         1 <0>         0.1001
     45 H9          6.2150   -6.0492   -2.1675 H         1 <0>         0.1262
     46 H10         6.2445   -8.5090   -1.8505 H         1 <0>         0.1448
     47 H11         7.8527   -7.8068   -1.5556 H         1 <0>         0.1383
     48 H12         5.8835   -8.4461    0.5231 H         1 <0>         0.4298
     49 H13         7.7128   -8.0773    2.0349 H         1 <0>         0.1429
     50 H14         8.6794   -7.5637    0.6319 H         1 <0>         0.1377
     51 H15         7.7192   -5.6069    1.8129 H         1 <0>         0.1241
     52 H16         6.0821   -6.2658    1.5743 H         1 <0>         0.0970
     53 H17         4.5369    1.1521    1.5989 H         1 <0>         0.1411
     54 H18         3.0306    3.5050   -1.6517 H         1 <0>         0.1463
     55 H19         7.0512    5.5422   -0.3859 H         1 <0>         0.0963
     56 H20         7.6787    4.5620    0.9608 H         1 <0>         0.0565
     57 H21         9.1633    2.7158    0.5111 H         1 <0>         0.0476
     58 H22         7.7856    1.9484   -0.3161 H         1 <0>         0.0819
     59 H23         9.9814    0.9982   -1.0510 H         1 <0>         0.0968
     60 H24         9.0978    1.7693   -2.3910 H         1 <0>         0.0583
     61 H25        11.2356    4.7299   -2.2916 H         1 <0>         0.1019
     62 H26         9.8468    3.9978   -3.1319 H         1 <0>         0.0613
     63 H27         9.0574    5.7326   -1.5741 H         1 <0>         0.0907
     64 H28         9.9102    4.9382   -0.2277 H         1 <0>         0.0471
     65 H29         7.1845   -9.3776    0.1349 H         1 <0>         0.4376
@<TRIPOS>BOND
     1    1    6 ar
     2    1    2 ar
     3    1   37 1
     4    2    3 ar
     5    2   38 1
     6    3    4 ar
     7    3   22 1
     8    4   10 ar
     9    4    5 ar
    10    5    6 ar
    11    5    7 ar
    12    6   39 1
    13    7    8 ar
    14    8    9 ar
    15    8   40 1
    16    9   10 ar
    17    9   11 1
    18   11   15 2
    19   11   12 1
    20   12   13 2
    21   12   41 1
    22   13   14 1
    23   14   15 1
    24   14   16 1
    25   15   42 1
    26   16   21 1
    27   16   17 1
    28   16   43 1
    29   17   18 1
    30   17   44 1
    31   17   45 1
    32   18   19 1
    33   18   46 1
    34   18   47 1
    35   19   20 1
    36   19   48 1
    37   19   65 1
    38   20   21 1
    39   20   49 1
    40   20   50 1
    41   21   51 1
    42   21   52 1
    43   22   27 ar
    44   22   23 ar
    45   23   24 ar
    46   23   53 1
    47   24   25 ar
    48   24   36 1
    49   25   26 ar
    50   25   29 1
    51   26   27 ar
    52   26   28 1
    53   27   54 1
    54   29   30 1
    55   29   55 1
    56   29   56 1
    57   30   35 1
    58   30   31 1
    59   31   32 1
    60   31   57 1
    61   31   58 1
    62   32   33 1
    63   32   59 1
    64   32   60 1
    65   33   34 1
    66   34   35 1
    67   34   61 1
    68   34   62 1
    69   35   63 1
    70   35   64 1
@<TRIPOS>MOLECULE
ZINC19862646
   74    77     0     0     0
SMALL
USER_CHARGES

@<TRIPOS>ATOM
      1 C1          1.5321   -2.2270   -1.1172 C.3       1 <0>        -0.0974
      2 C2          1.4579   -3.4853   -0.2913 C.ar      1 <0>        -0.2828
      3 C3          1.4428   -4.7274   -0.8959 C.ar      1 <0>         0.2132
      4 N1          1.3775   -5.8146   -0.1418 N.ar      1 <0>        -0.5856
      5 C4          1.3267   -5.7251    1.1793 C.ar      1 <0>         0.5872
      6 N2          1.3391   -4.5538    1.7974 N.ar      1 <0>        -0.6010
      7 C5          1.4087   -3.4225    1.1029 C.ar      1 <0>         0.4692
      8 N3          1.4274   -2.1981    1.7529 N.pl3     1 <0>        -0.6487
      9 C6          1.2465   -2.1391    3.1377 C.ar      1 <0>         0.1392
     10 C7          0.3643   -3.0118    3.7624 C.ar      1 <0>        -0.0571
     11 C8          0.1882   -2.9512    5.1306 C.ar      1 <0>        -0.1191
     12 C9          0.8887   -2.0227    5.8790 C.ar      1 <0>        -0.0354
     13 C10         1.7671   -1.1524    5.2605 C.ar      1 <0>        -0.6492
     14 C11         1.9525   -1.2118    3.8930 C.ar      1 <0>        -0.0460
     15 S1          2.6565    0.0289    6.2187 S.o2      1 <0>         2.6930
     16 O1          2.6701    1.2345    5.4666 O.2       1 <0>        -0.9582
     17 O2          2.1321   -0.0403    7.5376 O.2       1 <0>        -0.9484
     18 N4          4.2258   -0.4926    6.3054 N.pl3     1 <0>        -1.1080
     19 C12         4.5383   -1.7714    6.9481 C.3       1 <0>         0.1726
     20 C13         3.8035   -2.9001    6.2220 C.3       1 <0>        -0.1866
     21 C14         6.0466   -2.0200    6.8828 C.3       1 <0>        -0.1498
     22 C15         4.0912   -1.7298    8.4107 C.3       1 <0>        -0.1769
     23 N5          1.2587   -6.8853    1.9325 N.pl3     1 <0>        -0.6395
     24 C16         1.3035   -8.1342    1.3003 C.ar      1 <0>         0.1540
     25 C17         2.0939   -8.3140    0.1729 C.ar      1 <0>        -0.0712
     26 C18         2.1376   -9.5458   -0.4500 C.ar      1 <0>        -0.1194
     27 C19         1.3922  -10.6032    0.0504 C.ar      1 <0>         0.0917
     28 C20         0.6020  -10.4242    1.1763 C.ar      1 <0>        -0.1794
     29 C21         0.5621   -9.1947    1.8039 C.ar      1 <0>        -0.1104
     30 O3          1.4357  -11.8159   -0.5635 O.3       1 <0>        -0.3288
     31 C22         0.6430  -12.8599    0.0055 C.3       1 <0>         0.0276
     32 C23         0.8196  -14.1392   -0.8149 C.3       1 <0>         0.0038
     33 N6          2.2092  -14.6029   -0.7059 N.4       1 <0>        -0.3955
     34 C24         2.4829  -15.0808    0.6736 C.3       1 <0>        -0.0102
     35 C25         3.7053  -16.0147    0.4893 C.3       1 <0>        -0.1448
     36 C26         3.4110  -16.7069   -0.8614 C.3       1 <0>        -0.1451
     37 C27         2.4282  -15.7699   -1.5877 C.3       1 <0>        -0.0087
     38 H1          2.5763   -1.9593   -1.2786 H         1 <0>         0.0718
     39 H2          1.0472   -2.3945   -2.0790 H         1 <0>         0.0761
     40 H3          1.0264   -1.4170   -0.5916 H         1 <0>         0.0621
     41 H4          1.4834   -4.8111   -1.9719 H         1 <0>         0.1724
     42 H5          1.5661   -1.3823    1.2467 H         1 <0>         0.4261
     43 H6         -0.1835   -3.7366    3.1784 H         1 <0>         0.1362
     44 H7         -0.4974   -3.6294    5.6168 H         1 <0>         0.1362
     45 H8          0.7489   -1.9772    6.9490 H         1 <0>         0.1468
     46 H9          2.6421   -0.5346    3.4111 H         1 <0>         0.1369
     47 H10         4.9382    0.0487    5.9306 H         1 <0>         0.4193
     48 H11         4.0171   -2.8450    5.1546 H         1 <0>         0.0648
     49 H12         4.1395   -3.8614    6.6107 H         1 <0>         0.0746
     50 H13         2.7304   -2.7979    6.3836 H         1 <0>         0.0706
     51 H14         6.5700   -1.2159    7.4000 H         1 <0>         0.0667
     52 H15         6.2790   -2.9715    7.3610 H         1 <0>         0.0728
     53 H16         6.3651   -2.0496    5.8408 H         1 <0>         0.0622
     54 H17         3.0036   -1.7833    8.4598 H         1 <0>         0.0794
     55 H18         4.5211   -2.5762    8.9463 H         1 <0>         0.0689
     56 H19         4.4302   -0.8003    8.8680 H         1 <0>         0.0689
     57 H20         1.1799   -6.8330    2.8978 H         1 <0>         0.4242
     58 H21         2.6741   -7.4908   -0.2170 H         1 <0>         0.1478
     59 H22         2.7520   -9.6858   -1.3271 H         1 <0>         0.1346
     60 H23         0.0216  -11.2479    1.5651 H         1 <0>         0.1293
     61 H24        -0.0495   -9.0568    2.6834 H         1 <0>         0.1323
     62 H25         0.9618  -13.0397    1.0322 H         1 <0>         0.0841
     63 H26        -0.4063  -12.5649   -0.0027 H         1 <0>         0.1072
     64 H27         0.1486  -14.9097   -0.4354 H         1 <0>         0.1476
     65 H28         0.5854  -13.9359   -1.8599 H         1 <0>         0.1411
     66 H29         2.7323  -14.2453    1.3278 H         1 <0>         0.1336
     67 H30         1.6302  -15.6358    1.0647 H         1 <0>         0.1346
     68 H31         4.6276  -15.4365    0.4335 H         1 <0>         0.0983
     69 H32         3.7562  -16.7471    1.2950 H         1 <0>         0.1170
     70 H33         4.3288  -16.8140   -1.4395 H         1 <0>         0.1054
     71 H34         2.9518  -17.6813   -0.6950 H         1 <0>         0.1042
     72 H35         1.4839  -16.2856   -1.7625 H         1 <0>         0.1312
     73 H36         2.8573  -15.4440   -2.5352 H         1 <0>         0.1329
     74 H37         2.8451  -13.8584   -0.9497 H         1 <0>         0.4339
@<TRIPOS>BOND
     1    1    2 1
     2    1   38 1
     3    1   39 1
     4    1   40 1
     5    2    7 ar
     6    2    3 ar
     7    3    4 ar
     8    3   41 1
     9    4    5 ar
    10    5    6 ar
    11    5   23 1
    12    6    7 ar
    13    7    8 1
    14    8    9 1
    15    8   42 1
    16    9   14 ar
    17    9   10 ar
    18   10   11 ar
    19   10   43 1
    20   11   12 ar
    21   11   44 1
    22   12   13 ar
    23   12   45 1
    24   13   14 ar
    25   13   15 1
    26   14   46 1
    27   15   16 2
    28   15   17 2
    29   15   18 1
    30   18   19 1
    31   18   47 1
    32   19   20 1
    33   19   21 1
    34   19   22 1
    35   20   48 1
    36   20   49 1
    37   20   50 1
    38   21   51 1
    39   21   52 1
    40   21   53 1
    41   22   54 1
    42   22   55 1
    43   22   56 1
    44   23   24 1
    45   23   57 1
    46   24   29 ar
    47   24   25 ar
    48   25   26 ar
    49   25   58 1
    50   26   27 ar
    51   26   59 1
    52   27   28 ar
    53   27   30 1
    54   28   29 ar
    55   28   60 1
    56   29   61 1
    57   30   31 1
    58   31   32 1
    59   31   62 1
    60   31   63 1
    61   32   33 1
    62   32   64 1
    63   32   65 1
    64   33   37 1
    65   33   34 1
    66   33   74 1
    67   34   35 1
    68   34   66 1
    69   34   67 1
    70   35   36 1
    71   35   68 1
    72   35   69 1
    73   36   37 1
    74   36   70 1
    75   36   71 1
    76   37   72 1
    77   37   73 1
@<TRIPOS>MOLECULE
ZINC19862646
   75    78     0     0     0
SMALL
USER_CHARGES

@<TRIPOS>ATOM
      1 C1          3.3808   -3.2654   -0.7147 C.3       1 <0>        -0.1174
      2 C2          3.0541   -4.2784    0.3521 C.ar      1 <0>        -0.2100
      3 C3          3.1557   -5.6321    0.0957 C.ar      1 <0>         0.1981
      4 N1          2.8617   -6.4973    1.0548 N.ar      1 <0>        -0.5692
      5 C4          2.4732   -6.0816    2.2516 C.ar      1 <0>         0.6505
      6 N2          2.3630   -4.7931    2.5376 N.ar      1 <0>        -0.5551
      7 C5          2.6472   -3.8701    1.6240 C.ar      1 <0>         0.5155
      8 N3          2.5367   -2.5220    1.9281 N.pl3     1 <0>        -0.5916
      9 C6          2.0118   -2.1244    3.1612 C.ar      1 <0>         0.0890
     10 C7          0.9760   -2.8454    3.7420 C.ar      1 <0>        -0.0501
     11 C8          0.4602   -2.4502    4.9603 C.ar      1 <0>        -0.1182
     12 C9          0.9731   -1.3376    5.6021 C.ar      1 <0>        -0.0102
     13 C10         2.0037   -0.6175    5.0266 C.ar      1 <0>        -0.6496
     14 C11         2.5284   -1.0110    3.8111 C.ar      1 <0>        -0.0212
     15 S1          2.6531    0.7995    5.8483 S.o2      1 <0>         2.6896
     16 O1          2.8696    1.7853    4.8480 O.2       1 <0>        -0.9504
     17 O2          1.8225    1.0301    6.9780 O.2       1 <0>        -0.9388
     18 N4          4.1452    0.3845    6.4346 N.pl3     1 <0>        -1.1064
     19 C12         4.2722   -0.6965    7.4152 C.3       1 <0>         0.1714
     20 C13         3.7299   -1.9954    6.8154 C.3       1 <0>        -0.1837
     21 C14         5.7458   -0.8808    7.7831 C.3       1 <0>        -0.1510
     22 C15         3.4734   -0.3423    8.6711 C.3       1 <0>        -0.1792
     23 N5          2.1744   -7.0177    3.2274 N.pl3     1 <0>        -0.6171
     24 C16         2.4120   -8.3772    2.9897 C.ar      1 <0>         0.0845
     25 C17         3.5783   -8.7773    2.3511 C.ar      1 <0>        -0.1289
     26 C18         3.8119  -10.1181    2.1170 C.ar      1 <0>        -0.1050
     27 C19         2.8818  -11.0651    2.5196 C.ar      1 <0>         0.1305
     28 C20         1.7162  -10.6663    3.1572 C.ar      1 <0>        -0.1681
     29 C21         1.4840   -9.3263    3.3975 C.ar      1 <0>        -0.0694
     30 O3          3.1125  -12.3852    2.2887 O.3       1 <0>        -0.3207
     31 C22         2.1122  -13.3055    2.7299 C.3       1 <0>         0.0240
     32 C23         2.5444  -14.7322    2.3856 C.3       1 <0>         0.0028
     33 N6          3.7520  -15.0756    3.1483 N.4       1 <0>        -0.3967
     34 C24         3.4293  -15.1913    4.5935 C.3       1 <0>        -0.0112
     35 C25         4.5800  -16.0705    5.1444 C.3       1 <0>        -0.1449
     36 C26         4.8195  -17.0828    4.0008 C.3       1 <0>        -0.1462
     37 C27         4.2525  -16.4059    2.7392 C.3       1 <0>        -0.0088
     38 H1          4.4393   -3.0107   -0.6619 H         1 <0>         0.0981
     39 H2          3.1566   -3.6852   -1.6953 H         1 <0>         0.0988
     40 H3          2.7829   -2.3675   -0.5585 H         1 <0>         0.0837
     41 H4          3.4711   -5.9813   -0.8764 H         1 <0>         0.2194
     42 H5          2.8236   -1.8547    1.2852 H         1 <0>         0.4412
     43 H6          0.5746   -3.7139    3.2410 H         1 <0>         0.1368
     44 H7         -0.3450   -3.0103    5.4124 H         1 <0>         0.1457
     45 H8          0.5676   -1.0304    6.5548 H         1 <0>         0.1566
     46 H9          3.3364   -0.4507    3.3642 H         1 <0>         0.1454
     47 H10         4.9351    0.8571    6.1288 H         1 <0>         0.4219
     48 H11         4.1906   -2.1665    5.8425 H         1 <0>         0.0617
     49 H12         3.9638   -2.8276    7.4794 H         1 <0>         0.0773
     50 H13         2.6492   -1.9176    6.6971 H         1 <0>         0.0658
     51 H14         6.1321    0.0446    8.2104 H         1 <0>         0.0702
     52 H15         5.8403   -1.6851    8.5127 H         1 <0>         0.0744
     53 H16         6.3149   -1.1332    6.8884 H         1 <0>         0.0617
     54 H17         2.4075   -0.4307    8.4608 H         1 <0>         0.0781
     55 H18         3.7425   -1.0246    9.4774 H         1 <0>         0.0716
     56 H19         3.7010    0.6810    8.9699 H         1 <0>         0.0726
     57 H20         1.8006   -6.7318    4.0756 H         1 <0>         0.4501
     58 H21         4.3025   -8.0400    2.0372 H         1 <0>         0.1399
     59 H22         4.7188  -10.4294    1.6200 H         1 <0>         0.1525
     60 H23         0.9923  -11.4042    3.4700 H         1 <0>         0.1473
     61 H24         0.5787   -9.0163    3.8982 H         1 <0>         0.1499
     62 H25         1.9854  -13.2146    3.8087 H         1 <0>         0.0911
     63 H26         1.1682  -13.0819    2.2330 H         1 <0>         0.1135
     64 H27         1.7436  -15.4261    2.6413 H         1 <0>         0.1535
     65 H28         2.7570  -14.8000    1.3187 H         1 <0>         0.1437
     66 H29         3.4336  -14.2102    5.0684 H         1 <0>         0.1316
     67 H30         2.4673  -15.6840    4.7347 H         1 <0>         0.1366
     68 H31         5.4727  -15.4707    5.3219 H         1 <0>         0.0985
     69 H32         4.2713  -16.5835    6.0553 H         1 <0>         0.1194
     70 H33         5.8861  -17.2730    3.8811 H         1 <0>         0.1075
     71 H34         4.2887  -18.0134    4.2019 H         1 <0>         0.1068
     72 H35         3.4347  -17.0018    2.3338 H         1 <0>         0.1333
     73 H36         5.0389  -16.2933    1.9929 H         1 <0>         0.1343
     74 H37         4.4651  -14.3764    3.0049 H         1 <0>         0.4315
     75 H38         2.9315   -7.4486    0.8786 H         1 <0>         0.4413
@<TRIPOS>BOND
     1    1    2 1
     2    1   38 1
     3    1   39 1
     4    1   40 1
     5    2    7 ar
     6    2    3 ar
     7    3    4 ar
     8    3   41 1
     9    4    5 ar
    10    4   75 1
    11    5    6 ar
    12    5   23 1
    13    6    7 ar
    14    7    8 1
    15    8    9 1
    16    8   42 1
    17    9   14 ar
    18    9   10 ar
    19   10   11 ar
    20   10   43 1
    21   11   12 ar
    22   11   44 1
    23   12   13 ar
    24   12   45 1
    25   13   14 ar
    26   13   15 1
    27   14   46 1
    28   15   16 2
    29   15   17 2
    30   15   18 1
    31   18   19 1
    32   18   47 1
    33   19   20 1
    34   19   21 1
    35   19   22 1
    36   20   48 1
    37   20   49 1
    38   20   50 1
    39   21   51 1
    40   21   52 1
    41   21   53 1
    42   22   54 1
    43   22   55 1
    44   22   56 1
    45   23   24 1
    46   23   57 1
    47   24   29 ar
    48   24   25 ar
    49   25   26 ar
    50   25   58 1
    51   26   27 ar
    52   26   59 1
    53   27   28 ar
    54   27   30 1
    55   28   29 ar
    56   28   60 1
    57   29   61 1
    58   30   31 1
    59   31   32 1
    60   31   62 1
    61   31   63 1
    62   32   33 1
    63   32   64 1
    64   32   65 1
    65   33   37 1
    66   33   34 1
    67   33   74 1
    68   34   35 1
    69   34   66 1
    70   34   67 1
    71   35   36 1
    72   35   68 1
    73   35   69 1
    74   36   37 1
    75   36   70 1
    76   36   71 1
    77   37   72 1
    78   37   73 1
@<TRIPOS>MOLECULE
ZINC66103171
   63    67     0     0     0
SMALL
USER_CHARGES

@<TRIPOS>ATOM
      1 C1          0.8415   -0.7219    1.0870 C.3       1 <0>        -0.1831
      2 C2          0.0143   -0.0202    0.0080 C.3       1 <0>         0.1131
      3 C3          0.7045   -0.1798   -1.3481 C.3       1 <0>        -0.1657
      4 C4         -1.3595   -0.6367   -0.0520 C.2       1 <0>         0.5368
      5 O1         -1.6488   -1.3862   -0.9605 O.2       1 <0>        -0.5277
      6 N1         -2.2668   -0.3551    0.9041 N.am      1 <0>        -0.5996
      7 C5         -1.8952    0.4554    2.0724 C.3       1 <0>         0.0826
      8 C6         -2.8554    1.6477    2.1670 C.3       1 <0>         0.1071
      9 N2         -4.2340    1.1500    2.0597 N.pl3     1 <0>        -0.6197
     10 C7         -4.6056    0.3395    0.8915 C.3       1 <0>         0.1045
     11 C8         -3.6469   -0.8481    0.7941 C.3       1 <0>         0.0951
     12 C9         -5.1743    1.4419    3.0507 C.ar      1 <0>         0.2546
     13 C10        -4.8474    2.3128    4.0847 C.ar      1 <0>        -0.1930
     14 C11        -5.7740    2.6048    5.0682 C.ar      1 <0>        -0.0180
     15 C12        -7.0299    2.0346    5.0309 C.ar      1 <0>        -0.2243
     16 C13        -7.3689    1.1587    3.9963 C.ar      1 <0>         0.0750
     17 C14        -6.4347    0.8681    3.0004 C.ar      1 <0>        -0.1701
     18 C15        -8.7127    0.5467    3.9536 C.2       1 <0>        -0.1137
     19 C16        -9.0431   -0.7630    4.2761 C.2       1 <0>         0.0127
     20 C17       -10.5080   -0.8777    4.0708 C.2       1 <0>         0.5539
     21 O2        -11.1740   -1.8769    4.2502 O.2       1 <0>        -0.4390
     22 N3        -10.9731    0.3122    3.6533 N.am      1 <0>        -0.6874
     23 C18        -9.9731    1.2052    3.5662 C.2       1 <0>         0.5615
     24 O3        -10.0883    2.3647    3.2210 O.2       1 <0>        -0.4346
     25 C19        -8.1287   -1.8194    4.7279 C.2       1 <0>        -0.1566
     26 C20        -7.5690   -1.9421    5.9700 C.2       1 <0>         0.1116
     27 N4         -6.7799   -3.0454    6.0085 N.pl3     1 <0>        -0.5806
     28 H1         -6.2779   -3.3400    6.7844 H         1 <0>         0.4218
     29 C21        -6.7932   -3.6895    4.7878 C.ar      1 <0>         0.0924
     30 C22        -7.6378   -2.9608    3.9343 C.ar      1 <0>        -0.0700
     31 C23        -7.8452   -3.3881    2.6254 C.ar      1 <0>        -0.0765
     32 C24        -7.2206   -4.5307    2.1736 C.ar      1 <0>        -0.1338
     33 C25        -6.3890   -5.2533    3.0161 C.ar      1 <0>        -0.0986
     34 C26        -6.1685   -4.8370    4.3117 C.ar      1 <0>        -0.1228
     35 C27        -8.0358    2.3562    6.1060 C.3       1 <0>         0.5081
     36 F1         -7.4690    3.2475    7.0233 F         1 <0>        -0.1771
     37 F2         -9.1673    2.9401    5.5265 F         1 <0>        -0.1702
     38 F3         -8.4048    1.1793    6.7664 F         1 <0>        -0.1828
     39 O4         -0.1002    1.3688    0.3236 O.3       1 <0>        -0.5492
     40 H2          1.8604   -0.3347    1.0729 H         1 <0>         0.0764
     41 H3          0.3959   -0.5365    2.0643 H         1 <0>         0.0717
     42 H4          0.8576   -1.7943    0.8925 H         1 <0>         0.0745
     43 H5          0.7145   -1.2330   -1.6290 H         1 <0>         0.0786
     44 H6          0.1624    0.3920   -2.1013 H         1 <0>         0.0695
     45 H7          1.7284    0.1878   -1.2802 H         1 <0>         0.0681
     46 H8         -1.9721   -0.1488    2.9763 H         1 <0>         0.0669
     47 H9         -0.8734    0.8169    1.9568 H         1 <0>         0.1252
     48 H10        -2.7213    2.1502    3.1250 H         1 <0>         0.0958
     49 H11        -2.6538    2.3451    1.3539 H         1 <0>         0.0785
     50 H12        -5.6274   -0.0220    1.0070 H         1 <0>         0.0978
     51 H13        -4.5287    0.9437   -0.0124 H         1 <0>         0.0737
     52 H14        -3.7816   -1.3472   -0.1655 H         1 <0>         0.1041
     53 H15        -3.8514   -1.5473    1.6049 H         1 <0>         0.0747
     54 H16        -3.8660    2.7623    4.1195 H         1 <0>         0.1376
     55 H17        -5.5137    3.2813    5.8689 H         1 <0>         0.1423
     56 H18        -6.6920    0.1950    2.1959 H         1 <0>         0.1370
     57 H19       -11.9021    0.5012    3.4479 H         1 <0>         0.4319
     58 H20        -7.7302   -1.2636    6.7946 H         1 <0>         0.1784
     59 H21        -8.4926   -2.8273    1.9676 H         1 <0>         0.1191
     60 H22        -7.3797   -4.8650    1.1590 H         1 <0>         0.1257
     61 H23        -5.9046   -6.1471    2.6517 H         1 <0>         0.1274
     62 H24        -5.5204   -5.4081    4.9600 H         1 <0>         0.1220
     63 H25         0.7475    1.8308    0.3787 H         1 <0>         0.3863
@<TRIPOS>BOND
     1    1    2 1
     2    1   40 1
     3    1   41 1
     4    1   42 1
     5    2    3 1
     6    2    4 1
     7    2   39 1
     8    3   43 1
     9    3   44 1
    10    3   45 1
    11    4    5 2
    12    4    6 am
    13    6   11 1
    14    6    7 1
    15    7    8 1
    16    7   46 1
    17    7   47 1
    18    8    9 1
    19    8   48 1
    20    8   49 1
    21    9   10 1
    22    9   12 1
    23   10   11 1
    24   10   50 1
    25   10   51 1
    26   11   52 1
    27   11   53 1
    28   12   17 ar
    29   12   13 ar
    30   13   14 ar
    31   13   54 1
    32   14   15 ar
    33   14   55 1
    34   15   16 ar
    35   15   35 1
    36   16   17 ar
    37   16   18 1
    38   17   56 1
    39   18   23 1
    40   18   19 2
    41   19   20 1
    42   19   25 1
    43   20   21 2
    44   20   22 am
    45   22   23 am
    46   22   57 1
    47   23   24 2
    48   25   30 1
    49   25   26 2
    50   26   27 1
    51   26   58 1
    52   27   28 1
    53   27   29 1
    54   29   34 ar
    55   29   30 ar
    56   30   31 ar
    57   31   32 ar
    58   31   59 1
    59   32   33 ar
    60   32   60 1
    61   33   34 ar
    62   33   61 1
    63   34   62 1
    64   35   36 1
    65   35   37 1
    66   35   38 1
    67   39   63 1
@<TRIPOS>MOLECULE
ZINC43207851
   41    44     0     0     0
SMALL
USER_CHARGES

@<TRIPOS>ATOM
      1 C1         -0.0177    1.4562    0.0100 C.2       1 <0>        -0.1718
      2 C2          1.2630    1.8627    0.0000 C.2       1 <0>         0.0562
      3 N1          2.0962    0.7748   -0.0138 N.pl3     1 <0>        -0.5731
      4 H1          3.0653    0.8164   -0.0225 H         1 <0>         0.4233
      5 C3          1.3605   -0.3787   -0.0130 C.ar      1 <0>         0.3199
      6 C4          0.0021   -0.0041    0.0020 C.ar      1 <0>        -0.2022
      7 C5         -0.9746   -1.0138    0.0052 C.ar      1 <0>         0.3164
      8 N2         -0.5697   -2.2831   -0.0061 N.ar      1 <0>        -0.5417
      9 C6          0.7143   -2.5871   -0.0199 C.ar      1 <0>         0.3224
     10 N3          1.6626   -1.6744   -0.0232 N.ar      1 <0>        -0.5408
     11 C7         -2.4158   -0.6764    0.0213 C.2       1 <0>        -0.2051
     12 C8         -3.0087    0.4202    0.6810 C.2       1 <0>         0.0821
     13 N4         -4.2951    0.3778    0.4601 N.2       1 <0>        -0.2825
     14 N5         -4.5741   -0.7356   -0.3413 N.pl3     1 <0>        -0.3609
     15 C9         -3.4151   -1.3673   -0.6056 C.2       1 <0>         0.1079
     16 C10        -5.8997   -1.1411   -0.8152 C.3       1 <0>         0.1727
     17 H2         -6.6614   -0.7566   -0.1369 H         1 <0>         0.1166
     18 C11        -5.9803   -2.6683   -0.8596 C.3       1 <0>        -0.0423
     19 C12        -5.8743   -3.2052    0.5069 C.1       1 <0>         0.1905
     20 N6         -5.7925   -3.6195    1.5615 N.1       1 <0>        -0.4070
     21 C13        -6.1343   -0.5771   -2.2180 C.3       1 <0>        -0.1029
     22 C14        -6.1264    0.9650   -2.1756 C.3       1 <0>        -0.1142
     23 C15        -7.2156    1.3787   -3.1962 C.3       1 <0>        -0.1262
     24 C16        -8.3123    0.3068   -2.9789 C.3       1 <0>        -0.1260
     25 C17        -7.5242   -0.9956   -2.7287 C.3       1 <0>        -0.1226
     26 H3         -0.8935    2.0880    0.0258 H         1 <0>         0.1554
     27 H4          1.5872    2.8929    0.0021 H         1 <0>         0.1838
     28 H5          0.9990   -3.6288   -0.0288 H         1 <0>         0.1996
     29 H6         -2.4897    1.1645    1.2667 H         1 <0>         0.1880
     30 H7         -3.2965   -2.2591   -1.2030 H         1 <0>         0.1805
     31 H8         -6.9330   -2.9694   -1.2954 H         1 <0>         0.1388
     32 H9         -5.1636   -3.0578   -1.4673 H         1 <0>         0.1199
     33 H10        -5.3626   -0.9366   -2.8986 H         1 <0>         0.0860
     34 H11        -6.3837    1.3206   -1.1779 H         1 <0>         0.0755
     35 H12        -5.1529    1.3499   -2.4795 H         1 <0>         0.0651
     36 H13        -7.5982    2.3741   -2.9706 H         1 <0>         0.0681
     37 H14        -6.8281    1.3341   -4.2140 H         1 <0>         0.0671
     38 H15        -8.9227    0.5560   -2.1109 H         1 <0>         0.0678
     39 H16        -8.9342    0.2113   -3.8690 H         1 <0>         0.0682
     40 H17        -7.4270   -1.5575   -3.6576 H         1 <0>         0.0756
     41 H18        -8.0316   -1.6005   -1.9772 H         1 <0>         0.0719
@<TRIPOS>BOND
     1    1    6 1
     2    1    2 2
     3    1   26 1
     4    2    3 1
     5    2   27 1
     6    3    4 1
     7    3    5 1
     8    5   10 ar
     9    5    6 ar
    10    6    7 ar
    11    7    8 ar
    12    7   11 1
    13    8    9 ar
    14    9   10 ar
    15    9   28 1
    16   11   15 2
    17   11   12 1
    18   12   13 2
    19   12   29 1
    20   13   14 1
    21   14   15 1
    22   14   16 1
    23   15   30 1
    24   16   17 1
    25   16   18 1
    26   16   21 1
    27   18   19 1
    28   18   31 1
    29   18   32 1
    30   19   20 3
    31   21   25 1
    32   21   22 1
    33   21   33 1
    34   22   23 1
    35   22   34 1
    36   22   35 1
    37   23   24 1
    38   23   36 1
    39   23   37 1
    40   24   25 1
    41   24   38 1
    42   24   39 1
    43   25   40 1
    44   25   41 1
@<TRIPOS>MOLECULE
ZINC03938688
   39    41     0     0     0
SMALL
USER_CHARGES

@<TRIPOS>ATOM
      1 C1         -0.0095    1.3826    0.0704 C.ar      1 <0>        -0.0343
      2 C2          0.5587    1.0580   -1.1482 C.ar      1 <0>        -0.1609
      3 C3          1.7655    0.3862   -1.1955 C.ar      1 <0>         0.1753
      4 C4          2.4129    0.0342   -0.0053 C.ar      1 <0>        -0.1954
      5 C5          1.8304    0.3669    1.2233 C.ar      1 <0>         0.1741
      6 C6          0.6231    1.0388    1.2514 C.ar      1 <0>        -0.1610
      7 F1          2.4463    0.0317    2.3781 F         1 <0>        -0.1212
      8 C7          3.6999   -0.6827   -0.0456 C.2       1 <0>         0.6210
      9 O1          4.7383   -0.0615   -0.1600 O.2       1 <0>        -0.4669
     10 N1          3.7255   -2.0272    0.0446 N.am      1 <0>        -0.3962
     11 C8          4.8314   -2.8210    0.1249 C.2       1 <0>         0.5948
     12 N2          4.4249   -4.0694    0.1979 N.2       1 <0>        -0.5873
     13 C9          3.0869   -4.1118    0.1675 C.2       1 <0>         0.5191
     14 N3          2.6183   -2.8904    0.0808 N.2       1 <0>        -0.3480
     15 N4          2.3148   -5.2702    0.2247 N.pl3     1 <0>        -0.6226
     16 C10         2.9267   -6.5079    0.4407 C.ar      1 <0>         0.2365
     17 C11         4.1432   -6.5760    1.1080 C.ar      1 <0>        -0.1584
     18 C12         4.7450   -7.8008    1.3202 C.ar      1 <0>         0.0098
     19 C13         4.1379   -8.9586    0.8692 C.ar      1 <0>        -0.7033
     20 C14         2.9269   -8.8944    0.2046 C.ar      1 <0>         0.0112
     21 C15         2.3170   -7.6734   -0.0063 C.ar      1 <0>        -0.1777
     22 S1          4.9094  -10.5191    1.1415 S.o2      1 <0>         2.7034
     23 O2          4.4084  -11.3993    0.1448 O.2       1 <0>        -0.9656
     24 O3          6.2977  -10.2630    1.3036 O.2       1 <0>        -0.9650
     25 N5          4.3605  -11.0895    2.5960 N.pl3     1 <0>        -1.2510
     26 N6          6.1422   -2.3912    0.1281 N.pl3     1 <0>        -0.7911
     27 F2          2.3185    0.0697   -2.3868 F         1 <0>        -0.1201
     28 H1         -0.9506    1.9116    0.0998 H         1 <0>         0.1546
     29 H2          0.0576    1.3300   -2.0654 H         1 <0>         0.1549
     30 H3          0.1721    1.2963    2.1984 H         1 <0>         0.1546
     31 H4          1.3525   -5.2176    0.1147 H         1 <0>         0.4325
     32 H5          4.6180   -5.6722    1.4601 H         1 <0>         0.1556
     33 H6          5.6909   -7.8544    1.8385 H         1 <0>         0.1456
     34 H7          2.4556   -9.8005   -0.1466 H         1 <0>         0.1475
     35 H8          1.3691   -7.6243   -0.5215 H         1 <0>         0.1387
     36 H9          3.7284  -10.5673    3.1145 H         1 <0>         0.4165
     37 H10         4.6709  -11.9458    2.9296 H         1 <0>         0.4206
     38 H11         6.3422   -1.4439    0.0694 H         1 <0>         0.4292
     39 H12         6.8640   -3.0364    0.1890 H         1 <0>         0.4303
@<TRIPOS>BOND
     1    1    6 ar
     2    1    2 ar
     3    1   28 1
     4    2    3 ar
     5    2   29 1
     6    3    4 ar
     7    3   27 1
     8    4    5 ar
     9    4    8 1
    10    5    6 ar
    11    5    7 1
    12    6   30 1
    13    8    9 2
    14    8   10 am
    15   10   14 1
    16   10   11 1
    17   11   12 2
    18   11   26 1
    19   12   13 1
    20   13   14 2
    21   13   15 1
    22   15   16 1
    23   15   31 1
    24   16   21 ar
    25   16   17 ar
    26   17   18 ar
    27   17   32 1
    28   18   19 ar
    29   18   33 1
    30   19   20 ar
    31   19   22 1
    32   20   21 ar
    33   20   34 1
    34   21   35 1
    35   22   23 2
    36   22   24 2
    37   22   25 1
    38   25   36 1
    39   25   37 1
    40   26   38 1
    41   26   39 1
@<TRIPOS>MOLECULE
ZINC12504479
   39    42     0     0     0
SMALL
USER_CHARGES
tert-butyl-fluoro-BLAHone
@<TRIPOS>ATOM
      1 C1          0.0306    7.5665   -1.3573 C.3       1 <0>        -0.1435
      2 C2         -0.0131    6.9316    0.0341 C.3       1 <0>         0.0141
      3 C3         -1.4663    6.6486    0.4201 C.3       1 <0>        -0.1303
      4 C4          0.6075    7.8907    1.0520 C.3       1 <0>        -0.1484
      5 C5          0.7640    5.6405    0.0218 C.2       1 <0>         0.2640
      6 N1          2.1200    5.5432    0.0086 N.pl3     1 <0>        -0.5660
      7 H1          2.7692    6.3038    0.0059 H         1 <0>         0.4300
      8 C6          2.4322    4.2055   -0.0004 C.ar      1 <0>         0.0707
      9 C7          3.6945    3.4726   -0.0160 C.ar      1 <0>        -0.0387
     10 C8          4.9179    4.1553   -0.0241 C.ar      1 <0>        -0.0830
     11 C9          6.0889    3.4567   -0.0382 C.ar      1 <0>        -0.1479
     12 C10         6.0877    2.0644   -0.0451 C.ar      1 <0>         0.1067
     13 C11         4.9015    1.3651   -0.0371 C.ar      1 <0>        -0.1434
     14 C12         3.6874    2.0596   -0.0226 C.ar      1 <0>         0.0348
     15 C13         2.4115    1.3424   -0.0138 C.ar      1 <0>        -0.1820
     16 C14         1.2049    2.0599    0.0016 C.ar      1 <0>         0.1180
     17 C15         1.2195    3.5214    0.0080 C.ar      1 <0>         0.0317
     18 N2          0.2386    4.4495    0.0214 N.2       1 <0>        -0.4565
     19 C16        -0.0162    1.3425    0.0094 C.2       1 <0>        -0.2034
     20 C17         0.0021   -0.0041    0.0020 C.2       1 <0>         0.1350
     21 N3          1.1742   -0.7011   -0.0125 N.am      1 <0>        -0.6142
     22 H2          1.1491   -1.6708   -0.0168 H         1 <0>         0.4195
     23 C18         2.3662   -0.0731   -0.0205 C.2       1 <0>         0.5428
     24 O1          3.3998   -0.7196   -0.0338 O.2       1 <0>        -0.5363
     25 F1          7.2604    1.3938   -0.0600 F         1 <0>        -0.1343
     26 H3         -0.4115    6.8833   -2.0824 H         1 <0>         0.0650
     27 H4         -0.5315    8.5004   -1.3483 H         1 <0>         0.0730
     28 H5          1.0659    7.7682   -1.6323 H         1 <0>         0.0547
     29 H6         -1.4974    6.1963    1.4114 H         1 <0>         0.0620
     30 H7         -2.0283    7.5824    0.4291 H         1 <0>         0.0642
     31 H8         -1.9084    5.9653   -0.3050 H         1 <0>         0.0701
     32 H9          1.6428    8.0923    0.7770 H         1 <0>         0.0535
     33 H10         0.0454    8.8245    1.0609 H         1 <0>         0.0757
     34 H11         0.5764    7.4384    2.0432 H         1 <0>         0.0638
     35 H12         4.9335    5.2351   -0.0195 H         1 <0>         0.1298
     36 H13         7.0282    3.9897   -0.0443 H         1 <0>         0.1393
     37 H14         4.9085    0.2852   -0.0418 H         1 <0>         0.1812
     38 H15        -0.9571    1.8725    0.0168 H         1 <0>         0.1577
     39 H16        -0.9330   -0.5444    0.0080 H         1 <0>         0.1706
@<TRIPOS>BOND
     1    1    2 1
     2    1   26 1
     3    1   27 1
     4    1   28 1
     5    2    3 1
     6    2    4 1
     7    2    5 1
     8    3   29 1
     9    3   30 1
    10    3   31 1
    11    4   32 1
    12    4   33 1
    13    4   34 1
    14    5   18 2
    15    5    6 1
    16    6    7 1
    17    6    8 1
    18    8   17 ar
    19    8    9 ar
    20    9   14 ar
    21    9   10 ar
    22   10   11 ar
    23   10   35 1
    24   11   12 ar
    25   11   36 1
    26   12   13 ar
    27   12   25 1
    28   13   14 ar
    29   13   37 1
    30   14   15 ar
    31   15   23 1
    32   15   16 ar
    33   16   17 ar
    34   16   19 1
    35   17   18 1
    36   19   20 2
    37   19   38 1
    38   20   21 1
    39   20   39 1
    40   21   22 1
    41   21   23 am
    42   23   24 2
@<TRIPOS>MOLECULE
ZINC03818808
   43    45     0     0     0
SMALL
USER_CHARGES

@<TRIPOS>ATOM
      1 C1         -0.1632    1.4289   -0.0427 C.3       1 <0>        -0.1412
      2 C2         -0.0864   -0.0984    0.0043 C.3       1 <0>        -0.0993
      3 H1          0.4045   -0.4653   -0.8971 H         1 <0>         0.0854
      4 C3         -1.5005   -0.6778    0.0865 C.3       1 <0>        -0.1618
      5 C4         -1.4214   -2.2076    0.0985 C.3       1 <0>         0.0979
      6 N1         -0.5332   -2.6266    1.1913 N.am      1 <0>        -0.6084
      7 C5          0.8204   -2.0592    1.2586 C.3       1 <0>         0.1008
      8 C6          0.7158   -0.5310    1.2337 C.3       1 <0>         0.1392
      9 H2          1.7154   -0.0989    1.1864 H         1 <0>         0.1227
     10 N2          0.0389   -0.0672    2.4474 N.pl3     1 <0>        -0.5724
     11 C7         -1.3008   -0.5622    2.7736 C.3       1 <0>         0.0568
     12 C8          0.6646    0.8382    3.2852 C.ar      1 <0>         0.4913
     13 C9         -0.0139    1.3910    4.3823 C.ar      1 <0>        -0.2606
     14 C10        -1.3557    1.2550    4.9458 C.2       1 <0>        -0.1714
     15 C11        -1.4077    2.0560    6.0226 C.2       1 <0>         0.0373
     16 N3         -0.2038    2.6908    6.1878 N.pl3     1 <0>        -0.5701
     17 H3          0.0007    3.3193    6.8977 H         1 <0>         0.4217
     18 C12         0.6666    2.3073    5.2049 C.ar      1 <0>         0.3412
     19 N4          1.9288    2.6138    4.9083 N.ar      1 <0>        -0.5745
     20 C13         2.5254    2.0715    3.8692 C.ar      1 <0>         0.3621
     21 N5          1.9260    1.2026    3.0748 N.ar      1 <0>        -0.6016
     22 C14        -0.9523   -3.5144    2.1147 C.2       1 <0>         0.5178
     23 O1         -0.2095   -3.8523    3.0120 O.2       1 <0>        -0.5153
     24 C15        -2.3438   -4.0872    2.0324 C.3       1 <0>        -0.0460
     25 C16        -2.5552   -5.0247    3.1474 C.1       1 <0>         0.2103
     26 N6         -2.7185   -5.7482    4.0078 N.1       1 <0>        -0.4023
     27 H4          0.8439    1.8417   -0.1017 H         1 <0>         0.0576
     28 H5         -0.7342    1.7372   -0.9185 H         1 <0>         0.0554
     29 H6         -0.6541    1.7959    0.8587 H         1 <0>         0.0527
     30 H7         -1.9831   -0.3313    1.0004 H         1 <0>         0.0936
     31 H8         -2.0787   -0.3501   -0.7775 H         1 <0>         0.0813
     32 H9         -2.4164   -2.6237    0.2564 H         1 <0>         0.0917
     33 H10        -1.0222   -2.5603   -0.8525 H         1 <0>         0.0812
     34 H11         1.3045   -2.3773    2.1818 H         1 <0>         0.1011
     35 H12         1.4023   -2.3998    0.4022 H         1 <0>         0.0864
     36 H13        -1.4613   -1.5240    2.2863 H         1 <0>         0.0974
     37 H14        -1.3908   -0.6824    3.8532 H         1 <0>         0.0714
     38 H15        -2.0469    0.1513    2.4239 H         1 <0>         0.0596
     39 H16        -2.1522    0.6306    4.5687 H         1 <0>         0.1530
     40 H17        -2.2689    2.1817    6.6620 H         1 <0>         0.1790
     41 H18         3.5491    2.3441    3.6594 H         1 <0>         0.1974
     42 H19        -3.0733   -3.2796    2.0934 H         1 <0>         0.1393
     43 H20        -2.4641   -4.6148    1.0862 H         1 <0>         0.1422
@<TRIPOS>BOND
     1    1    2 1
     2    1   27 1
     3    1   28 1
     4    1   29 1
     5    2    3 1
     6    2    8 1
     7    2    4 1
     8    4    5 1
     9    4   30 1
    10    4   31 1
    11    5    6 1
    12    5   32 1
    13    5   33 1
    14    6    7 1
    15    6   22 am
    16    7    8 1
    17    7   34 1
    18    7   35 1
    19    8    9 1
    20    8   10 1
    21   10   11 1
    22   10   12 1
    23   11   36 1
    24   11   37 1
    25   11   38 1
    26   12   21 ar
    27   12   13 ar
    28   13   18 ar
    29   13   14 1
    30   14   15 2
    31   14   39 1
    32   15   16 1
    33   15   40 1
    34   16   17 1
    35   16   18 1
    36   18   19 ar
    37   19   20 ar
    38   20   21 ar
    39   20   41 1
    40   22   23 2
    41   22   24 1
    42   24   25 1
    43   24   42 1
    44   24   43 1
    45   25   26 3
@<TRIPOS>MOLECULE
ZINC03818808
   44    46     0     0     0
SMALL
USER_CHARGES

@<TRIPOS>ATOM
      1 C1          1.0751    1.2737   -0.0434 C.3       1 <0>        -0.1717
      2 C2          0.9577   -0.2392    0.1521 C.3       1 <0>        -0.1047
      3 H1          1.6206   -0.7482   -0.5476 H         1 <0>         0.1065
      4 C3         -0.4865   -0.6759   -0.1043 C.3       1 <0>        -0.1315
      5 C4         -0.5928   -2.1955    0.0584 C.3       1 <0>         0.0881
      6 N1         -0.0762   -2.5665    1.3829 N.am      1 <0>        -0.6217
      7 C5          1.2696   -2.1192    1.7670 C.3       1 <0>         0.0703
      8 C6          1.3546   -0.6005    1.5853 C.3       1 <0>         0.1548
      9 H2          2.3753   -0.2682    1.7748 H         1 <0>         0.1151
     10 N2          0.4432    0.0566    2.5254 N.pl3     1 <0>        -0.6726
     11 C7          0.2147    1.5009    2.4360 C.3       1 <0>         0.0820
     12 C8         -0.1863   -0.6692    3.4747 C.cat     1 <0>         0.6538
     13 N3         -1.4115   -1.1477    3.3110 N.pl3     1 <0>        -0.5444
     14 C9         -2.0279   -1.8522    4.2561 C.2       1 <0>         0.3321
     15 N4         -1.4500   -2.3911    5.3069 N.2       1 <0>        -0.3576
     16 C10        -0.1425   -2.2304    5.4947 C.2       1 <0>         0.3486
     17 N5          0.8810   -2.7839    6.0628 N.2       1 <0>        -0.3868
     18 C11         2.0466   -2.4288    5.4730 C.2       1 <0>         0.0742
     19 C12         1.8950   -1.3891    4.6394 C.2       1 <0>        -0.1875
     20 C13         0.4539   -1.0025    4.7995 C.3       1 <0>        -0.1965
     21 H3          0.3826   -0.1407    5.4632 H         1 <0>         0.2035
     22 C14        -0.8228   -3.3029    2.2295 C.2       1 <0>         0.4987
     23 O1         -0.4185   -3.5355    3.3491 O.2       1 <0>        -0.5208
     24 C15        -2.1600   -3.8373    1.7851 C.3       1 <0>        -0.0470
     25 C16        -2.7721   -4.6027    2.8834 C.1       1 <0>         0.1796
     26 N6         -3.2445   -5.1934    3.7309 N.1       1 <0>        -0.3579
     27 H4          1.9917    1.6307    0.4261 H         1 <0>         0.0671
     28 H5          1.1000    1.5016   -1.1090 H         1 <0>         0.0701
     29 H6          0.2170    1.7667    0.4136 H         1 <0>         0.0716
     30 H7         -1.1471   -0.1863    0.6113 H         1 <0>         0.0598
     31 H8         -0.7764   -0.3973   -1.1174 H         1 <0>         0.1011
     32 H9         -1.6361   -2.4998   -0.0253 H         1 <0>         0.1003
     33 H10        -0.0031   -2.6879   -0.7149 H         1 <0>         0.0960
     34 H11         1.4551   -2.3733    2.8106 H         1 <0>         0.1127
     35 H12         2.0111   -2.6054    1.1331 H         1 <0>         0.1150
     36 H13        -0.6534    1.6930    1.8054 H         1 <0>         0.0747
     37 H14         0.0356    1.9028    3.4332 H         1 <0>         0.0735
     38 H15         1.0920    1.9814    2.0027 H         1 <0>         0.1163
     39 H16        -3.0936   -1.9931    4.1516 H         1 <0>         0.2346
     40 H17         2.9889   -2.9247    5.6530 H         1 <0>         0.1925
     41 H18         2.6381   -0.9370    3.9993 H         1 <0>         0.1817
     42 H19        -2.8114   -3.0064    1.5141 H         1 <0>         0.1360
     43 H20        -2.0224   -4.4878    0.9214 H         1 <0>         0.1536
     44 H21        -1.8737   -0.9784    2.4752 H         1 <0>         0.4370
@<TRIPOS>BOND
     1    1    2 1
     2    1   27 1
     3    1   28 1
     4    1   29 1
     5    2    3 1
     6    2    8 1
     7    2    4 1
     8    4    5 1
     9    4   30 1
    10    4   31 1
    11    5    6 1
    12    5   32 1
    13    5   33 1
    14    6    7 1
    15    6   22 am
    16    7    8 1
    17    7   34 1
    18    7   35 1
    19    8    9 1
    20    8   10 1
    21   10   11 1
    22   10   12 1
    23   11   36 1
    24   11   37 1
    25   11   38 1
    26   12   20 1
    27   12   13 2
    28   13   14 1
    29   13   44 1
    30   14   15 2
    31   14   39 1
    32   15   16 1
    33   16   20 1
    34   16   17 2
    35   17   18 1
    36   18   19 2
    37   18   40 1
    38   19   20 1
    39   19   41 1
    40   20   21 1
    41   22   23 2
    42   22   24 1
    43   24   25 1
    44   24   42 1
    45   24   43 1
    46   25   26 3
@<TRIPOS>MOLECULE
ZINC03816310
   51    55     0     0     0
SMALL
USER_CHARGES
4-amino-5-fluoro-3-[5-(4-methylpiperazin-1-yl)-3H-benzoimidazol-2-yl]-1H-quinolin-2-one
@<TRIPOS>ATOM
      1 C1         -4.4670    0.8494    3.0633 C.3       1 <0>        -0.0407
      2 C2         -3.3790    0.9463    0.9019 C.3       1 <0>         0.0019
      3 C3         -3.5151    1.4789   -0.5264 C.3       1 <0>         0.0203
      4 N1         -3.5799    2.9467   -0.4951 N.pl3     1 <0>        -0.4822
      5 C4         -4.7239    3.4034    0.3063 C.3       1 <0>         0.0231
      6 C5         -4.5878    2.8708    1.7347 C.3       1 <0>         0.0021
      7 C6         -3.6324    3.4738   -1.7895 C.ar      1 <0>         0.0898
      8 C7         -3.6187    2.6172   -2.8884 C.ar      1 <0>        -0.1658
      9 C8         -3.6694    3.1157   -4.1588 C.ar      1 <0>        -0.0428
     10 C9         -3.7362    4.4973   -4.3655 C.ar      1 <0>         0.0571
     11 C10        -3.7506    5.3641   -3.2589 C.ar      1 <0>         0.0655
     12 C11        -3.7036    4.8454   -1.9734 C.ar      1 <0>        -0.1134
     13 N2         -3.8198    6.6467   -3.7722 N.pl3     1 <0>        -0.5851
     14 H1         -3.8464    7.4962   -3.2453 H         1 <0>         0.4436
     15 C12        -3.8451    6.5353   -5.1390 C.2       1 <0>         0.4046
     16 N3         -3.7957    5.2687   -5.4809 N.2       1 <0>        -0.5294
     17 C13        -3.9164    7.6652   -6.0804 C.2       1 <0>        -0.3025
     18 C14        -4.0559    7.4305   -7.4504 C.2       1 <0>         0.3760
     19 C15        -4.1228    8.5898   -8.3476 C.ar      1 <0>        -0.1878
     20 C16        -4.0447    9.8830   -7.7997 C.ar      1 <0>         0.2450
     21 C17        -4.1078   10.9864   -8.6429 C.ar      1 <0>        -0.1734
     22 C18        -4.2458   10.8081  -10.0035 C.ar      1 <0>        -0.0185
     23 C19        -4.3231    9.5350  -10.5468 C.ar      1 <0>        -0.1801
     24 C20        -4.2628    8.4239   -9.7304 C.ar      1 <0>         0.1680
     25 F1         -4.3388    7.1843  -10.2623 F         1 <0>        -0.1206
     26 N4         -3.9076   10.0470   -6.4354 N.am      1 <0>        -0.6368
     27 H2         -3.8498   10.9715   -6.0585 H         1 <0>         0.4300
     28 C21        -3.8500    8.9949   -5.6023 C.2       1 <0>         0.5826
     29 O1         -3.7334    9.1908   -4.4050 O.2       1 <0>        -0.5600
     30 N5         -4.1288    6.1500   -7.9440 N.pl3     1 <0>        -0.8025
     31 H3         -3.5472    1.1734    3.5502 H         1 <0>         0.1241
     32 H4         -5.3249    1.2032    3.6351 H         1 <0>         0.1225
     33 H5         -4.4877   -0.2393    3.0134 H         1 <0>         0.1228
     34 H6         -3.3598   -0.1434    0.8835 H         1 <0>         0.1376
     35 H7         -2.4541    1.3189    1.3424 H         1 <0>         0.1399
     36 H8         -2.6529    1.1655   -1.1151 H         1 <0>         0.1307
     37 H9         -4.4260    1.0841   -0.9765 H         1 <0>         0.0717
     38 H10        -4.7431    4.4931    0.3248 H         1 <0>         0.1261
     39 H11        -5.6486    3.0309   -0.1345 H         1 <0>         0.0691
     40 H12        -3.6769    3.2656    2.1847 H         1 <0>         0.1400
     41 H13        -5.4498    3.1846    2.3235 H         1 <0>         0.1367
     42 H14        -3.5672    1.5496   -2.7341 H         1 <0>         0.1314
     43 H15        -3.6582    2.4431   -5.0037 H         1 <0>         0.1346
     44 H16        -3.7183    5.5073   -1.1202 H         1 <0>         0.1268
     45 H17        -4.0491   11.9836   -8.2323 H         1 <0>         0.1496
     46 H18        -4.2944   11.6697  -10.6529 H         1 <0>         0.1516
     47 H19        -4.4307    9.4121  -11.6144 H         1 <0>         0.1515
     48 H20        -4.3218    5.4103   -7.3468 H         1 <0>         0.4285
     49 H21        -3.9874    5.9859   -8.8895 H         1 <0>         0.4092
     50 N6         -4.5458    1.3938    1.6909 N.4       1 <0>        -0.3998
     51 H22        -5.4033    1.0486    1.2438 H         1 <0>         0.4274
@<TRIPOS>BOND
     1    1   31 1
     2    1   32 1
     3    1   33 1
     4    1   50 1
     5    2    3 1
     6    2   34 1
     7    2   35 1
     8    2   50 1
     9    3    4 1
    10    3   36 1
    11    3   37 1
    12    4    5 1
    13    4    7 1
    14    5    6 1
    15    5   38 1
    16    5   39 1
    17    6   40 1
    18    6   41 1
    19    6   50 1
    20    7   12 ar
    21    7    8 ar
    22    8    9 ar
    23    8   42 1
    24    9   10 ar
    25    9   43 1
    26   10   16 1
    27   10   11 ar
    28   11   12 ar
    29   11   13 1
    30   12   44 1
    31   13   14 1
    32   13   15 1
    33   15   16 2
    34   15   17 1
    35   17   28 1
    36   17   18 2
    37   18   19 1
    38   18   30 1
    39   19   24 ar
    40   19   20 ar
    41   20   21 ar
    42   20   26 1
    43   21   22 ar
    44   21   45 1
    45   22   23 ar
    46   22   46 1
    47   23   24 ar
    48   23   47 1
    49   24   25 1
    50   26   27 1
    51   26   28 am
    52   28   29 2
    53   30   48 1
    54   30   49 1
    55   50   51 1
@<TRIPOS>MOLECULE
ZINC03964325
   57    59     0     0     0
SMALL
USER_CHARGES

@<TRIPOS>ATOM
      1 C1          0.1489    2.0884    0.1150 C.3       1 <0>        -0.1876
      2 C2          0.1348    0.5603    0.1888 C.3       1 <0>        -0.0191
      3 N1         -1.2520    0.0881    0.2979 N.4       1 <0>        -0.3822
      4 C3         -1.9779    0.4111   -0.9377 C.3       1 <0>        -0.0142
      5 C4         -3.4549    0.0484   -0.7712 C.3       1 <0>        -0.1895
      6 C5         -1.2593   -1.3663    0.5041 C.3       1 <0>        -0.0265
      7 C6         -0.6131   -1.6936    1.8518 C.3       1 <0>         0.0952
      8 N2         -0.6203   -3.1440    2.0575 N.am      1 <0>        -0.7289
      9 C7         -0.0988   -3.6675    3.1846 C.2       1 <0>         0.6111
     10 O1          0.3779   -2.9358    4.0309 O.2       1 <0>        -0.5184
     11 C8         -0.1061   -5.1270    3.3915 C.2       1 <0>        -0.2420
     12 C9          0.9071   -6.0320    3.0089 C.2       1 <0>        -0.0577
     13 C10         0.4868   -7.2892    3.3960 C.2       1 <0>        -0.0075
     14 N3         -0.7476   -7.1595    3.9982 N.pl3     1 <0>        -0.4910
     15 H1         -1.2731   -7.8879    4.3645 H         1 <0>         0.4270
     16 C11        -1.1044   -5.8642    4.0022 C.2       1 <0>         0.1158
     17 C12        -2.3825   -5.3072    4.5743 C.3       1 <0>        -0.0999
     18 C13         1.1957   -8.4957    3.2079 C.2       1 <0>         0.0729
     19 C14         0.5100   -9.6674    2.9570 C.2       1 <0>        -0.1889
     20 C15         1.0648  -11.0377    2.8871 C.ar      1 <0>        -0.0736
     21 C16         2.3472  -11.5557    3.0375 C.ar      1 <0>        -0.1000
     22 C17         2.5553  -12.9162    2.9116 C.ar      1 <0>         0.0861
     23 C18         1.4888  -13.7593    2.6366 C.ar      1 <0>        -0.1139
     24 C19         0.2139  -13.2531    2.4856 C.ar      1 <0>        -0.1021
     25 C20        -0.0144  -11.8871    2.6092 C.ar      1 <0>         0.1282
     26 N4         -1.1765  -11.1301    2.5069 N.am      1 <0>        -0.6466
     27 C21        -0.9294   -9.8245    2.7079 C.2       1 <0>         0.5595
     28 O2         -1.7538   -8.9280    2.6842 O.2       1 <0>        -0.5156
     29 F1          3.7984  -13.4252    3.0561 F         1 <0>        -0.1318
     30 C22         2.1990   -5.6919    2.3116 C.3       1 <0>        -0.0931
     31 H2          1.1793    2.4435    0.1331 H         1 <0>         0.1076
     32 H3         -0.3308    2.4121   -0.8087 H         1 <0>         0.0811
     33 H4         -0.3916    2.4984    0.9682 H         1 <0>         0.0809
     34 H5          0.5888    0.1488   -0.7126 H         1 <0>         0.1317
     35 H6          0.6996    0.2334    1.0619 H         1 <0>         0.1337
     36 H7         -1.8867    1.4775   -1.1444 H         1 <0>         0.1351
     37 H8         -1.5554   -0.1571   -1.7664 H         1 <0>         0.1307
     38 H9         -3.5537   -1.0316   -0.6617 H         1 <0>         0.0802
     39 H10        -3.8523    0.5414    0.1160 H         1 <0>         0.0808
     40 H11        -4.0109    0.3769   -1.6492 H         1 <0>         0.1074
     41 H12        -2.2871   -1.7292    0.4963 H         1 <0>         0.1397
     42 H13        -0.6973   -1.8494   -0.2952 H         1 <0>         0.1376
     43 H14         0.4147   -1.3306    1.8596 H         1 <0>         0.0893
     44 H15        -1.1751   -1.2105    2.6511 H         1 <0>         0.0890
     45 H16        -1.0005   -3.7277    1.3824 H         1 <0>         0.4099
     46 H17        -3.1529   -5.3000    3.8032 H         1 <0>         0.0840
     47 H18        -2.7087   -5.9289    5.4080 H         1 <0>         0.0782
     48 H19        -2.2103   -4.2898    4.9254 H         1 <0>         0.0840
     49 H20         2.2744   -8.5020    3.2604 H         1 <0>         0.1589
     50 H21         3.1765  -10.8977    3.2512 H         1 <0>         0.1436
     51 H22         1.6578  -14.8215    2.5394 H         1 <0>         0.1485
     52 H23        -0.6084  -13.9196    2.2712 H         1 <0>         0.1415
     53 H24        -2.0541  -11.4980    2.3189 H         1 <0>         0.4217
     54 H25         2.9686   -5.4822    3.0545 H         1 <0>         0.0785
     55 H26         2.5107   -6.5337    1.6932 H         1 <0>         0.0726
     56 H27         2.0522   -4.8138    1.6827 H         1 <0>         0.0634
     57 H28        -1.7009    0.5410    1.0799 H         1 <0>         0.4247
@<TRIPOS>BOND
     1    1    2 1
     2    1   31 1
     3    1   32 1
     4    1   33 1
     5    2    3 1
     6    2   34 1
     7    2   35 1
     8    3    4 1
     9    3    6 1
    10    3   57 1
    11    4    5 1
    12    4   36 1
    13    4   37 1
    14    5   38 1
    15    5   39 1
    16    5   40 1
    17    6    7 1
    18    6   41 1
    19    6   42 1
    20    7    8 1
    21    7   43 1
    22    7   44 1
    23    8    9 am
    24    8   45 1
    25    9   10 2
    26    9   11 1
    27   11   16 2
    28   11   12 1
    29   12   13 2
    30   12   30 1
    31   13   14 1
    32   13   18 1
    33   14   15 1
    34   14   16 1
    35   16   17 1
    36   17   46 1
    37   17   47 1
    38   17   48 1
    39   18   19 2
    40   18   49 1
    41   19   27 1
    42   19   20 1
    43   20   25 ar
    44   20   21 ar
    45   21   22 ar
    46   21   50 1
    47   22   23 ar
    48   22   29 1
    49   23   24 ar
    50   23   51 1
    51   24   25 ar
    52   24   52 1
    53   25   26 1
    54   26   27 am
    55   26   53 1
    56   27   28 2
    57   30   54 1
    58   30   55 1
    59   30   56 1
@<TRIPOS>MOLECULE
ZINC02557947
   36    37     0     0     0
SMALL
USER_CHARGES

@<TRIPOS>ATOM
      1 C1         -0.2201    1.0285    0.0532 C.ar      1 <0>        -0.1095
      2 C2          0.9769    1.6691   -0.2074 C.ar      1 <0>        -0.1216
      3 C3          2.1577    0.9504   -0.2168 C.ar      1 <0>        -0.0998
      4 C4          2.1415   -0.4088    0.0347 C.ar      1 <0>        -0.1159
      5 C5          0.9447   -1.0492    0.2961 C.ar      1 <0>        -0.0998
      6 C6         -0.2363   -0.3307    0.3042 C.ar      1 <0>        -0.1214
      7 C7          3.4287   -1.1925    0.0233 C.3       1 <0>         0.1620
      8 N1          4.0084   -1.1988    1.3687 N.am      1 <0>        -0.7204
      9 C8          5.1692   -1.8437    1.5993 C.2       1 <0>         0.5745
     10 O1          5.7355   -2.4206    0.6903 O.2       1 <0>        -0.5251
     11 C9          5.7514   -1.8500    2.9505 C.2       1 <0>        -0.1287
     12 C10         6.9381   -2.5093    3.1862 C.2       1 <0>         0.0763
     13 C11         7.4332   -2.6585    4.5563 C.ar      1 <0>        -0.1006
     14 C12         8.8108   -2.6179    4.8148 C.ar      1 <0>        -0.0701
     15 C13         9.2726   -2.7584    6.1037 C.ar      1 <0>        -0.1342
     16 C14         8.3774   -2.9406    7.1508 C.ar      1 <0>         0.1075
     17 C15         7.0049   -2.9823    6.9027 C.ar      1 <0>         0.0812
     18 C16         6.5311   -2.8366    5.6150 C.ar      1 <0>        -0.1004
     19 O2          6.1334   -3.1608    7.9313 O.3       1 <0>        -0.4839
     20 O3          8.8398   -3.0790    8.4197 O.3       1 <0>        -0.4852
     21 C17         5.0848   -1.1709    4.0205 C.1       1 <0>         0.2430
     22 N2          4.5560   -0.6321    4.8694 N.1       1 <0>        -0.4015
     23 H1         -1.1421    1.5909    0.0650 H         1 <0>         0.1246
     24 H2          0.9895    2.7310   -0.4039 H         1 <0>         0.1254
     25 H3          3.0927    1.4507   -0.4211 H         1 <0>         0.1250
     26 H4          0.9320   -2.1112    0.4922 H         1 <0>         0.1250
     27 H5         -1.1714   -0.8311    0.5080 H         1 <0>         0.1255
     28 H6          3.2276   -2.2168   -0.2904 H         1 <0>         0.0829
     29 H7          4.1293   -0.7304   -0.6721 H         1 <0>         0.0831
     30 H8          3.5569   -0.7388    2.0936 H         1 <0>         0.4021
     31 H9          7.5031   -2.9162    2.3606 H         1 <0>         0.1710
     32 H10         9.5091   -2.4767    4.0031 H         1 <0>         0.1445
     33 H11        10.3338   -2.7274    6.3019 H         1 <0>         0.1436
     34 H12         5.4687   -2.8643    5.4224 H         1 <0>         0.1361
     35 H13         5.8345   -2.3375    8.3410 H         1 <0>         0.3912
     36 H14         8.9272   -2.2441    8.8997 H         1 <0>         0.3938
@<TRIPOS>BOND
     1    1    6 ar
     2    1    2 ar
     3    1   23 1
     4    2    3 ar
     5    2   24 1
     6    3    4 ar
     7    3   25 1
     8    4    5 ar
     9    4    7 1
    10    5    6 ar
    11    5   26 1
    12    6   27 1
    13    7    8 1
    14    7   28 1
    15    7   29 1
    16    8    9 am
    17    8   30 1
    18    9   10 2
    19    9   11 1
    20   11   12 2
    21   11   21 1
    22   12   13 1
    23   12   31 1
    24   13   18 ar
    25   13   14 ar
    26   14   15 ar
    27   14   32 1
    28   15   16 ar
    29   15   33 1
    30   16   17 ar
    31   16   20 1
    32   17   18 ar
    33   17   19 1
    34   18   34 1
    35   19   35 1
    36   20   36 1
    37   21   22 3
@<TRIPOS>MOLECULE
ZINC03973984
   56    61     0     0     0
SMALL
USER_CHARGES

@<TRIPOS>ATOM
      1 C1          2.5035    5.2044    5.2747 C.3       1 <0>        -0.0407
      2 C2          2.1460    2.8917    5.8982 C.3       1 <0>         0.0002
      3 C3          2.5994    1.4554    5.6263 C.3       1 <0>         0.0414
      4 N1          2.3296    1.1169    4.2220 N.pl3     1 <0>        -0.4613
      5 C4          3.0395    2.0315    3.3170 C.3       1 <0>         0.0369
      6 C5          2.5862    3.4678    3.5888 C.3       1 <0>         0.0039
      7 C6          2.6615   -0.1998    3.9568 C.ar      1 <0>         0.4871
      8 N2          3.1470   -0.9308    4.9409 N.ar      1 <0>        -0.5353
      9 C7          3.4872   -2.2119    4.7478 C.ar      1 <0>         0.1825
     10 C8          4.0048   -3.0092    5.7783 C.ar      1 <0>        -0.1065
     11 C9          4.3334   -4.3076    5.5235 C.ar      1 <0>        -0.0656
     12 C10         4.1631   -4.8562    4.2555 C.ar      1 <0>        -0.1085
     13 C11         3.6617   -4.1078    3.2298 C.ar      1 <0>        -0.0669
     14 C12         3.3105   -2.7758    3.4594 C.ar      1 <0>        -0.1492
     15 C13         2.7731   -1.9159    2.4035 C.ar      1 <0>         0.3236
     16 N3          2.4744   -0.6585    2.7252 N.ar      1 <0>        -0.4991
     17 C14         2.5650   -2.4238    1.0387 C.2       1 <0>        -0.1201
     18 C15         3.1800   -1.9689   -0.1276 C.2       1 <0>         0.0533
     19 C16         2.6362   -2.8084   -1.2276 C.2       1 <0>         0.5500
     20 O1          2.9328   -2.7204   -2.4013 O.2       1 <0>        -0.4227
     21 N4          1.7605   -3.6814   -0.7012 N.am      1 <0>        -0.6820
     22 C17         1.6634   -3.5132    0.6279 C.2       1 <0>         0.5700
     23 O2          0.9508   -4.1587    1.3715 O.2       1 <0>        -0.4396
     24 C18         4.1628   -0.8913   -0.2438 C.2       1 <0>        -0.1709
     25 C19         5.4966   -0.9402    0.1201 C.2       1 <0>         0.1080
     26 N5          6.0779    0.2476   -0.1381 N.pl3     1 <0>        -0.5732
     27 H1          7.0102    0.4541    0.0329 H         1 <0>         0.4235
     28 C20         5.1647    1.1307   -0.6801 C.ar      1 <0>         0.0844
     29 C21         3.9309    0.4665   -0.7721 C.ar      1 <0>        -0.0602
     30 C22         2.8189    1.1254   -1.2880 C.ar      1 <0>        -0.0732
     31 C23         2.9346    2.4335   -1.7084 C.ar      1 <0>        -0.1312
     32 C24         4.1518    3.0912   -1.6184 C.ar      1 <0>        -0.0989
     33 C25         5.2601    2.4513   -1.1048 C.ar      1 <0>        -0.1234
     34 H2          2.7756    5.4479    6.3018 H         1 <0>         0.1235
     35 H3          3.0428    5.8598    4.5909 H         1 <0>         0.1231
     36 H4          1.4307    5.3427    5.1405 H         1 <0>         0.1252
     37 H5          1.0724    2.9725    5.7281 H         1 <0>         0.1413
     38 H6          2.3713    3.1547    6.9317 H         1 <0>         0.1414
     39 H7          2.0529    0.7723    6.2765 H         1 <0>         0.1348
     40 H8          3.6680    1.3677    5.8227 H         1 <0>         0.0783
     41 H9          4.1131    1.9507    3.4870 H         1 <0>         0.0667
     42 H10         2.8139    1.7684    2.2835 H         1 <0>         0.1408
     43 H11         1.5175    3.5551    3.3925 H         1 <0>         0.1441
     44 H12         3.1327    4.1509    2.9386 H         1 <0>         0.1409
     45 H13         4.1420   -2.5977    6.7674 H         1 <0>         0.1438
     46 H14         4.7321   -4.9205    6.3183 H         1 <0>         0.1425
     47 H15         4.4315   -5.8876    4.0807 H         1 <0>         0.1407
     48 H16         3.5332   -4.5436    2.2500 H         1 <0>         0.1310
     49 H17         1.2665   -4.3425   -1.2110 H         1 <0>         0.4382
     50 H18         5.9953   -1.7986    0.5453 H         1 <0>         0.1795
     51 H19         1.8699    0.6147   -1.3585 H         1 <0>         0.1217
     52 H20         2.0736    2.9480   -2.1089 H         1 <0>         0.1281
     53 H21         4.2319    4.1158   -1.9504 H         1 <0>         0.1296
     54 H22         6.2033    2.9732   -1.0392 H         1 <0>         0.1233
     55 N6          2.8834    3.8027    4.9973 N.4       1 <0>        -0.4016
     56 H23         3.8908    3.6913    5.1615 H         1 <0>         0.4268
@<TRIPOS>BOND
     1    1   34 1
     2    1   35 1
     3    1   36 1
     4    1   55 1
     5    2    3 1
     6    2   37 1
     7    2   38 1
     8    2   55 1
     9    3    4 1
    10    3   39 1
    11    3   40 1
    12    4    5 1
    13    4    7 1
    14    5    6 1
    15    5   41 1
    16    5   42 1
    17    6   43 1
    18    6   44 1
    19    6   55 1
    20    7   16 ar
    21    7    8 ar
    22    8    9 ar
    23    9   14 ar
    24    9   10 ar
    25   10   11 ar
    26   10   45 1
    27   11   12 ar
    28   11   46 1
    29   12   13 ar
    30   12   47 1
    31   13   14 ar
    32   13   48 1
    33   14   15 ar
    34   15   16 ar
    35   15   17 1
    36   17   22 1
    37   17   18 2
    38   18   19 1
    39   18   24 1
    40   19   20 2
    41   19   21 am
    42   21   22 am
    43   21   49 1
    44   22   23 2
    45   24   29 1
    46   24   25 2
    47   25   26 1
    48   25   50 1
    49   26   27 1
    50   26   28 1
    51   28   33 ar
    52   28   29 ar
    53   29   30 ar
    54   30   31 ar
    55   30   51 1
    56   31   32 ar
    57   31   52 1
    58   32   33 ar
    59   32   53 1
    60   33   54 1
    61   55   56 1
@<TRIPOS>MOLECULE
ZINC18825339
   59    62     0     0     0
SMALL
USER_CHARGES
5-[(Z)-(5-fluoro-2-oxo-indolin-3-ylidene)methyl]-N-[(2R)-2-hydroxy-3-morpholino-propyl]-2,4-dimethyl-1H-pyrrole-3-carboxamide
@<TRIPOS>ATOM
      1 C1          3.5607    0.7280    0.3667 C.3       1 <0>        -0.0956
      2 C2          2.0758    0.7165    0.1102 C.2       1 <0>        -0.0564
      3 C3          1.2591    1.8188   -0.0477 C.2       1 <0>        -0.0308
      4 N1         -0.0271    1.3691   -0.2640 N.pl3     1 <0>        -0.5068
      5 H1         -0.8436    2.0903   -0.4163 H         1 <0>         0.4494
      6 C4         -0.0354    0.0257   -0.2455 C.2       1 <0>         0.1277
      7 C5          1.2525   -0.4230   -0.0155 C.2       1 <0>        -0.2308
      8 C6          1.6847   -1.8291    0.0810 C.2       1 <0>         0.5980
      9 O1          2.0430   -2.4250   -0.9167 O.2       1 <0>        -0.5421
     10 N2          1.6827   -2.4542    1.2750 N.am      1 <0>        -0.7266
     11 C7          2.1121   -3.8516    1.3710 C.3       1 <0>         0.1299
     12 C8          2.0150   -4.3162    2.8255 C.3       1 <0>         0.1144
     13 H2          2.5334   -3.6206    3.5018 H         1 <0>         0.0568
     14 C9          2.5799   -5.7329    2.9471 C.3       1 <0>         0.0228
     15 N3          2.4867   -6.1790    4.3436 N.3       1 <0>        -0.5349
     16 C10         3.3671   -5.3829    5.2109 C.3       1 <0>         0.0083
     17 C11         3.1945   -5.8402    6.6618 C.3       1 <0>         0.0618
     18 O2          3.4694   -7.2408    6.7508 O.3       1 <0>        -0.3843
     19 C12         2.6296   -8.0463    5.9193 C.3       1 <0>         0.0614
     20 C13         2.7965   -7.6114    4.4609 C.3       1 <0>         0.0172
     21 O3          0.6463   -4.3123    3.2364 O.3       1 <0>        -0.5882
     22 C14        -1.2476   -0.8477   -0.4426 C.3       1 <0>        -0.0994
     23 C15         1.6686    3.1691    0.0027 C.2       1 <0>         0.0908
     24 C16         0.8216    4.1284    0.5209 C.2       1 <0>        -0.2125
     25 C17         1.0162    5.5955    0.5210 C.ar      1 <0>        -0.0684
     26 C18         2.0202    6.4240    0.0297 C.ar      1 <0>        -0.1043
     27 C19         1.9118    7.7937    0.1786 C.ar      1 <0>         0.0808
     28 C20         0.8031    8.3379    0.8097 C.ar      1 <0>        -0.1198
     29 C21        -0.2000    7.5233    1.2941 C.ar      1 <0>        -0.1061
     30 C22        -0.1080    6.1430    1.1533 C.ar      1 <0>         0.1250
     31 N4         -0.9593    5.1144    1.5420 N.am      1 <0>        -0.6604
     32 C23        -0.4649    3.9133    1.1971 C.2       1 <0>         0.5647
     33 O4         -0.9909    2.8351    1.4086 O.2       1 <0>        -0.5132
     34 F1          2.8866    8.6030   -0.2904 F         1 <0>        -0.1355
     35 H3          3.9167    1.7678    0.4131 H         1 <0>         0.0672
     36 H4          4.0776    0.1994   -0.4478 H         1 <0>         0.0746
     37 H5          3.7717    0.2252    1.3221 H         1 <0>         0.0710
     38 H6          1.3586   -1.9152    2.1775 H         1 <0>         0.4262
     39 H7          1.4633   -4.4786    0.7417 H         1 <0>         0.0750
     40 H8          3.1531   -3.9398    1.0266 H         1 <0>         0.0785
     41 H9          2.0023   -6.4143    2.3052 H         1 <0>         0.0900
     42 H10         3.6334   -5.7360    2.6307 H         1 <0>         0.0465
     43 H11         4.4130   -5.5254    4.9015 H         1 <0>         0.0459
     44 H12         3.1012   -4.3189    5.1257 H         1 <0>         0.0881
     45 H13         3.8925   -5.2859    7.3064 H         1 <0>         0.1001
     46 H14         2.1618   -5.6458    6.9871 H         1 <0>         0.0615
     47 H15         2.9156   -9.1033    6.0238 H         1 <0>         0.1009
     48 H16         1.5805   -7.9185    6.2243 H         1 <0>         0.0621
     49 H17         2.1104   -8.1883    3.8234 H         1 <0>         0.0898
     50 H18         3.8332   -7.7899    4.1393 H         1 <0>         0.0455
     51 H19         0.3780   -4.6185    4.2583 H         1 <0>         0.4136
     52 H20        -0.9523   -1.9052   -0.3757 H         1 <0>         0.0845
     53 H21        -1.6843   -0.6508   -1.4328 H         1 <0>         0.0777
     54 H22        -1.9909   -0.6245    0.3369 H         1 <0>         0.0809
     55 H23         2.6624    3.4568   -0.3709 H         1 <0>         0.1579
     56 H24         2.8828    5.9984   -0.4614 H         1 <0>         0.1409
     57 H25         0.7239    9.4091    0.9228 H         1 <0>         0.1443
     58 H26        -1.0583    7.9589    1.7840 H         1 <0>         0.1386
     59 H27        -1.9003    5.3463    2.0623 H         1 <0>         0.4455
@<TRIPOS>BOND
     1    1    2 1
     2    1   35 1
     3    1   36 1
     4    1   37 1
     5    2    7 1
     6    2    3 2
     7    3    4 1
     8    3   23 1
     9    4    5 1
    10    4    6 1
    11    6    7 2
    12    6   22 1
    13    7    8 1
    14    8    9 2
    15    8   10 am
    16   10   11 1
    17   10   38 1
    18   11   12 1
    19   11   39 1
    20   11   40 1
    21   12   13 1
    22   12   14 1
    23   12   21 1
    24   14   15 1
    25   14   41 1
    26   14   42 1
    27   15   20 1
    28   15   16 1
    29   16   17 1
    30   16   43 1
    31   16   44 1
    32   17   18 1
    33   17   45 1
    34   17   46 1
    35   18   19 1
    36   19   20 1
    37   19   47 1
    38   19   48 1
    39   20   49 1
    40   20   50 1
    41   21   51 1
    42   22   52 1
    43   22   53 1
    44   22   54 1
    45   23   24 2
    46   23   55 1
    47   24   32 1
    48   24   25 1
    49   25   30 ar
    50   25   26 ar
    51   26   27 ar
    52   26   56 1
    53   27   28 ar
    54   27   34 1
    55   28   29 ar
    56   28   57 1
    57   29   30 ar
    58   29   58 1
    59   30   31 1
    60   31   32 am
    61   31   59 1
    62   32   33 2
@<TRIPOS>MOLECULE
ZINC18825344
   59    62     0     0     0
SMALL
USER_CHARGES
5-[(Z)-(5-fluoro-2-oxo-indolin-3-ylidene)methyl]-N-[(2S)-2-hydroxy-3-morpholino-propyl]-2,4-dimethyl-1H-pyrrole-3-carboxamide
@<TRIPOS>ATOM
      1 C1          4.7056    0.6287    1.0117 C.3       1 <0>        -0.0968
      2 C2          3.2464    0.8378    0.6983 C.2       1 <0>        -0.0523
      3 C3          2.5980    2.0501    0.5678 C.2       1 <0>        -0.0327
      4 N1          1.2732    1.7961    0.2789 N.pl3     1 <0>        -0.5060
      5 H1          0.5720    2.6311    0.1339 H         1 <0>         0.4496
      6 C4          1.0783    0.4679    0.2258 C.2       1 <0>         0.1246
      7 C5          2.2801   -0.1676    0.4808 C.2       1 <0>        -0.2308
      8 C6          2.5088   -1.6234    0.5191 C.2       1 <0>         0.5976
      9 O1          2.8262   -2.2159   -0.4944 O.2       1 <0>        -0.5428
     10 N2          2.3662   -2.2977    1.6773 N.am      1 <0>        -0.7254
     11 C7          2.5935   -3.7444    1.7154 C.3       1 <0>         0.1298
     12 C8          2.3672   -4.2590    3.1384 C.3       1 <0>         0.1172
     13 H2          1.3599   -4.0040    3.4994 H         1 <0>         0.0560
     14 C9          2.6045   -5.7699    3.1781 C.3       1 <0>         0.0219
     15 N3          2.3382   -6.2720    4.5327 N.3       1 <0>        -0.5356
     16 C10         2.9762   -7.5793    4.7450 C.3       1 <0>         0.0168
     17 C11         2.7241   -8.0365    6.1842 C.3       1 <0>         0.0612
     18 O2          1.3152   -8.0759    6.4267 O.3       1 <0>        -0.3844
     19 C12         0.6618   -6.8191    6.2299 C.3       1 <0>         0.0617
     20 C13         0.8930   -6.3496    4.7911 C.3       1 <0>         0.0111
     21 O3          3.2765   -3.6103    4.0297 O.3       1 <0>        -0.5892
     22 C14        -0.2328   -0.2165   -0.0637 C.3       1 <0>        -0.0987
     23 C15         3.1876    3.3256    0.7056 C.2       1 <0>         0.0935
     24 C16         2.4515    4.3746    1.2192 C.2       1 <0>        -0.2157
     25 C17         2.8515    5.7966    1.3077 C.ar      1 <0>        -0.0669
     26 C18         3.9943    6.4912    0.9234 C.ar      1 <0>        -0.1048
     27 C19         4.0710    7.8545    1.1363 C.ar      1 <0>         0.0814
     28 C20         3.0098    8.5263    1.7247 C.ar      1 <0>        -0.1204
     29 C21         1.8704    7.8457    2.1029 C.ar      1 <0>        -0.1055
     30 C22         1.7753    6.4739    1.8965 C.ar      1 <0>         0.1237
     31 N4          0.7622    5.5637    2.1775 N.am      1 <0>        -0.6596
     32 C23         1.1039    4.3195    1.8021 C.2       1 <0>         0.5657
     33 O4          0.4171    3.3209    1.9242 O.2       1 <0>        -0.5153
     34 F1          5.1807    8.5334    0.7715 F         1 <0>        -0.1355
     35 H3          5.1994    1.6049    1.1269 H         1 <0>         0.0668
     36 H4          5.1808    0.0720    0.1906 H         1 <0>         0.0744
     37 H5          4.8016    0.0567    1.9464 H         1 <0>         0.0741
     38 H6          2.0791   -1.7617    2.5940 H         1 <0>         0.4273
     39 H7          1.8935   -4.2437    1.0293 H         1 <0>         0.0777
     40 H8          3.6268   -3.9615    1.4070 H         1 <0>         0.0736
     41 H9          1.9304   -6.2658    2.4641 H         1 <0>         0.0486
     42 H10         3.6486   -5.9844    2.9062 H         1 <0>         0.0884
     43 H11         2.5501   -8.3132    4.0451 H         1 <0>         0.0451
     44 H12         4.0587   -7.4917    4.5704 H         1 <0>         0.0900
     45 H13         3.1515   -9.0395    6.3305 H         1 <0>         0.1008
     46 H14         3.1986   -7.3305    6.8817 H         1 <0>         0.0620
     47 H15        -0.4170   -6.9344    6.4112 H         1 <0>         0.1000
     48 H16         1.0741   -6.0778    6.9303 H         1 <0>         0.0613
     49 H17         0.4415   -5.3564    4.6504 H         1 <0>         0.0873
     50 H18         0.4333   -7.0637    4.0920 H         1 <0>         0.0461
     51 H19         3.2627   -3.8533    5.1024 H         1 <0>         0.4141
     52 H20        -0.0899   -1.3070   -0.0417 H         1 <0>         0.0829
     53 H21        -0.5927    0.0862   -1.0581 H         1 <0>         0.0781
     54 H22        -0.9728    0.0718    0.6974 H         1 <0>         0.0803
     55 H23         4.2335    3.4835    0.4037 H         1 <0>         0.1584
     56 H24         4.8196    5.9664    0.4654 H         1 <0>         0.1411
     57 H25         3.0756    9.5918    1.8882 H         1 <0>         0.1443
     58 H26         1.0507    8.3797    2.5605 H         1 <0>         0.1385
     59 H27        -0.1701    5.9069    2.6497 H         1 <0>         0.4455
@<TRIPOS>BOND
     1    1    2 1
     2    1   35 1
     3    1   36 1
     4    1   37 1
     5    2    7 1
     6    2    3 2
     7    3    4 1
     8    3   23 1
     9    4    5 1
    10    4    6 1
    11    6    7 2
    12    6   22 1
    13    7    8 1
    14    8    9 2
    15    8   10 am
    16   10   11 1
    17   10   38 1
    18   11   12 1
    19   11   39 1
    20   11   40 1
    21   12   13 1
    22   12   14 1
    23   12   21 1
    24   14   15 1
    25   14   41 1
    26   14   42 1
    27   15   20 1
    28   15   16 1
    29   16   17 1
    30   16   43 1
    31   16   44 1
    32   17   18 1
    33   17   45 1
    34   17   46 1
    35   18   19 1
    36   19   20 1
    37   19   47 1
    38   19   48 1
    39   20   49 1
    40   20   50 1
    41   21   51 1
    42   22   52 1
    43   22   53 1
    44   22   54 1
    45   23   24 2
    46   23   55 1
    47   24   32 1
    48   24   25 1
    49   25   30 ar
    50   25   26 ar
    51   26   27 ar
    52   26   56 1
    53   27   28 ar
    54   27   34 1
    55   28   29 ar
    56   28   57 1
    57   29   30 ar
    58   29   58 1
    59   30   31 1
    60   31   32 am
    61   31   59 1
    62   32   33 2
