@<TRIPOS>MOLECULE
ZINC43199890
   53    56     0     0     0
SMALL
USER_CHARGES

@<TRIPOS>ATOM
      1 C1         -0.0326    1.3225    0.6276 C.ar      1 <0>        -0.0780
      2 C2          1.1450    2.0037    0.8430 C.ar      1 <0>        -0.0616
      3 C3          2.3654    1.3293    0.7657 C.ar      1 <0>        -0.1203
      4 C4          2.3907   -0.0352    0.4700 C.ar      1 <0>        -0.0899
      5 C5          1.2121   -0.7148    0.2549 C.ar      1 <0>        -0.0962
      6 C6         -0.0063   -0.0404    0.3323 C.ar      1 <0>        -0.0301
      7 C7         -1.2748   -0.7731    0.1006 C.ar      1 <0>         0.2537
      8 C8         -1.2618   -2.1398   -0.1902 C.ar      1 <0>        -0.2738
      9 C9         -2.4705   -2.7811   -0.3985 C.ar      1 <0>         0.1944
     10 N1         -3.5941   -2.0868   -0.3167 N.ar      1 <0>        -0.5548
     11 C10        -3.5766   -0.7910   -0.0393 C.ar      1 <0>         0.5676
     12 N2         -2.4434   -0.1401    0.1718 N.ar      1 <0>        -0.5590
     13 N3         -4.7751   -0.1011    0.0371 N.pl3     1 <0>        -0.6352
     14 C11        -5.9892   -0.7933   -0.0604 C.ar      1 <0>         0.1031
     15 C12        -6.1244   -2.0441    0.5274 C.ar      1 <0>        -0.0562
     16 C13        -7.3209   -2.7264    0.4313 C.ar      1 <0>        -0.1797
     17 C14        -8.3894   -2.1615   -0.2527 C.ar      1 <0>         0.2086
     18 C15        -8.2542   -0.9104   -0.8401 C.ar      1 <0>        -0.1791
     19 C16        -7.0592   -0.2261   -0.7399 C.ar      1 <0>        -0.0911
     20 N4         -9.6021   -2.8532   -0.3505 N.pl3     1 <0>        -0.6343
     21 C17       -10.7058   -2.3344   -1.1739 C.3       1 <0>         0.0873
     22 C18       -11.1916   -3.4590   -2.0953 C.3       1 <0>         0.0453
     23 O1        -11.4759   -4.6202   -1.3113 O.3       1 <0>        -0.3794
     24 C19       -10.3403   -5.1587   -0.6299 C.3       1 <0>         0.0452
     25 C20        -9.8089   -4.1239    0.3621 C.3       1 <0>         0.0866
     26 C21         3.6299    2.0597    0.9963 C.2       1 <0>         0.5671
     27 O2          3.6075    3.2476    1.2532 O.2       1 <0>        -0.5214
     28 N5          4.8075    1.4085    0.9216 N.am      1 <0>        -0.7282
     29 C22         6.0606    2.1323    1.1501 C.3       1 <0>         0.2199
     30 C23         7.1951    1.2046    1.0128 C.1       1 <0>         0.1890
     31 N6          8.0707    0.4886    0.9069 N.1       1 <0>        -0.3977
     32 H1         -0.9768    1.8428    0.6917 H         1 <0>         0.1451
     33 H2          1.1245    3.0591    1.0712 H         1 <0>         0.1444
     34 H3          3.3341   -0.5575    0.4097 H         1 <0>         0.1320
     35 H4          1.2315   -1.7700    0.0259 H         1 <0>         0.1383
     36 H5         -0.3303   -2.6830   -0.2514 H         1 <0>         0.1484
     37 H6         -2.4964   -3.8367   -0.6256 H         1 <0>         0.1723
     38 H7         -4.7739    0.8613    0.1581 H         1 <0>         0.4216
     39 H8         -5.2935   -2.4834    1.0593 H         1 <0>         0.1276
     40 H9         -7.4258   -3.6996    0.8879 H         1 <0>         0.1247
     41 H10        -9.0850   -0.4712   -1.3724 H         1 <0>         0.1259
     42 H11        -6.9552    0.7485   -1.1935 H         1 <0>         0.1246
     43 H12       -11.5227   -2.0088   -0.5298 H         1 <0>         0.0705
     44 H13       -10.3534   -1.4950   -1.7734 H         1 <0>         0.0922
     45 H14       -12.0955   -3.1398   -2.6141 H         1 <0>         0.1050
     46 H15       -10.4159   -3.6930   -2.8245 H         1 <0>         0.0558
     47 H16       -10.6318   -6.0622   -0.0943 H         1 <0>         0.1052
     48 H17        -9.5615   -5.3988   -1.3537 H         1 <0>         0.0556
     49 H18        -8.8629   -4.4691    0.7793 H         1 <0>         0.0929
     50 H19       -10.5339   -3.9816    1.1635 H         1 <0>         0.0704
     51 H20         4.8254    0.4606    0.7165 H         1 <0>         0.4072
     52 H21         6.1560    2.9338    0.4176 H         1 <0>         0.1192
     53 H22         6.0573    2.5563    2.1542 H         1 <0>         0.1192
@<TRIPOS>BOND
     1    1    6 ar
     2    1    2 ar
     3    1   32 1
     4    2    3 ar
     5    2   33 1
     6    3    4 ar
     7    3   26 1
     8    4    5 ar
     9    4   34 1
    10    5    6 ar
    11    5   35 1
    12    6    7 1
    13    7   12 ar
    14    7    8 ar
    15    8    9 ar
    16    8   36 1
    17    9   10 ar
    18    9   37 1
    19   10   11 ar
    20   11   12 ar
    21   11   13 1
    22   13   14 1
    23   13   38 1
    24   14   19 ar
    25   14   15 ar
    26   15   16 ar
    27   15   39 1
    28   16   17 ar
    29   16   40 1
    30   17   18 ar
    31   17   20 1
    32   18   19 ar
    33   18   41 1
    34   19   42 1
    35   20   25 1
    36   20   21 1
    37   21   22 1
    38   21   43 1
    39   21   44 1
    40   22   23 1
    41   22   45 1
    42   22   46 1
    43   23   24 1
    44   24   25 1
    45   24   47 1
    46   24   48 1
    47   25   49 1
    48   25   50 1
    49   26   27 2
    50   26   28 am
    51   28   29 1
    52   28   51 1
    53   29   30 1
    54   29   52 1
    55   29   53 1
    56   30   31 3
@<TRIPOS>MOLECULE
ZINC49090010
   45    50     0     0     0
SMALL
USER_CHARGES

@<TRIPOS>ATOM
      1 C1         -0.0167    1.3784    0.0096 C.ar      1 <0>        -0.1207
      2 C2          1.1700    2.0851    0.0021 C.ar      1 <0>        -0.0785
      3 C3          2.3830    1.4164   -0.0149 C.ar      1 <0>        -0.1570
      4 C4          2.4068    0.0335   -0.0260 C.ar      1 <0>         0.1273
      5 C5          1.2087   -0.6771   -0.0151 C.ar      1 <0>         0.0740
      6 C6          0.0021   -0.0041    0.0020 C.ar      1 <0>        -0.1086
      7 F1          1.2266   -2.0280   -0.0218 F         1 <0>        -0.1272
      8 O1          3.5736   -0.6627   -0.0539 O.3       1 <0>        -0.3021
      9 C7          4.7718    0.0278    0.3030 C.3       1 <0>         0.0690
     10 C8          4.8222    1.3461   -0.4799 C.3       1 <0>        -0.1791
     11 C9          3.6563    2.2240   -0.0184 C.3       1 <0>         0.2103
     12 H1          3.8553    2.5916    0.9883 H         1 <0>         0.1278
     13 N1          3.5104    3.3603   -0.9314 N.am      1 <0>        -0.5101
     14 C10         3.6156    4.6938   -0.5826 C.ar      1 <0>         0.3850
     15 C11         3.4093    5.4358   -1.7536 C.ar      1 <0>        -0.0245
     16 C12         3.4614    6.8171   -1.6835 C.ar      1 <0>         0.2082
     17 N2          3.7043    7.3884   -0.5121 N.ar      1 <0>        -0.5132
     18 C13         3.8949    6.6596    0.5764 C.ar      1 <0>         0.5627
     19 N3          3.8537    5.3364    0.5517 N.ar      1 <0>        -0.5241
     20 N4          4.1477    7.3050    1.7857 N.pl3     1 <0>        -0.4257
     21 C14         4.3709    6.7066    2.9918 C.2       1 <0>         0.2974
     22 N5          4.5717    7.6086    3.9066 N.2       1 <0>        -0.4682
     23 C15         4.4921    8.8478    3.3545 C.ar      1 <0>         0.0400
     24 C16         4.2252    8.6719    1.9863 C.ar      1 <0>         0.0853
     25 C17         4.0956    9.7766    1.1577 C.ar      1 <0>        -0.1276
     26 C18         4.2329   11.0473    1.6810 C.ar      1 <0>         0.1183
     27 C19         4.5005   11.2256    3.0326 C.ar      1 <0>        -0.1496
     28 C20         4.6234   10.1398    3.8695 C.ar      1 <0>        -0.0330
     29 F2          4.1066   12.1232    0.8738 F         1 <0>        -0.1302
     30 N6          3.1851    4.5187   -2.7767 N.am      1 <0>        -0.6246
     31 H2          3.0109    4.7339   -3.7063 H         1 <0>         0.4447
     32 C21         3.2572    3.2798   -2.2516 C.2       1 <0>         0.6923
     33 O2          3.1125    2.2451   -2.8753 O.2       1 <0>        -0.5110
     34 H3         -0.9591    1.9056    0.0260 H         1 <0>         0.1380
     35 H4          1.1520    3.1649    0.0091 H         1 <0>         0.1212
     36 H5         -0.9254   -0.5573    0.0098 H         1 <0>         0.1469
     37 H6          4.7706    0.2361    1.3729 H         1 <0>         0.0749
     38 H7          5.6375   -0.5836    0.0485 H         1 <0>         0.1228
     39 H8          5.7658    1.8548   -0.2824 H         1 <0>         0.0972
     40 H9          4.7297    1.1435   -1.5469 H         1 <0>         0.1009
     41 H10         3.3073    7.4187   -2.5671 H         1 <0>         0.1933
     42 H11         4.3794    5.6401    3.1615 H         1 <0>         0.2272
     43 H12         3.8882    9.6435    0.1062 H         1 <0>         0.1549
     44 H13         4.6063   12.2239    3.4308 H         1 <0>         0.1481
     45 H14         4.8327   10.2858    4.9189 H         1 <0>         0.1473
@<TRIPOS>BOND
     1    1    6 ar
     2    1    2 ar
     3    1   34 1
     4    2    3 ar
     5    2   35 1
     6    3   11 1
     7    3    4 ar
     8    4    5 ar
     9    4    8 1
    10    5    6 ar
    11    5    7 1
    12    6   36 1
    13    8    9 1
    14    9   10 1
    15    9   37 1
    16    9   38 1
    17   10   11 1
    18   10   39 1
    19   10   40 1
    20   11   12 1
    21   11   13 1
    22   13   32 am
    23   13   14 1
    24   14   19 ar
    25   14   15 ar
    26   15   16 ar
    27   15   30 1
    28   16   17 ar
    29   16   41 1
    30   17   18 ar
    31   18   19 ar
    32   18   20 1
    33   20   24 1
    34   20   21 1
    35   21   22 2
    36   21   42 1
    37   22   23 1
    38   23   28 ar
    39   23   24 ar
    40   24   25 ar
    41   25   26 ar
    42   25   43 1
    43   26   27 ar
    44   26   29 1
    45   27   28 ar
    46   27   44 1
    47   28   45 1
    48   30   31 1
    49   30   32 am
    50   32   33 2
@<TRIPOS>MOLECULE
ZINC49067657
   41    45     0     0     0
SMALL
USER_CHARGES

@<TRIPOS>ATOM
      1 C1         -0.0168    1.3851    0.0097 C.ar      1 <0>        -0.1496
      2 C2          1.1595    2.0996    0.0023 C.ar      1 <0>        -0.0332
      3 C3          2.3823    1.4241   -0.0131 C.ar      1 <0>         0.0399
      4 C4          2.3968    0.0192   -0.0208 C.ar      1 <0>         0.0853
      5 C5          1.2027   -0.6864   -0.0140 C.ar      1 <0>        -0.1275
      6 C6          0.0021   -0.0041    0.0020 C.ar      1 <0>         0.1180
      7 F1         -1.1609   -0.6915    0.0095 F         1 <0>        -0.1303
      8 N1          3.7308   -0.3482   -0.0351 N.pl3     1 <0>        -0.4256
      9 C7          4.4662    0.8014   -0.0356 C.2       1 <0>         0.2974
     10 N2          3.6776    1.8352   -0.0228 N.2       1 <0>        -0.4687
     11 C8          4.2302   -1.6495   -0.0463 C.ar      1 <0>         0.5618
     12 N3          3.3787   -2.6634   -0.0489 N.ar      1 <0>        -0.5146
     13 C9          3.8088   -3.9171   -0.0599 C.ar      1 <0>         0.2082
     14 C10         5.1729   -4.1542   -0.0687 C.ar      1 <0>        -0.0273
     15 C11         6.0466   -3.0588   -0.0656 C.ar      1 <0>         0.3855
     16 N4          5.5410   -1.8334   -0.0594 N.ar      1 <0>        -0.5249
     17 N5          7.3302   -3.5719   -0.0763 N.am      1 <0>        -0.5109
     18 C12         7.2557   -4.9165   -0.0855 C.2       1 <0>         0.6921
     19 O1          8.2102   -5.6709   -0.0958 O.2       1 <0>        -0.5187
     20 N6          5.9639   -5.2997   -0.0812 N.am      1 <0>        -0.6249
     21 H1          5.6412   -6.2144   -0.0855 H         1 <0>         0.4441
     22 C13         8.5654   -2.7843   -0.0781 C.3       1 <0>         0.1576
     23 C14         9.3836   -3.1174   -1.3295 C.3       1 <0>        -0.1730
     24 C15        10.7073   -2.3496   -1.2835 C.3       1 <0>         0.0672
     25 O2         11.4125   -2.6897   -0.0880 O.3       1 <0>        -0.3757
     26 C16        10.7160   -2.3576    1.1147 C.3       1 <0>         0.0672
     27 C17         9.3926   -3.1257    1.1651 C.3       1 <0>        -0.1729
     28 H2         -0.9615    1.9082    0.0260 H         1 <0>         0.1481
     29 H3          1.1374    3.1794    0.0079 H         1 <0>         0.1473
     30 H4          1.2118   -1.7663   -0.0201 H         1 <0>         0.1549
     31 H5          5.5452    0.8460   -0.0448 H         1 <0>         0.2270
     32 H6          3.1080   -4.7388   -0.0616 H         1 <0>         0.1929
     33 H7          8.3207   -1.7222   -0.0729 H         1 <0>         0.1124
     34 H8          9.5846   -4.1883   -1.3590 H         1 <0>         0.0942
     35 H9          8.8243   -2.8261   -2.2186 H         1 <0>         0.0803
     36 H10        11.3121   -2.6155   -2.1505 H         1 <0>         0.1043
     37 H11        10.5067   -1.2782   -1.2949 H         1 <0>         0.0569
     38 H12        11.3270   -2.6293    1.9755 H         1 <0>         0.1043
     39 H13        10.5155   -1.2864    1.1347 H         1 <0>         0.0569
     40 H14         8.8397   -2.8404    2.0601 H         1 <0>         0.0803
     41 H15         9.5937   -4.1968    1.1860 H         1 <0>         0.0939
@<TRIPOS>BOND
     1    1    6 ar
     2    1    2 ar
     3    1   28 1
     4    2    3 ar
     5    2   29 1
     6    3   10 1
     7    3    4 ar
     8    4    5 ar
     9    4    8 1
    10    5    6 ar
    11    5   30 1
    12    6    7 1
    13    8    9 1
    14    8   11 1
    15    9   10 2
    16    9   31 1
    17   11   16 ar
    18   11   12 ar
    19   12   13 ar
    20   13   14 ar
    21   13   32 1
    22   14   20 1
    23   14   15 ar
    24   15   16 ar
    25   15   17 1
    26   17   18 am
    27   17   22 1
    28   18   19 2
    29   18   20 am
    30   20   21 1
    31   22   27 1
    32   22   23 1
    33   22   33 1
    34   23   24 1
    35   23   34 1
    36   23   35 1
    37   24   25 1
    38   24   36 1
    39   24   37 1
    40   25   26 1
    41   26   27 1
    42   26   38 1
    43   26   39 1
    44   27   40 1
    45   27   41 1
@<TRIPOS>MOLECULE
ZINC49070412
   65    70     0     0     0
SMALL
USER_CHARGES

@<TRIPOS>ATOM
      1 C1         -0.0164    1.3580    0.0095 C.ar      1 <0>        -0.0960
      2 C2          1.1640    2.0929    0.0022 C.ar      1 <0>        -0.0689
      3 C3          2.3915    1.4552   -0.0134 C.ar      1 <0>        -0.0273
      4 C4          2.4388    0.0398   -0.0214 C.ar      1 <0>         0.1105
      5 C5          1.2265   -0.6935   -0.0132 C.ar      1 <0>         0.0712
      6 C6          0.0021   -0.0041    0.0020 C.ar      1 <0>        -0.0710
      7 N1          1.2607   -2.0323   -0.0202 N.ar      1 <0>        -0.4118
      8 C7          2.4141   -2.6562   -0.0345 C.ar      1 <0>         0.0816
      9 C8          3.6197   -1.9309   -0.0422 C.ar      1 <0>         0.1844
     10 N2          3.6054   -0.6081   -0.0359 N.ar      1 <0>        -0.4203
     11 C9          4.9135   -2.6532   -0.0579 C.2       1 <0>        -0.1805
     12 C10         6.1943   -2.0717    0.0383 C.2       1 <0>         0.1062
     13 N3          7.0792   -3.0310   -0.0117 N.2       1 <0>        -0.2826
     14 N4          6.4066   -4.2521   -0.1406 N.pl3     1 <0>        -0.3736
     15 C11         5.0832   -4.0049   -0.1622 C.2       1 <0>         0.0784
     16 C12         7.0348   -5.5725   -0.2312 C.3       1 <0>         0.1567
     17 C13         6.2116   -6.4684   -1.1613 C.3       1 <0>        -0.1646
     18 C14         6.8281   -7.8686   -1.1890 C.3       1 <0>        -0.0001
     19 N5          6.8269   -8.4346    0.1653 N.4       1 <0>        -0.5084
     20 C15         7.6728   -7.6203    1.0462 C.3       1 <0>        -0.0020
     21 C16         7.0888   -6.2105    1.1599 C.3       1 <0>        -0.1643
     22 C17         3.6445    2.2453   -0.0221 C.ar      1 <0>         0.0181
     23 C18         4.6614    1.9543    0.8866 C.ar      1 <0>        -0.1249
     24 C19         5.8286    2.6945    0.8745 C.ar      1 <0>         0.1315
     25 C20         5.9891    3.7243   -0.0380 C.ar      1 <0>        -0.1456
     26 C21         4.9817    4.0176   -0.9425 C.ar      1 <0>         0.1534
     27 C22         3.8134    3.2789   -0.9428 C.ar      1 <0>        -0.1497
     28 F1          5.1436    5.0237   -1.8294 F         1 <0>        -0.1211
     29 C23         7.2635    4.5284   -0.0465 C.3       1 <0>         0.0934
     30 N6          8.2325    3.9008   -0.9549 N.3       1 <0>        -0.5299
     31 C24         8.6580    2.5887   -0.4464 C.3       1 <0>         0.0164
     32 C25         9.6188    1.9455   -1.4500 C.3       1 <0>         0.0656
     33 O1         10.7248    2.8241   -1.6738 O.3       1 <0>        -0.3842
     34 C26        10.3466    4.1111   -2.1699 C.3       1 <0>         0.0639
     35 C27         9.3932    4.7761   -1.1736 C.3       1 <0>         0.0172
     36 F2          6.8145    2.4134    1.7544 F         1 <0>        -0.1282
     37 H1         -0.9640    1.8759    0.0259 H         1 <0>         0.1454
     38 H2          1.1220    3.1720    0.0083 H         1 <0>         0.1447
     39 H3         -0.9266   -0.5554    0.0082 H         1 <0>         0.1449
     40 H4          2.4387   -3.7360   -0.0401 H         1 <0>         0.1668
     41 H5          6.4065   -1.0173    0.1359 H         1 <0>         0.1951
     42 H6          4.2981   -4.7415   -0.2489 H         1 <0>         0.1815
     43 H7          8.0462   -5.4688   -0.6242 H         1 <0>         0.1234
     44 H8          5.1868   -6.5291   -0.7951 H         1 <0>         0.1001
     45 H9          6.2150   -6.0492   -2.1675 H         1 <0>         0.1262
     46 H10         6.2445   -8.5090   -1.8505 H         1 <0>         0.1448
     47 H11         7.8527   -7.8068   -1.5556 H         1 <0>         0.1383
     48 H12         5.8835   -8.4461    0.5231 H         1 <0>         0.4298
     49 H13         7.7128   -8.0773    2.0349 H         1 <0>         0.1429
     50 H14         8.6794   -7.5637    0.6319 H         1 <0>         0.1377
     51 H15         7.7192   -5.6069    1.8129 H         1 <0>         0.1241
     52 H16         6.0821   -6.2658    1.5743 H         1 <0>         0.0970
     53 H17         4.5369    1.1521    1.5989 H         1 <0>         0.1411
     54 H18         3.0306    3.5050   -1.6517 H         1 <0>         0.1463
     55 H19         7.0512    5.5422   -0.3859 H         1 <0>         0.0963
     56 H20         7.6787    4.5620    0.9608 H         1 <0>         0.0565
     57 H21         9.1633    2.7158    0.5111 H         1 <0>         0.0476
     58 H22         7.7856    1.9484   -0.3161 H         1 <0>         0.0819
     59 H23         9.9814    0.9982   -1.0510 H         1 <0>         0.0968
     60 H24         9.0978    1.7693   -2.3910 H         1 <0>         0.0583
     61 H25        11.2356    4.7299   -2.2916 H         1 <0>         0.1019
     62 H26         9.8468    3.9978   -3.1319 H         1 <0>         0.0613
     63 H27         9.0574    5.7326   -1.5741 H         1 <0>         0.0907
     64 H28         9.9102    4.9382   -0.2277 H         1 <0>         0.0471
     65 H29         7.1845   -9.3776    0.1349 H         1 <0>         0.4376
@<TRIPOS>BOND
     1    1    6 ar
     2    1    2 ar
     3    1   37 1
     4    2    3 ar
     5    2   38 1
     6    3    4 ar
     7    3   22 1
     8    4   10 ar
     9    4    5 ar
    10    5    6 ar
    11    5    7 ar
    12    6   39 1
    13    7    8 ar
    14    8    9 ar
    15    8   40 1
    16    9   10 ar
    17    9   11 1
    18   11   15 2
    19   11   12 1
    20   12   13 2
    21   12   41 1
    22   13   14 1
    23   14   15 1
    24   14   16 1
    25   15   42 1
    26   16   21 1
    27   16   17 1
    28   16   43 1
    29   17   18 1
    30   17   44 1
    31   17   45 1
    32   18   19 1
    33   18   46 1
    34   18   47 1
    35   19   20 1
    36   19   48 1
    37   19   65 1
    38   20   21 1
    39   20   49 1
    40   20   50 1
    41   21   51 1
    42   21   52 1
    43   22   27 ar
    44   22   23 ar
    45   23   24 ar
    46   23   53 1
    47   24   25 ar
    48   24   36 1
    49   25   26 ar
    50   25   29 1
    51   26   27 ar
    52   26   28 1
    53   27   54 1
    54   29   30 1
    55   29   55 1
    56   29   56 1
    57   30   35 1
    58   30   31 1
    59   31   32 1
    60   31   57 1
    61   31   58 1
    62   32   33 1
    63   32   59 1
    64   32   60 1
    65   33   34 1
    66   34   35 1
    67   34   61 1
    68   34   62 1
    69   35   63 1
    70   35   64 1
@<TRIPOS>MOLECULE
ZINC58631551
   38    40     0     0     0
SMALL
USER_CHARGES

@<TRIPOS>ATOM
      1 C1         -0.0184    1.5028    0.0103 C.3       1 <0>        -0.0741
      2 C2          0.0021   -0.0041    0.0020 C.2       1 <0>         0.0868
      3 C3          0.0080   -0.8148   -1.1361 C.2       1 <0>        -0.2704
      4 C4          0.0283   -2.1125   -0.7242 C.2       1 <0>         0.3120
      5 N1          0.0349   -2.1091    0.6338 N.pl3     1 <0>        -0.4958
      6 H1          0.0487   -2.8914    1.2071 H         1 <0>         0.4354
      7 N2          0.0230   -0.7746    1.0591 N.2       1 <0>        -0.2858
      8 N3          0.0394   -3.2378   -1.5456 N.pl3     1 <0>        -0.6217
      9 C5          0.0298   -3.0899   -2.9246 C.ar      1 <0>         0.4936
     10 C6          0.0351   -4.2117   -3.7582 C.ar      1 <0>        -0.2532
     11 C7          0.0252   -4.0159   -5.1259 C.ar      1 <0>         0.2431
     12 N4          0.0110   -2.7797   -5.6037 N.ar      1 <0>        -0.5797
     13 C8          0.0064   -1.7350   -4.7896 C.ar      1 <0>         0.6095
     14 N5          0.0100   -1.8793   -3.4729 N.ar      1 <0>        -0.5867
     15 N6         -0.0080   -0.4597   -5.3285 N.pl3     1 <0>        -0.6801
     16 C9         -0.0178   -0.2789   -6.7823 C.3       1 <0>         0.2337
     17 H2          0.5760   -1.0641   -7.2501 H         1 <0>         0.1249
     18 C10        -1.4571   -0.3534   -7.2958 C.3       1 <0>        -0.1578
     19 C11         0.5688    1.0663   -7.1252 C.ar      1 <0>         0.2983
     20 N7          0.1994    2.1226   -6.4292 N.ar      1 <0>        -0.4844
     21 C12         0.6928    3.3201   -6.7002 C.ar      1 <0>         0.1324
     22 C13         1.6106    3.4535   -7.7331 C.ar      1 <0>        -0.0007
     23 C14         1.9743    2.3171   -8.4426 C.ar      1 <0>         0.1321
     24 N8          1.4411    1.1529   -8.1092 N.ar      1 <0>        -0.4782
     25 F1          2.1365    4.6594   -8.0405 F         1 <0>        -0.1143
     26 Cl1         0.0542   -5.8140   -3.0905 Cl        1 <0>        -0.0482
     27 H3          1.0042    1.8801    0.0026 H         1 <0>         0.0774
     28 H4         -0.5455    1.8639   -0.8728 H         1 <0>         0.0795
     29 H5         -0.5286    1.8543    0.9071 H         1 <0>         0.0730
     30 H6         -0.0022   -0.4728   -2.1605 H         1 <0>         0.1820
     31 H7          0.0539   -4.1247   -1.1531 H         1 <0>         0.4249
     32 H8          0.0292   -4.8611   -5.7983 H         1 <0>         0.1817
     33 H9         -0.0115    0.3141   -4.7435 H         1 <0>         0.4227
     34 H10        -2.0509    0.4319   -6.8279 H         1 <0>         0.0662
     35 H11        -1.4644   -0.2189   -8.3774 H         1 <0>         0.0715
     36 H12        -1.8814   -1.3263   -7.0478 H         1 <0>         0.0782
     37 H13         0.3855    4.1817   -6.1261 H         1 <0>         0.1860
     38 H14         2.6853    2.3817   -9.2530 H         1 <0>         0.1860
@<TRIPOS>BOND
     1    1    2 1
     2    1   27 1
     3    1   28 1
     4    1   29 1
     5    2    7 2
     6    2    3 1
     7    3    4 2
     8    3   30 1
     9    4    5 1
    10    4    8 1
    11    5    6 1
    12    5    7 1
    13    8    9 1
    14    8   31 1
    15    9   14 ar
    16    9   10 ar
    17   10   11 ar
    18   10   26 1
    19   11   12 ar
    20   11   32 1
    21   12   13 ar
    22   13   14 ar
    23   13   15 1
    24   15   16 1
    25   15   33 1
    26   16   17 1
    27   16   18 1
    28   16   19 1
    29   18   34 1
    30   18   35 1
    31   18   36 1
    32   19   24 ar
    33   19   20 ar
    34   20   21 ar
    35   21   22 ar
    36   21   37 1
    37   22   23 ar
    38   22   25 1
    39   23   24 ar
    40   23   38 1
@<TRIPOS>MOLECULE
ZINC19862646
   74    77     0     0     0
SMALL
USER_CHARGES

@<TRIPOS>ATOM
      1 C1          1.5321   -2.2270   -1.1172 C.3       1 <0>        -0.0974
      2 C2          1.4579   -3.4853   -0.2913 C.ar      1 <0>        -0.2828
      3 C3          1.4428   -4.7274   -0.8959 C.ar      1 <0>         0.2132
      4 N1          1.3775   -5.8146   -0.1418 N.ar      1 <0>        -0.5856
      5 C4          1.3267   -5.7251    1.1793 C.ar      1 <0>         0.5872
      6 N2          1.3391   -4.5538    1.7974 N.ar      1 <0>        -0.6010
      7 C5          1.4087   -3.4225    1.1029 C.ar      1 <0>         0.4692
      8 N3          1.4274   -2.1981    1.7529 N.pl3     1 <0>        -0.6487
      9 C6          1.2465   -2.1391    3.1377 C.ar      1 <0>         0.1392
     10 C7          0.3643   -3.0118    3.7624 C.ar      1 <0>        -0.0571
     11 C8          0.1882   -2.9512    5.1306 C.ar      1 <0>        -0.1191
     12 C9          0.8887   -2.0227    5.8790 C.ar      1 <0>        -0.0354
     13 C10         1.7671   -1.1524    5.2605 C.ar      1 <0>        -0.6492
     14 C11         1.9525   -1.2118    3.8930 C.ar      1 <0>        -0.0460
     15 S1          2.6565    0.0289    6.2187 S.o2      1 <0>         2.6930
     16 O1          2.6701    1.2345    5.4666 O.2       1 <0>        -0.9582
     17 O2          2.1321   -0.0403    7.5376 O.2       1 <0>        -0.9484
     18 N4          4.2258   -0.4926    6.3054 N.pl3     1 <0>        -1.1080
     19 C12         4.5383   -1.7714    6.9481 C.3       1 <0>         0.1726
     20 C13         3.8035   -2.9001    6.2220 C.3       1 <0>        -0.1866
     21 C14         6.0466   -2.0200    6.8828 C.3       1 <0>        -0.1498
     22 C15         4.0912   -1.7298    8.4107 C.3       1 <0>        -0.1769
     23 N5          1.2587   -6.8853    1.9325 N.pl3     1 <0>        -0.6395
     24 C16         1.3035   -8.1342    1.3003 C.ar      1 <0>         0.1540
     25 C17         2.0939   -8.3140    0.1729 C.ar      1 <0>        -0.0712
     26 C18         2.1376   -9.5458   -0.4500 C.ar      1 <0>        -0.1194
     27 C19         1.3922  -10.6032    0.0504 C.ar      1 <0>         0.0917
     28 C20         0.6020  -10.4242    1.1763 C.ar      1 <0>        -0.1794
     29 C21         0.5621   -9.1947    1.8039 C.ar      1 <0>        -0.1104
     30 O3          1.4357  -11.8159   -0.5635 O.3       1 <0>        -0.3288
     31 C22         0.6430  -12.8599    0.0055 C.3       1 <0>         0.0276
     32 C23         0.8196  -14.1392   -0.8149 C.3       1 <0>         0.0038
     33 N6          2.2092  -14.6029   -0.7059 N.4       1 <0>        -0.3955
     34 C24         2.4829  -15.0808    0.6736 C.3       1 <0>        -0.0102
     35 C25         3.7053  -16.0147    0.4893 C.3       1 <0>        -0.1448
     36 C26         3.4110  -16.7069   -0.8614 C.3       1 <0>        -0.1451
     37 C27         2.4282  -15.7699   -1.5877 C.3       1 <0>        -0.0087
     38 H1          2.5763   -1.9593   -1.2786 H         1 <0>         0.0718
     39 H2          1.0472   -2.3945   -2.0790 H         1 <0>         0.0761
     40 H3          1.0264   -1.4170   -0.5916 H         1 <0>         0.0621
     41 H4          1.4834   -4.8111   -1.9719 H         1 <0>         0.1724
     42 H5          1.5661   -1.3823    1.2467 H         1 <0>         0.4261
     43 H6         -0.1835   -3.7366    3.1784 H         1 <0>         0.1362
     44 H7         -0.4974   -3.6294    5.6168 H         1 <0>         0.1362
     45 H8          0.7489   -1.9772    6.9490 H         1 <0>         0.1468
     46 H9          2.6421   -0.5346    3.4111 H         1 <0>         0.1369
     47 H10         4.9382    0.0487    5.9306 H         1 <0>         0.4193
     48 H11         4.0171   -2.8450    5.1546 H         1 <0>         0.0648
     49 H12         4.1395   -3.8614    6.6107 H         1 <0>         0.0746
     50 H13         2.7304   -2.7979    6.3836 H         1 <0>         0.0706
     51 H14         6.5700   -1.2159    7.4000 H         1 <0>         0.0667
     52 H15         6.2790   -2.9715    7.3610 H         1 <0>         0.0728
     53 H16         6.3651   -2.0496    5.8408 H         1 <0>         0.0622
     54 H17         3.0036   -1.7833    8.4598 H         1 <0>         0.0794
     55 H18         4.5211   -2.5762    8.9463 H         1 <0>         0.0689
     56 H19         4.4302   -0.8003    8.8680 H         1 <0>         0.0689
     57 H20         1.1799   -6.8330    2.8978 H         1 <0>         0.4242
     58 H21         2.6741   -7.4908   -0.2170 H         1 <0>         0.1478
     59 H22         2.7520   -9.6858   -1.3271 H         1 <0>         0.1346
     60 H23         0.0216  -11.2479    1.5651 H         1 <0>         0.1293
     61 H24        -0.0495   -9.0568    2.6834 H         1 <0>         0.1323
     62 H25         0.9618  -13.0397    1.0322 H         1 <0>         0.0841
     63 H26        -0.4063  -12.5649   -0.0027 H         1 <0>         0.1072
     64 H27         0.1486  -14.9097   -0.4354 H         1 <0>         0.1476
     65 H28         0.5854  -13.9359   -1.8599 H         1 <0>         0.1411
     66 H29         2.7323  -14.2453    1.3278 H         1 <0>         0.1336
     67 H30         1.6302  -15.6358    1.0647 H         1 <0>         0.1346
     68 H31         4.6276  -15.4365    0.4335 H         1 <0>         0.0983
     69 H32         3.7562  -16.7471    1.2950 H         1 <0>         0.1170
     70 H33         4.3288  -16.8140   -1.4395 H         1 <0>         0.1054
     71 H34         2.9518  -17.6813   -0.6950 H         1 <0>         0.1042
     72 H35         1.4839  -16.2856   -1.7625 H         1 <0>         0.1312
     73 H36         2.8573  -15.4440   -2.5352 H         1 <0>         0.1329
     74 H37         2.8451  -13.8584   -0.9497 H         1 <0>         0.4339
@<TRIPOS>BOND
     1    1    2 1
     2    1   38 1
     3    1   39 1
     4    1   40 1
     5    2    7 ar
     6    2    3 ar
     7    3    4 ar
     8    3   41 1
     9    4    5 ar
    10    5    6 ar
    11    5   23 1
    12    6    7 ar
    13    7    8 1
    14    8    9 1
    15    8   42 1
    16    9   14 ar
    17    9   10 ar
    18   10   11 ar
    19   10   43 1
    20   11   12 ar
    21   11   44 1
    22   12   13 ar
    23   12   45 1
    24   13   14 ar
    25   13   15 1
    26   14   46 1
    27   15   16 2
    28   15   17 2
    29   15   18 1
    30   18   19 1
    31   18   47 1
    32   19   20 1
    33   19   21 1
    34   19   22 1
    35   20   48 1
    36   20   49 1
    37   20   50 1
    38   21   51 1
    39   21   52 1
    40   21   53 1
    41   22   54 1
    42   22   55 1
    43   22   56 1
    44   23   24 1
    45   23   57 1
    46   24   29 ar
    47   24   25 ar
    48   25   26 ar
    49   25   58 1
    50   26   27 ar
    51   26   59 1
    52   27   28 ar
    53   27   30 1
    54   28   29 ar
    55   28   60 1
    56   29   61 1
    57   30   31 1
    58   31   32 1
    59   31   62 1
    60   31   63 1
    61   32   33 1
    62   32   64 1
    63   32   65 1
    64   33   37 1
    65   33   34 1
    66   33   74 1
    67   34   35 1
    68   34   66 1
    69   34   67 1
    70   35   36 1
    71   35   68 1
    72   35   69 1
    73   36   37 1
    74   36   70 1
    75   36   71 1
    76   37   72 1
    77   37   73 1
@<TRIPOS>MOLECULE
ZINC19862646
   75    78     0     0     0
SMALL
USER_CHARGES

@<TRIPOS>ATOM
      1 C1          3.3808   -3.2654   -0.7147 C.3       1 <0>        -0.1174
      2 C2          3.0541   -4.2784    0.3521 C.ar      1 <0>        -0.2100
      3 C3          3.1557   -5.6321    0.0957 C.ar      1 <0>         0.1981
      4 N1          2.8617   -6.4973    1.0548 N.ar      1 <0>        -0.5692
      5 C4          2.4732   -6.0816    2.2516 C.ar      1 <0>         0.6505
      6 N2          2.3630   -4.7931    2.5376 N.ar      1 <0>        -0.5551
      7 C5          2.6472   -3.8701    1.6240 C.ar      1 <0>         0.5155
      8 N3          2.5367   -2.5220    1.9281 N.pl3     1 <0>        -0.5916
      9 C6          2.0118   -2.1244    3.1612 C.ar      1 <0>         0.0890
     10 C7          0.9760   -2.8454    3.7420 C.ar      1 <0>        -0.0501
     11 C8          0.4602   -2.4502    4.9603 C.ar      1 <0>        -0.1182
     12 C9          0.9731   -1.3376    5.6021 C.ar      1 <0>        -0.0102
     13 C10         2.0037   -0.6175    5.0266 C.ar      1 <0>        -0.6496
     14 C11         2.5284   -1.0110    3.8111 C.ar      1 <0>        -0.0212
     15 S1          2.6531    0.7995    5.8483 S.o2      1 <0>         2.6896
     16 O1          2.8696    1.7853    4.8480 O.2       1 <0>        -0.9504
     17 O2          1.8225    1.0301    6.9780 O.2       1 <0>        -0.9388
     18 N4          4.1452    0.3845    6.4346 N.pl3     1 <0>        -1.1064
     19 C12         4.2722   -0.6965    7.4152 C.3       1 <0>         0.1714
     20 C13         3.7299   -1.9954    6.8154 C.3       1 <0>        -0.1837
     21 C14         5.7458   -0.8808    7.7831 C.3       1 <0>        -0.1510
     22 C15         3.4734   -0.3423    8.6711 C.3       1 <0>        -0.1792
     23 N5          2.1744   -7.0177    3.2274 N.pl3     1 <0>        -0.6171
     24 C16         2.4120   -8.3772    2.9897 C.ar      1 <0>         0.0845
     25 C17         3.5783   -8.7773    2.3511 C.ar      1 <0>        -0.1289
     26 C18         3.8119  -10.1181    2.1170 C.ar      1 <0>        -0.1050
     27 C19         2.8818  -11.0651    2.5196 C.ar      1 <0>         0.1305
     28 C20         1.7162  -10.6663    3.1572 C.ar      1 <0>        -0.1681
     29 C21         1.4840   -9.3263    3.3975 C.ar      1 <0>        -0.0694
     30 O3          3.1125  -12.3852    2.2887 O.3       1 <0>        -0.3207
     31 C22         2.1122  -13.3055    2.7299 C.3       1 <0>         0.0240
     32 C23         2.5444  -14.7322    2.3856 C.3       1 <0>         0.0028
     33 N6          3.7520  -15.0756    3.1483 N.4       1 <0>        -0.3967
     34 C24         3.4293  -15.1913    4.5935 C.3       1 <0>        -0.0112
     35 C25         4.5800  -16.0705    5.1444 C.3       1 <0>        -0.1449
     36 C26         4.8195  -17.0828    4.0008 C.3       1 <0>        -0.1462
     37 C27         4.2525  -16.4059    2.7392 C.3       1 <0>        -0.0088
     38 H1          4.4393   -3.0107   -0.6619 H         1 <0>         0.0981
     39 H2          3.1566   -3.6852   -1.6953 H         1 <0>         0.0988
     40 H3          2.7829   -2.3675   -0.5585 H         1 <0>         0.0837
     41 H4          3.4711   -5.9813   -0.8764 H         1 <0>         0.2194
     42 H5          2.8236   -1.8547    1.2852 H         1 <0>         0.4412
     43 H6          0.5746   -3.7139    3.2410 H         1 <0>         0.1368
     44 H7         -0.3450   -3.0103    5.4124 H         1 <0>         0.1457
     45 H8          0.5676   -1.0304    6.5548 H         1 <0>         0.1566
     46 H9          3.3364   -0.4507    3.3642 H         1 <0>         0.1454
     47 H10         4.9351    0.8571    6.1288 H         1 <0>         0.4219
     48 H11         4.1906   -2.1665    5.8425 H         1 <0>         0.0617
     49 H12         3.9638   -2.8276    7.4794 H         1 <0>         0.0773
     50 H13         2.6492   -1.9176    6.6971 H         1 <0>         0.0658
     51 H14         6.1321    0.0446    8.2104 H         1 <0>         0.0702
     52 H15         5.8403   -1.6851    8.5127 H         1 <0>         0.0744
     53 H16         6.3149   -1.1332    6.8884 H         1 <0>         0.0617
     54 H17         2.4075   -0.4307    8.4608 H         1 <0>         0.0781
     55 H18         3.7425   -1.0246    9.4774 H         1 <0>         0.0716
     56 H19         3.7010    0.6810    8.9699 H         1 <0>         0.0726
     57 H20         1.8006   -6.7318    4.0756 H         1 <0>         0.4501
     58 H21         4.3025   -8.0400    2.0372 H         1 <0>         0.1399
     59 H22         4.7188  -10.4294    1.6200 H         1 <0>         0.1525
     60 H23         0.9923  -11.4042    3.4700 H         1 <0>         0.1473
     61 H24         0.5787   -9.0163    3.8982 H         1 <0>         0.1499
     62 H25         1.9854  -13.2146    3.8087 H         1 <0>         0.0911
     63 H26         1.1682  -13.0819    2.2330 H         1 <0>         0.1135
     64 H27         1.7436  -15.4261    2.6413 H         1 <0>         0.1535
     65 H28         2.7570  -14.8000    1.3187 H         1 <0>         0.1437
     66 H29         3.4336  -14.2102    5.0684 H         1 <0>         0.1316
     67 H30         2.4673  -15.6840    4.7347 H         1 <0>         0.1366
     68 H31         5.4727  -15.4707    5.3219 H         1 <0>         0.0985
     69 H32         4.2713  -16.5835    6.0553 H         1 <0>         0.1194
     70 H33         5.8861  -17.2730    3.8811 H         1 <0>         0.1075
     71 H34         4.2887  -18.0134    4.2019 H         1 <0>         0.1068
     72 H35         3.4347  -17.0018    2.3338 H         1 <0>         0.1333
     73 H36         5.0389  -16.2933    1.9929 H         1 <0>         0.1343
     74 H37         4.4651  -14.3764    3.0049 H         1 <0>         0.4315
     75 H38         2.9315   -7.4486    0.8786 H         1 <0>         0.4413
@<TRIPOS>BOND
     1    1    2 1
     2    1   38 1
     3    1   39 1
     4    1   40 1
     5    2    7 ar
     6    2    3 ar
     7    3    4 ar
     8    3   41 1
     9    4    5 ar
    10    4   75 1
    11    5    6 ar
    12    5   23 1
    13    6    7 ar
    14    7    8 1
    15    8    9 1
    16    8   42 1
    17    9   14 ar
    18    9   10 ar
    19   10   11 ar
    20   10   43 1
    21   11   12 ar
    22   11   44 1
    23   12   13 ar
    24   12   45 1
    25   13   14 ar
    26   13   15 1
    27   14   46 1
    28   15   16 2
    29   15   17 2
    30   15   18 1
    31   18   19 1
    32   18   47 1
    33   19   20 1
    34   19   21 1
    35   19   22 1
    36   20   48 1
    37   20   49 1
    38   20   50 1
    39   21   51 1
    40   21   52 1
    41   21   53 1
    42   22   54 1
    43   22   55 1
    44   22   56 1
    45   23   24 1
    46   23   57 1
    47   24   29 ar
    48   24   25 ar
    49   25   26 ar
    50   25   58 1
    51   26   27 ar
    52   26   59 1
    53   27   28 ar
    54   27   30 1
    55   28   29 ar
    56   28   60 1
    57   29   61 1
    58   30   31 1
    59   31   32 1
    60   31   62 1
    61   31   63 1
    62   32   33 1
    63   32   64 1
    64   32   65 1
    65   33   37 1
    66   33   34 1
    67   33   74 1
    68   34   35 1
    69   34   66 1
    70   34   67 1
    71   35   36 1
    72   35   68 1
    73   35   69 1
    74   36   37 1
    75   36   70 1
    76   36   71 1
    77   37   72 1
    78   37   73 1
@<TRIPOS>MOLECULE
ZINC21982951
   60    63     0     0     0
SMALL
USER_CHARGES

@<TRIPOS>ATOM
      1 C1         -2.0700    1.6928    0.2333 C.3       1 <0>        -0.1170
      2 C2         -1.6482    0.2604    0.0301 C.ar      1 <0>        -0.0813
      3 C3         -1.8479   -0.3525   -1.1919 C.ar      1 <0>        -0.1034
      4 C4         -1.4615   -1.6665   -1.3798 C.ar      1 <0>        -0.0990
      5 C5         -0.8738   -2.3725   -0.3459 C.ar      1 <0>        -0.1046
      6 C6         -0.6714   -1.7660    0.8791 C.ar      1 <0>        -0.0220
      7 C7         -1.0534   -0.4428    1.0688 C.ar      1 <0>         0.1347
      8 N1         -0.8441    0.1769    2.3055 N.am      1 <0>        -0.6659
      9 C8         -1.2819   -0.4110    3.4365 C.2       1 <0>         0.6018
     10 O1         -1.7689   -1.5261    3.3939 O.2       1 <0>        -0.4722
     11 C9         -1.1720    0.2905    4.7149 C.2       1 <0>        -0.2635
     12 C10        -1.5472   -0.1201    5.9866 C.2       1 <0>         0.1512
     13 N2         -1.3262    0.7270    6.9599 N.2       1 <0>        -0.5510
     14 C11        -0.7756    1.9070    6.7361 C.2       1 <0>         0.2513
     15 S1         -0.5107    1.9100    5.0742 S.3       1 <0>         0.2445
     16 N3         -0.4817    2.8997    7.6498 N.pl3     1 <0>        -0.5870
     17 C12        -0.6908    2.6801    9.0050 C.ar      1 <0>         0.4543
     18 C13        -1.0534    1.4192    9.4679 C.ar      1 <0>        -0.2926
     19 C14        -1.2512    1.2508   10.8352 C.ar      1 <0>         0.4935
     20 N4         -1.0875    2.2952   11.6453 N.ar      1 <0>        -0.5328
     21 C15        -0.7435    3.4737   11.1677 C.ar      1 <0>         0.4541
     22 N5         -0.5417    3.6719    9.8809 N.ar      1 <0>        -0.5672
     23 C16        -0.5694    4.6273   12.1217 C.3       1 <0>        -0.1251
     24 N6         -1.6138    0.0143   11.3464 N.pl3     1 <0>        -0.5370
     25 C17        -2.0559   -0.1253   12.7422 C.3       1 <0>         0.1090
     26 C18        -3.3866   -0.8852   12.7576 C.3       1 <0>         0.0383
     27 N7         -3.2335   -2.1493   12.0251 N.3       1 <0>        -0.5289
     28 C19        -2.9165   -1.9105   10.6107 C.3       1 <0>         0.0343
     29 C20        -1.5725   -1.1917   10.5056 C.3       1 <0>         0.1057
     30 C21        -4.4334   -2.9856   12.1619 C.3       1 <0>         0.0545
     31 C22        -4.1483   -4.3816   11.6043 C.3       1 <0>         0.0776
     32 O2         -3.1500   -5.0191   12.4038 O.3       1 <0>        -0.5606
     33 Cl1         0.0658   -2.6526    2.1768 Cl        1 <0>        -0.0453
     34 H1         -1.2464    2.3553   -0.0328 H         1 <0>         0.0773
     35 H2         -2.9308    1.9112   -0.3987 H         1 <0>         0.0785
     36 H3         -2.3379    1.8478    1.2784 H         1 <0>         0.0640
     37 H4         -2.3069    0.1956   -2.0014 H         1 <0>         0.1372
     38 H5         -1.6193   -2.1430   -2.3361 H         1 <0>         0.1391
     39 H6         -0.5731   -3.3989   -0.4959 H         1 <0>         0.1403
     40 H7         -0.3838    1.0296    2.3489 H         1 <0>         0.4083
     41 H8         -1.9972   -1.0858    6.1634 H         1 <0>         0.2027
     42 H9         -0.1293    3.7505    7.3451 H         1 <0>         0.4460
     43 H10        -1.1784    0.5927    8.7841 H         1 <0>         0.2218
     44 H11         0.4644    4.6619   12.4652 H         1 <0>         0.1245
     45 H12        -0.8146    5.5596   11.6130 H         1 <0>         0.1071
     46 H13        -1.2322    4.4948   12.9768 H         1 <0>         0.1273
     47 H14        -1.3096   -0.6823   13.3087 H         1 <0>         0.0989
     48 H15        -2.1929    0.8619   13.1834 H         1 <0>         0.1094
     49 H16        -3.6740   -1.0944   13.7880 H         1 <0>         0.1036
     50 H17        -4.1569   -0.2794   12.2806 H         1 <0>         0.0428
     51 H18        -2.8631   -2.8634   10.0841 H         1 <0>         0.1043
     52 H19        -3.6935   -1.2904   10.1636 H         1 <0>         0.0450
     53 H20        -1.3900   -0.9091    9.4688 H         1 <0>         0.1029
     54 H21        -0.7788   -1.8532   10.8529 H         1 <0>         0.1042
     55 H22        -4.7041   -3.0633   13.2149 H         1 <0>         0.0912
     56 H23        -5.2561   -2.5340   11.6075 H         1 <0>         0.0533
     57 H24        -5.0627   -4.9745   11.6240 H         1 <0>         0.0547
     58 H25        -3.7921   -4.2970   10.5776 H         1 <0>         0.0454
     59 H26        -2.9188   -5.9101   12.1076 H         1 <0>         0.3805
     60 H27        -0.2852    4.5531    9.5669 H         1 <0>         0.4414
@<TRIPOS>BOND
     1    1    2 1
     2    1   34 1
     3    1   35 1
     4    1   36 1
     5    2    7 ar
     6    2    3 ar
     7    3    4 ar
     8    3   37 1
     9    4    5 ar
    10    4   38 1
    11    5    6 ar
    12    5   39 1
    13    6    7 ar
    14    6   33 1
    15    7    8 1
    16    8    9 am
    17    8   40 1
    18    9   10 2
    19    9   11 1
    20   11   15 1
    21   11   12 2
    22   12   13 1
    23   12   41 1
    24   13   14 2
    25   14   15 1
    26   14   16 1
    27   16   17 1
    28   16   42 1
    29   17   22 ar
    30   17   18 ar
    31   18   19 ar
    32   18   43 1
    33   19   20 ar
    34   19   24 1
    35   20   21 ar
    36   21   22 ar
    37   21   23 1
    38   22   60 1
    39   23   44 1
    40   23   45 1
    41   23   46 1
    42   24   29 1
    43   24   25 1
    44   25   26 1
    45   25   47 1
    46   25   48 1
    47   26   27 1
    48   26   49 1
    49   26   50 1
    50   27   28 1
    51   27   30 1
    52   28   29 1
    53   28   51 1
    54   28   52 1
    55   29   53 1
    56   29   54 1
    57   30   31 1
    58   30   55 1
    59   30   56 1
    60   31   32 1
    61   31   57 1
    62   31   58 1
    63   32   59 1
@<TRIPOS>MOLECULE
ZINC21982951
   60    63     0     0     0
SMALL
USER_CHARGES

@<TRIPOS>ATOM
      1 C1          3.2739    6.6585    1.8418 C.3       1 <0>        -0.1168
      2 C2          2.5810    7.9910    1.9663 C.ar      1 <0>        -0.0823
      3 C3          2.8983    9.0189    1.0995 C.ar      1 <0>        -0.1038
      4 C4          2.2635   10.2419    1.2126 C.ar      1 <0>        -0.1008
      5 C5          1.3088   10.4411    2.1933 C.ar      1 <0>        -0.1049
      6 C6          0.9869    9.4175    3.0639 C.ar      1 <0>        -0.0226
      7 C7          1.6192    8.1849    2.9486 C.ar      1 <0>         0.1373
      8 N1          1.2913    7.1440    3.8238 N.am      1 <0>        -0.6678
      9 C8          1.3128    7.3511    5.1554 C.2       1 <0>         0.6036
     10 O1          1.5184    8.4680    5.5945 O.2       1 <0>        -0.4759
     11 C9          1.0891    6.2346    6.0728 C.2       1 <0>        -0.2694
     12 C10         1.0619    6.2190    7.4604 C.2       1 <0>         0.1522
     13 N2          0.8357    5.0596    8.0247 N.2       1 <0>        -0.5060
     14 C11         0.6446    3.9678    7.3056 C.2       1 <0>         0.2464
     15 S1          0.7674    4.5141    5.7185 S.3       1 <0>         0.2029
     16 N3          0.3973    2.6842    7.7505 N.pl3     1 <0>        -0.5650
     17 C12         0.2197    2.4414    9.1063 C.ar      1 <0>         0.4999
     18 C13        -0.1342    1.1736    9.5555 C.ar      1 <0>        -0.3181
     19 C14        -0.3003    0.9817   10.9244 C.ar      1 <0>         0.4940
     20 N4         -0.1157    2.0114   11.7481 N.ar      1 <0>        -0.5712
     21 C15         0.2193    3.1978   11.2829 C.ar      1 <0>         0.4509
     22 N5          0.3911    3.4178    9.9956 N.ar      1 <0>        -0.4879
     23 C16         0.4179    4.3344   12.2523 C.3       1 <0>        -0.1253
     24 N6         -0.6531   -0.2629   11.4224 N.pl3     1 <0>        -0.5744
     25 C17        -0.9639   -0.4449   12.8484 C.3       1 <0>         0.1013
     26 C18        -2.3114   -1.1652   12.9649 C.3       1 <0>         0.0387
     27 N7         -2.2712   -2.4031   12.1749 N.3       1 <0>        -0.5277
     28 C19        -2.0835   -2.1176   10.7462 C.3       1 <0>         0.0305
     29 C20        -0.7325   -1.4351   10.5377 C.3       1 <0>         0.1149
     30 C21        -3.4796   -3.2085   12.3965 C.3       1 <0>         0.0543
     31 C22        -3.2958   -4.5889   11.7629 C.3       1 <0>         0.0774
     32 O2         -2.2472   -5.2869   12.4378 O.3       1 <0>        -0.5615
     33 Cl1        -0.2110    9.6681    4.2952 Cl        1 <0>        -0.0453
     34 H1          2.7121    6.0191    1.1609 H         1 <0>         0.0767
     35 H2          4.2810    6.8077    1.4524 H         1 <0>         0.0779
     36 H3          3.3298    6.1850    2.8220 H         1 <0>         0.0648
     37 H4          3.6435    8.8670    0.3327 H         1 <0>         0.1365
     38 H5          2.5139   11.0437    0.5337 H         1 <0>         0.1383
     39 H6          0.8148   11.3976    2.2790 H         1 <0>         0.1396
     40 H7          1.0484    6.2731    3.4723 H         1 <0>         0.4083
     41 H8          1.2191    7.1147    8.0430 H         1 <0>         0.1979
     42 H9          0.3477    1.9521    7.1161 H         1 <0>         0.4525
     43 H10        -0.2767    0.3593    8.8606 H         1 <0>         0.1835
     44 H11         1.4596    4.3615   12.5720 H         1 <0>         0.1250
     45 H12         0.1626    5.2758   11.7656 H         1 <0>         0.1301
     46 H13        -0.2249    4.1881   13.1203 H         1 <0>         0.1049
     47 H14        -0.1857   -1.0458   13.3190 H         1 <0>         0.1119
     48 H15        -1.0251    0.5276   13.3369 H         1 <0>         0.0843
     49 H16        -2.5057   -1.4068   14.0099 H         1 <0>         0.1076
     50 H17        -3.1034   -0.5184   12.5874 H         1 <0>         0.0465
     51 H18        -2.1124   -3.0499   10.1822 H         1 <0>         0.1076
     52 H19        -2.8786   -1.4576   10.3996 H         1 <0>         0.0467
     53 H20        -0.6409   -1.1170    9.4992 H         1 <0>         0.1034
     54 H21         0.0684   -2.1330   10.7819 H         1 <0>         0.1075
     55 H22        -3.6507   -3.3200   13.4672 H         1 <0>         0.0925
     56 H23        -4.3362   -2.7111   11.9416 H         1 <0>         0.0553
     57 H24        -4.2233   -5.1548   11.8494 H         1 <0>         0.0565
     58 H25        -3.0370   -4.4741   10.7103 H         1 <0>         0.0456
     59 H26        -2.0752   -6.1719   12.0881 H         1 <0>         0.3821
     60 H27        -0.2297    1.8867   12.7033 H         1 <0>         0.4392
@<TRIPOS>BOND
     1    1    2 1
     2    1   34 1
     3    1   35 1
     4    1   36 1
     5    2    7 ar
     6    2    3 ar
     7    3    4 ar
     8    3   37 1
     9    4    5 ar
    10    4   38 1
    11    5    6 ar
    12    5   39 1
    13    6    7 ar
    14    6   33 1
    15    7    8 1
    16    8    9 am
    17    8   40 1
    18    9   10 2
    19    9   11 1
    20   11   15 1
    21   11   12 2
    22   12   13 1
    23   12   41 1
    24   13   14 2
    25   14   15 1
    26   14   16 1
    27   16   17 1
    28   16   42 1
    29   17   18 ar
    30   17   22 ar
    31   18   43 1
    32   18   19 ar
    33   19   24 1
    34   19   20 ar
    35   20   60 1
    36   20   21 ar
    37   21   23 1
    38   21   22 ar
    39   23   44 1
    40   23   45 1
    41   23   46 1
    42   24   29 1
    43   24   25 1
    44   25   26 1
    45   25   47 1
    46   25   48 1
    47   26   27 1
    48   26   49 1
    49   26   50 1
    50   27   28 1
    51   27   30 1
    52   28   29 1
    53   28   51 1
    54   28   52 1
    55   29   53 1
    56   29   54 1
    57   30   31 1
    58   30   55 1
    59   30   56 1
    60   31   32 1
    61   31   57 1
    62   31   58 1
    63   32   59 1
@<TRIPOS>MOLECULE
ZINC21982951
   59    62     0     0     0
SMALL
USER_CHARGES

@<TRIPOS>ATOM
      1 C1          3.4106    6.6420    1.8847 C.3       1 <0>        -0.1165
      2 C2          2.6976    7.9659    1.9845 C.ar      1 <0>        -0.0852
      3 C3          3.0204    8.9921    1.1176 C.ar      1 <0>        -0.1055
      4 C4          2.3672   10.2073    1.2080 C.ar      1 <0>        -0.1070
      5 C5          1.3885   10.4004    2.1660 C.ar      1 <0>        -0.1064
      6 C6          1.0609    9.3785    3.0365 C.ar      1 <0>        -0.0243
      7 C7          1.7118    8.1536    2.9438 C.ar      1 <0>         0.1460
      8 N1          1.3783    7.1144    3.8189 N.am      1 <0>        -0.6734
      9 C8          1.3676    7.3308    5.1492 C.2       1 <0>         0.6131
     10 O1          1.5489    8.4533    5.5848 O.2       1 <0>        -0.4899
     11 C9          1.1384    6.2176    6.0693 C.2       1 <0>        -0.3092
     12 C10         1.0807    6.2111    7.4561 C.2       1 <0>         0.1722
     13 N2          0.8573    5.0526    8.0233 N.2       1 <0>        -0.5180
     14 C11         0.6966    3.9535    7.3079 C.2       1 <0>         0.3121
     15 S1          0.8472    4.4907    5.7202 S.3       1 <0>         0.1340
     16 N3          0.4564    2.6698    7.7563 N.pl3     1 <0>        -0.5904
     17 C12         0.2490    2.4343    9.1091 C.ar      1 <0>         0.4412
     18 C13        -0.1036    1.1661    9.5586 C.ar      1 <0>        -0.3412
     19 C14        -0.3003    0.9817   10.9244 C.ar      1 <0>         0.4686
     20 N4         -0.1450    2.0186   11.7452 N.ar      1 <0>        -0.5923
     21 C15         0.1898    3.2050   11.2799 C.ar      1 <0>         0.3946
     22 N5          0.3901    3.4182    9.9956 N.ar      1 <0>        -0.5459
     23 C16         0.3546    4.3498   12.2460 C.3       1 <0>        -0.0834
     24 N6         -0.6531   -0.2629   11.4224 N.pl3     1 <0>        -0.5966
     25 C17        -1.0693   -0.4249   12.8237 C.3       1 <0>         0.1300
     26 C18        -2.3993   -1.1856   12.8517 C.3       1 <0>         0.0401
     27 N7         -2.2595   -2.4378   12.0965 N.3       1 <0>        -0.5276
     28 C19        -1.9688   -2.1765   10.6804 C.3       1 <0>         0.0363
     29 C20        -0.6270   -1.4554   10.5619 C.3       1 <0>         0.1269
     30 C21        -3.4565   -3.2768   12.2420 C.3       1 <0>         0.0537
     31 C22        -3.1814   -4.6636   11.6572 C.3       1 <0>         0.0792
     32 O2         -2.1684   -5.3132   12.4279 O.3       1 <0>        -0.5589
     33 Cl1        -0.1672    9.6214    4.2392 Cl        1 <0>        -0.0433
     34 H1          2.8725    5.9906    1.1961 H         1 <0>         0.0754
     35 H2          4.4240    6.8020    1.5166 H         1 <0>         0.0754
     36 H3          3.4510    6.1760    2.8692 H         1 <0>         0.0676
     37 H4          3.7844    8.8450    0.3685 H         1 <0>         0.1337
     38 H5          2.6220   11.0077    0.5292 H         1 <0>         0.1350
     39 H6          0.8801   11.3508    2.2339 H         1 <0>         0.1371
     40 H7          1.1547    6.2381    3.4683 H         1 <0>         0.4085
     41 H8          1.2132    7.1127    8.0357 H         1 <0>         0.1884
     42 H9          0.4325    1.9325    7.1264 H         1 <0>         0.4387
     43 H10        -0.2220    0.3459    8.8660 H         1 <0>         0.1413
     44 H11         1.3882    4.3890   12.5900 H         1 <0>         0.0870
     45 H12         0.1021    5.2855   11.7470 H         1 <0>         0.0890
     46 H13        -0.3072    4.2031   13.0995 H         1 <0>         0.0846
     47 H14        -0.3126   -0.9904   13.3674 H         1 <0>         0.0744
     48 H15        -1.1984    0.5551   13.2831 H         1 <0>         0.1008
     49 H16        -2.6676   -1.4113   13.8837 H         1 <0>         0.0903
     50 H17        -3.1785   -0.5727   12.3986 H         1 <0>         0.0372
     51 H18        -1.9249   -3.1208   10.1378 H         1 <0>         0.0905
     52 H19        -2.7540   -1.5497   10.2576 H         1 <0>         0.0380
     53 H20        -0.4638   -1.1563    9.5265 H         1 <0>         0.0877
     54 H21         0.1731   -2.1219   10.8840 H         1 <0>         0.0802
     55 H22        -3.7077   -3.3713   13.2985 H         1 <0>         0.0861
     56 H23        -4.2894   -2.8169   11.7102 H         1 <0>         0.0487
     57 H24        -4.0952   -5.2572   11.6843 H         1 <0>         0.0498
     58 H25        -2.8443   -4.5626   10.6256 H         1 <0>         0.0451
     59 H26        -1.9426   -6.1994   12.1134 H         1 <0>         0.3762
@<TRIPOS>BOND
     1    1    2 1
     2    1   34 1
     3    1   35 1
     4    1   36 1
     5    2    7 ar
     6    2    3 ar
     7    3    4 ar
     8    3   37 1
     9    4    5 ar
    10    4   38 1
    11    5    6 ar
    12    5   39 1
    13    6    7 ar
    14    6   33 1
    15    7    8 1
    16    8    9 am
    17    8   40 1
    18    9   10 2
    19    9   11 1
    20   11   15 1
    21   11   12 2
    22   12   13 1
    23   12   41 1
    24   13   14 2
    25   14   15 1
    26   14   16 1
    27   16   17 1
    28   16   42 1
    29   17   18 ar
    30   17   22 ar
    31   18   43 1
    32   18   19 ar
    33   19   24 1
    34   19   20 ar
    35   20   21 ar
    36   21   23 1
    37   21   22 ar
    38   23   44 1
    39   23   45 1
    40   23   46 1
    41   24   29 1
    42   24   25 1
    43   25   26 1
    44   25   47 1
    45   25   48 1
    46   26   27 1
    47   26   49 1
    48   26   50 1
    49   27   28 1
    50   27   30 1
    51   28   29 1
    52   28   51 1
    53   28   52 1
    54   29   53 1
    55   29   54 1
    56   30   31 1
    57   30   55 1
    58   30   56 1
    59   31   32 1
    60   31   57 1
    61   31   58 1
    62   32   59 1
@<TRIPOS>MOLECULE
ZINC21982951
   61    64     0     0     0
SMALL
USER_CHARGES

@<TRIPOS>ATOM
      1 C1          3.2770    6.6581    1.8427 C.3       1 <0>        -0.1166
      2 C2          2.5837    7.9904    1.9667 C.ar      1 <0>        -0.0814
      3 C3          2.9012    9.0183    1.0999 C.ar      1 <0>        -0.1028
      4 C4          2.2660   10.2411    1.2125 C.ar      1 <0>        -0.0975
      5 C5          1.3108   10.4402    2.1928 C.ar      1 <0>        -0.1039
      6 C6          0.9888    9.4167    3.0634 C.ar      1 <0>        -0.0218
      7 C7          1.6215    8.1842    2.9485 C.ar      1 <0>         0.1327
      8 N1          1.2933    7.1433    3.8237 N.am      1 <0>        -0.6648
      9 C8          1.3141    7.3507    5.1552 C.2       1 <0>         0.5983
     10 O1          1.5193    8.4677    5.5943 O.2       1 <0>        -0.4690
     11 C9          1.0903    6.2342    6.0727 C.2       1 <0>        -0.2500
     12 C10         1.0624    6.2188    7.4604 C.2       1 <0>         0.1439
     13 N2          0.8362    5.0594    8.0246 N.2       1 <0>        -0.4984
     14 C11         0.6458    3.9675    7.3056 C.2       1 <0>         0.2172
     15 S1          0.7692    4.5136    5.7185 S.3       1 <0>         0.2242
     16 N3          0.3986    2.6839    7.7506 N.pl3     1 <0>        -0.5513
     17 C12         0.2203    2.4413    9.1063 C.ar      1 <0>         0.5098
     18 C13        -0.1335    1.1734    9.5556 C.ar      1 <0>        -0.3097
     19 C14        -0.3003    0.9817   10.9244 C.ar      1 <0>         0.4927
     20 N4         -0.1163    2.0116   11.7481 N.ar      1 <0>        -0.5695
     21 C15         0.2187    3.1980   11.2828 C.ar      1 <0>         0.4589
     22 N5          0.3911    3.4178    9.9956 N.ar      1 <0>        -0.4762
     23 C16         0.4165    4.3348   12.2521 C.3       1 <0>        -0.1303
     24 N6         -0.6531   -0.2629   11.4224 N.pl3     1 <0>        -0.6123
     25 C17        -0.9643   -0.4465   12.8484 C.3       1 <0>         0.0782
     26 C18        -2.3027   -1.1838   12.9625 C.3       1 <0>        -0.0204
     27 N7         -2.2406   -2.4311   12.1903 N.4       1 <0>        -0.3852
     28 C19        -2.0770   -2.1279   10.7629 C.3       1 <0>        -0.0304
     29 C20        -0.7330   -1.4363   10.5388 C.3       1 <0>         0.0932
     30 C21        -3.4827   -3.1900   12.3886 C.3       1 <0>        -0.0061
     31 C22        -3.3702   -4.5448   11.6865 C.3       1 <0>         0.0434
     32 O2         -2.3479   -5.3224   12.3128 O.3       1 <0>        -0.5819
     33 Cl1        -0.2098    9.6671    4.2940 Cl        1 <0>        -0.0466
     34 H1          2.7157    6.0184    1.1617 H         1 <0>         0.0770
     35 H2          4.2843    6.8074    1.4538 H         1 <0>         0.0791
     36 H3          3.3325    6.1847    2.8230 H         1 <0>         0.0631
     37 H4          3.6468    8.8665    0.3335 H         1 <0>         0.1380
     38 H5          2.5166   11.0428    0.5336 H         1 <0>         0.1401
     39 H6          0.8165   11.3966    2.2780 H         1 <0>         0.1410
     40 H7          1.0508    6.2723    3.4722 H         1 <0>         0.4077
     41 H8          1.2191    7.1146    8.0429 H         1 <0>         0.2016
     42 H9          0.3494    1.9517    7.1163 H         1 <0>         0.4545
     43 H10        -0.2756    0.3590    8.8607 H         1 <0>         0.1860
     44 H11         1.4581    4.3621   12.5724 H         1 <0>         0.1309
     45 H12         0.1613    5.2760   11.7653 H         1 <0>         0.1358
     46 H13        -0.2267    4.1885   13.1199 H         1 <0>         0.1083
     47 H14        -0.1795   -1.0367   13.3215 H         1 <0>         0.1249
     48 H15        -1.0392    0.5259   13.3352 H         1 <0>         0.1232
     49 H16        -2.5028   -1.4138   14.0090 H         1 <0>         0.1602
     50 H17        -3.0999   -0.5526   12.5701 H         1 <0>         0.1410
     51 H18        -2.1110   -3.0537   10.1885 H         1 <0>         0.1585
     52 H19        -2.8811   -1.4682   10.4370 H         1 <0>         0.1418
     53 H20        -0.6550   -1.1179    9.4992 H         1 <0>         0.1416
     54 H21         0.0756   -2.1281   10.7747 H         1 <0>         0.1211
     55 H22        -3.6469   -3.3459   13.4548 H         1 <0>         0.1465
     56 H23        -4.3202   -2.6321   11.9697 H         1 <0>         0.1464
     57 H24        -4.3221   -5.0710   11.7578 H         1 <0>         0.1026
     58 H25        -3.1180   -4.3904   10.6374 H         1 <0>         0.0719
     59 H26        -2.2211   -6.1961   11.9183 H         1 <0>         0.4154
     60 H27        -0.2308    1.8869   12.7032 H         1 <0>         0.4393
     61 H28        -1.4578   -2.9831   12.5075 H         1 <0>         0.4359
@<TRIPOS>BOND
     1    1    2 1
     2    1   34 1
     3    1   35 1
     4    1   36 1
     5    2    7 ar
     6    2    3 ar
     7    3    4 ar
     8    3   37 1
     9    4    5 ar
    10    4   38 1
    11    5    6 ar
    12    5   39 1
    13    6    7 ar
    14    6   33 1
    15    7    8 1
    16    8    9 am
    17    8   40 1
    18    9   10 2
    19    9   11 1
    20   11   15 1
    21   11   12 2
    22   12   13 1
    23   12   41 1
    24   13   14 2
    25   14   15 1
    26   14   16 1
    27   16   17 1
    28   16   42 1
    29   17   18 ar
    30   17   22 ar
    31   18   43 1
    32   18   19 ar
    33   19   24 1
    34   19   20 ar
    35   20   60 1
    36   20   21 ar
    37   21   23 1
    38   21   22 ar
    39   23   44 1
    40   23   45 1
    41   23   46 1
    42   24   29 1
    43   24   25 1
    44   25   26 1
    45   25   47 1
    46   25   48 1
    47   26   27 1
    48   26   49 1
    49   26   50 1
    50   27   28 1
    51   27   30 1
    52   27   61 1
    53   28   29 1
    54   28   51 1
    55   28   52 1
    56   29   53 1
    57   29   54 1
    58   30   31 1
    59   30   55 1
    60   30   56 1
    61   31   32 1
    62   31   57 1
    63   31   58 1
    64   32   59 1
@<TRIPOS>MOLECULE
ZINC03874496
   29    30     0     0     0
SMALL
USER_CHARGES

@<TRIPOS>ATOM
      1 C1          0.0648    1.2424   -0.6206 C.ar      1 <0>        -0.0221
      2 C2          1.2502    1.9519   -0.6188 C.ar      1 <0>        -0.1227
      3 C3          2.3815    1.4095   -0.0244 C.ar      1 <0>         0.2190
      4 C4          2.3172    0.1532    0.5673 C.ar      1 <0>        -0.0788
      5 C5          1.1283   -0.5509    0.5618 C.ar      1 <0>        -0.0202
      6 C6          0.0037   -0.0068   -0.0315 C.ar      1 <0>        -0.0611
      7 N1         -1.2685   -0.7635   -0.0352 N.pl3     1 <0>         0.0361
      8 O1         -2.2526   -0.2891   -0.5531 O.2       1 <0>        -0.1507
      9 O2         -1.3236   -1.8560    0.4796 O.3       1 <0>        -0.1541
     10 Cl1         3.7288   -0.5303    1.3116 Cl        1 <0>        -0.0309
     11 N2          3.5835    2.1253   -0.0212 N.am      1 <0>        -0.6659
     12 C7          3.5675    3.4697   -0.1160 C.2       1 <0>         0.5690
     13 O3          2.5087    4.0676   -0.1029 O.2       1 <0>        -0.4815
     14 C8          4.8344    4.2157   -0.2357 C.ar      1 <0>        -0.1651
     15 C9          6.0529    3.5323   -0.2570 C.ar      1 <0>        -0.0601
     16 C10         7.2335    4.2358   -0.3691 C.ar      1 <0>        -0.0539
     17 C11         7.2169    5.6191   -0.4608 C.ar      1 <0>        -0.0563
     18 C12         6.0194    6.3058   -0.4409 C.ar      1 <0>        -0.1399
     19 C13         4.8223    5.6136   -0.3345 C.ar      1 <0>         0.1862
     20 O4          3.6447    6.2873   -0.3205 O.3       1 <0>        -0.4738
     21 Cl2         8.7470    3.3859   -0.3949 Cl        1 <0>        -0.0500
     22 H1         -0.8165    1.6661   -1.0791 H         1 <0>         0.1660
     23 H2          1.2969    2.9276   -1.0796 H         1 <0>         0.1789
     24 H3          1.0772   -1.5270    1.0212 H         1 <0>         0.1692
     25 H4          4.4284    1.6541    0.0492 H         1 <0>         0.4185
     26 H5          6.0700    2.4548   -0.1854 H         1 <0>         0.1395
     27 H6          8.1461    6.1626   -0.5479 H         1 <0>         0.1488
     28 H7          6.0146    7.3835   -0.5124 H         1 <0>         0.1525
     29 H8          3.3496    6.5452    0.5635 H         1 <0>         0.4032
@<TRIPOS>BOND
     1    1    6 ar
     2    1    2 ar
     3    1   22 1
     4    2    3 ar
     5    2   23 1
     6    3    4 ar
     7    3   11 1
     8    4    5 ar
     9    4   10 1
    10    5    6 ar
    11    5   24 1
    12    6    7 1
    13    7    8 2
    14    7    9 1
    15   11   12 am
    16   11   25 1
    17   12   13 2
    18   12   14 1
    19   14   19 ar
    20   14   15 ar
    21   15   16 ar
    22   15   26 1
    23   16   17 ar
    24   16   21 1
    25   17   18 ar
    26   17   27 1
    27   18   19 ar
    28   18   28 1
    29   19   20 1
    30   20   29 1
@<TRIPOS>MOLECULE
ZINC03814434
   62    69     0     0     0
SMALL
USER_CHARGES

@<TRIPOS>ATOM
      1 C1         -0.1295    1.5952   -0.2973 C.3       1 <0>        -0.1687
      2 C2         -0.0862    0.0696   -0.1900 C.3       1 <0>         0.3342
      3 C3          0.5692   -0.4501   -1.4637 C.3       1 <0>         0.0405
      4 H1          1.4796    0.1159   -1.6612 H         1 <0>         0.1372
      5 C4          0.9167   -1.9328   -1.2889 C.3       1 <0>        -0.0061
      6 H2          1.3963   -2.3075   -2.1932 H         1 <0>         0.1555
      7 C5          1.8785   -2.0596   -0.1021 C.3       1 <0>        -0.1827
      8 C6          1.2061   -1.5198    1.1541 C.3       1 <0>         0.2999
      9 H3          1.9797   -1.4243    1.9161 H         1 <0>         0.1550
     10 O1          0.6555   -0.2442    0.9666 O.3       1 <0>        -0.3234
     11 N1          0.2189   -2.4746    1.6600 N.pl3     1 <0>        -0.5366
     12 C7          0.4705   -3.5508    2.4739 C.ar      1 <0>         0.1469
     13 C8          1.6649   -4.0152    3.0240 C.ar      1 <0>        -0.1522
     14 C9          1.5948   -5.1456    3.8201 C.ar      1 <0>        -0.0582
     15 C10         0.4006   -5.7997    4.0696 C.ar      1 <0>        -0.1457
     16 C11        -0.7984   -5.3597    3.5358 C.ar      1 <0>        -0.0280
     17 C12        -0.7487   -4.2198    2.7307 C.ar      1 <0>        -0.1131
     18 C13        -1.7893   -3.4830    2.0197 C.ar      1 <0>         0.0276
     19 C14        -1.1442   -2.4197    1.3841 C.ar      1 <0>         0.0376
     20 C15        -1.8806   -1.5095    0.6175 C.ar      1 <0>         0.0894
     21 N2         -1.4718   -0.3951   -0.1095 N.pl3     1 <0>        -0.5183
     22 C16        -2.5611    0.1913   -0.7090 C.ar      1 <0>         0.1618
     23 C17        -2.6521    1.3277   -1.5118 C.ar      1 <0>        -0.1305
     24 C18        -3.9109    1.6745   -1.9733 C.ar      1 <0>        -0.0737
     25 C19        -5.0393    0.9368   -1.6616 C.ar      1 <0>        -0.1358
     26 C20        -4.9745   -0.1955   -0.8662 C.ar      1 <0>        -0.0503
     27 C21        -3.7147   -0.5596   -0.3919 C.ar      1 <0>        -0.1042
     28 C22        -3.2693   -1.6660    0.4845 C.ar      1 <0>        -0.0360
     29 C23        -3.9084   -2.7313    1.1102 C.ar      1 <0>        -0.0288
     30 C24        -3.1873   -3.6421    1.8754 C.ar      1 <0>        -0.1255
     31 C25        -4.1221   -4.6480    2.4030 C.2       1 <0>         0.5632
     32 O2         -3.8062   -5.5851    3.1110 O.2       1 <0>        -0.5106
     33 N3         -5.3744   -4.3851    1.9926 N.am      1 <0>        -0.7162
     34 C26        -5.3495   -3.1771    1.1601 C.3       1 <0>         0.1358
     35 N4         -0.3067   -2.7008   -1.0216 N.4       1 <0>        -0.5252
     36 C27         0.0145   -4.1336   -0.9773 C.3       1 <0>        -0.0497
     37 O3         -0.3340   -0.2979   -2.5607 O.3       1 <0>        -0.3614
     38 C28         0.3101   -0.0933   -3.8198 C.3       1 <0>         0.0162
     39 H4          0.8261    2.0094    0.0240 H         1 <0>         0.0984
     40 H5         -0.3202    1.8814   -1.3317 H         1 <0>         0.1036
     41 H6         -0.9255    1.9818    0.3392 H         1 <0>         0.0921
     42 H7          2.1370   -3.1081    0.0458 H         1 <0>         0.1233
     43 H8          2.7835   -1.4869   -0.3048 H         1 <0>         0.1455
     44 H9          2.6036   -3.5149    2.8368 H         1 <0>         0.1365
     45 H10         2.5026   -5.5304    4.2610 H         1 <0>         0.1359
     46 H11         0.4045   -6.6780    4.6980 H         1 <0>         0.1352
     47 H12        -1.7278   -5.8736    3.7323 H         1 <0>         0.1600
     48 H13        -1.7792    1.9122   -1.7624 H         1 <0>         0.1440
     49 H14        -4.0153    2.5500   -2.5970 H         1 <0>         0.1336
     50 H15        -5.9967    1.2527   -2.0488 H         1 <0>         0.1332
     51 H16        -5.8575   -0.7687   -0.6249 H         1 <0>         0.1415
     52 H17        -6.1628   -4.9065    2.2103 H         1 <0>         0.4348
     53 H18        -5.9671   -2.3994    1.6094 H         1 <0>         0.1115
     54 H19        -5.7060   -3.4063    0.1559 H         1 <0>         0.1103
     55 H20        -0.6958   -2.4158   -0.1353 H         1 <0>         0.4186
     56 H21         0.4349   -4.4415   -1.9347 H         1 <0>         0.1256
     57 H22         0.7403   -4.3189   -0.1854 H         1 <0>         0.1191
     58 H23        -0.8932   -4.7035   -0.7789 H         1 <0>         0.1256
     59 H24         0.9168    0.8112   -3.7748 H         1 <0>         0.0633
     60 H25         0.9482   -0.9479   -4.0446 H         1 <0>         0.0514
     61 H26        -0.4433    0.0130   -4.6003 H         1 <0>         0.1100
     62 H27        -0.9785   -2.5293   -1.7546 H         1 <0>         0.4274
@<TRIPOS>BOND
     1    1    2 1
     2    1   39 1
     3    1   40 1
     4    1   41 1
     5    2   10 1
     6    2   21 1
     7    2    3 1
     8    3    4 1
     9    3    5 1
    10    3   37 1
    11    5    6 1
    12    5    7 1
    13    5   35 1
    14    7    8 1
    15    7   42 1
    16    7   43 1
    17    8    9 1
    18    8   10 1
    19    8   11 1
    20   11   19 1
    21   11   12 1
    22   12   17 ar
    23   12   13 ar
    24   13   14 ar
    25   13   44 1
    26   14   15 ar
    27   14   45 1
    28   15   16 ar
    29   15   46 1
    30   16   17 ar
    31   16   47 1
    32   17   18 1
    33   18   30 ar
    34   18   19 ar
    35   19   20 ar
    36   20   28 ar
    37   20   21 1
    38   21   22 1
    39   22   27 ar
    40   22   23 ar
    41   23   24 ar
    42   23   48 1
    43   24   25 ar
    44   24   49 1
    45   25   26 ar
    46   25   50 1
    47   26   27 ar
    48   26   51 1
    49   27   28 1
    50   28   29 ar
    51   29   34 1
    52   29   30 ar
    53   30   31 1
    54   31   32 2
    55   31   33 am
    56   33   34 1
    57   33   52 1
    58   34   53 1
    59   34   54 1
    60   35   36 1
    61   35   55 1
    62   35   62 1
    63   36   56 1
    64   36   57 1
    65   36   58 1
    66   37   38 1
    67   38   59 1
    68   38   60 1
    69   38   61 1
@<TRIPOS>MOLECULE
ZINC66103171
   63    67     0     0     0
SMALL
USER_CHARGES

@<TRIPOS>ATOM
      1 C1          0.8415   -0.7219    1.0870 C.3       1 <0>        -0.1831
      2 C2          0.0143   -0.0202    0.0080 C.3       1 <0>         0.1131
      3 C3          0.7045   -0.1798   -1.3481 C.3       1 <0>        -0.1657
      4 C4         -1.3595   -0.6367   -0.0520 C.2       1 <0>         0.5368
      5 O1         -1.6488   -1.3862   -0.9605 O.2       1 <0>        -0.5277
      6 N1         -2.2668   -0.3551    0.9041 N.am      1 <0>        -0.5996
      7 C5         -1.8952    0.4554    2.0724 C.3       1 <0>         0.0826
      8 C6         -2.8554    1.6477    2.1670 C.3       1 <0>         0.1071
      9 N2         -4.2340    1.1500    2.0597 N.pl3     1 <0>        -0.6197
     10 C7         -4.6056    0.3395    0.8915 C.3       1 <0>         0.1045
     11 C8         -3.6469   -0.8481    0.7941 C.3       1 <0>         0.0951
     12 C9         -5.1743    1.4419    3.0507 C.ar      1 <0>         0.2546
     13 C10        -4.8474    2.3128    4.0847 C.ar      1 <0>        -0.1930
     14 C11        -5.7740    2.6048    5.0682 C.ar      1 <0>        -0.0180
     15 C12        -7.0299    2.0346    5.0309 C.ar      1 <0>        -0.2243
     16 C13        -7.3689    1.1587    3.9963 C.ar      1 <0>         0.0750
     17 C14        -6.4347    0.8681    3.0004 C.ar      1 <0>        -0.1701
     18 C15        -8.7127    0.5467    3.9536 C.2       1 <0>        -0.1137
     19 C16        -9.0431   -0.7630    4.2761 C.2       1 <0>         0.0127
     20 C17       -10.5080   -0.8777    4.0708 C.2       1 <0>         0.5539
     21 O2        -11.1740   -1.8769    4.2502 O.2       1 <0>        -0.4390
     22 N3        -10.9731    0.3122    3.6533 N.am      1 <0>        -0.6874
     23 C18        -9.9731    1.2052    3.5662 C.2       1 <0>         0.5615
     24 O3        -10.0883    2.3647    3.2210 O.2       1 <0>        -0.4346
     25 C19        -8.1287   -1.8194    4.7279 C.2       1 <0>        -0.1566
     26 C20        -7.5690   -1.9421    5.9700 C.2       1 <0>         0.1116
     27 N4         -6.7799   -3.0454    6.0085 N.pl3     1 <0>        -0.5806
     28 H1         -6.2779   -3.3400    6.7844 H         1 <0>         0.4218
     29 C21        -6.7932   -3.6895    4.7878 C.ar      1 <0>         0.0924
     30 C22        -7.6378   -2.9608    3.9343 C.ar      1 <0>        -0.0700
     31 C23        -7.8452   -3.3881    2.6254 C.ar      1 <0>        -0.0765
     32 C24        -7.2206   -4.5307    2.1736 C.ar      1 <0>        -0.1338
     33 C25        -6.3890   -5.2533    3.0161 C.ar      1 <0>        -0.0986
     34 C26        -6.1685   -4.8370    4.3117 C.ar      1 <0>        -0.1228
     35 C27        -8.0358    2.3562    6.1060 C.3       1 <0>         0.5081
     36 F1         -7.4690    3.2475    7.0233 F         1 <0>        -0.1771
     37 F2         -9.1673    2.9401    5.5265 F         1 <0>        -0.1702
     38 F3         -8.4048    1.1793    6.7664 F         1 <0>        -0.1828
     39 O4         -0.1002    1.3688    0.3236 O.3       1 <0>        -0.5492
     40 H2          1.8604   -0.3347    1.0729 H         1 <0>         0.0764
     41 H3          0.3959   -0.5365    2.0643 H         1 <0>         0.0717
     42 H4          0.8576   -1.7943    0.8925 H         1 <0>         0.0745
     43 H5          0.7145   -1.2330   -1.6290 H         1 <0>         0.0786
     44 H6          0.1624    0.3920   -2.1013 H         1 <0>         0.0695
     45 H7          1.7284    0.1878   -1.2802 H         1 <0>         0.0681
     46 H8         -1.9721   -0.1488    2.9763 H         1 <0>         0.0669
     47 H9         -0.8734    0.8169    1.9568 H         1 <0>         0.1252
     48 H10        -2.7213    2.1502    3.1250 H         1 <0>         0.0958
     49 H11        -2.6538    2.3451    1.3539 H         1 <0>         0.0785
     50 H12        -5.6274   -0.0220    1.0070 H         1 <0>         0.0978
     51 H13        -4.5287    0.9437   -0.0124 H         1 <0>         0.0737
     52 H14        -3.7816   -1.3472   -0.1655 H         1 <0>         0.1041
     53 H15        -3.8514   -1.5473    1.6049 H         1 <0>         0.0747
     54 H16        -3.8660    2.7623    4.1195 H         1 <0>         0.1376
     55 H17        -5.5137    3.2813    5.8689 H         1 <0>         0.1423
     56 H18        -6.6920    0.1950    2.1959 H         1 <0>         0.1370
     57 H19       -11.9021    0.5012    3.4479 H         1 <0>         0.4319
     58 H20        -7.7302   -1.2636    6.7946 H         1 <0>         0.1784
     59 H21        -8.4926   -2.8273    1.9676 H         1 <0>         0.1191
     60 H22        -7.3797   -4.8650    1.1590 H         1 <0>         0.1257
     61 H23        -5.9046   -6.1471    2.6517 H         1 <0>         0.1274
     62 H24        -5.5204   -5.4081    4.9600 H         1 <0>         0.1220
     63 H25         0.7475    1.8308    0.3787 H         1 <0>         0.3863
@<TRIPOS>BOND
     1    1    2 1
     2    1   40 1
     3    1   41 1
     4    1   42 1
     5    2    3 1
     6    2    4 1
     7    2   39 1
     8    3   43 1
     9    3   44 1
    10    3   45 1
    11    4    5 2
    12    4    6 am
    13    6   11 1
    14    6    7 1
    15    7    8 1
    16    7   46 1
    17    7   47 1
    18    8    9 1
    19    8   48 1
    20    8   49 1
    21    9   10 1
    22    9   12 1
    23   10   11 1
    24   10   50 1
    25   10   51 1
    26   11   52 1
    27   11   53 1
    28   12   17 ar
    29   12   13 ar
    30   13   14 ar
    31   13   54 1
    32   14   15 ar
    33   14   55 1
    34   15   16 ar
    35   15   35 1
    36   16   17 ar
    37   16   18 1
    38   17   56 1
    39   18   23 1
    40   18   19 2
    41   19   20 1
    42   19   25 1
    43   20   21 2
    44   20   22 am
    45   22   23 am
    46   22   57 1
    47   23   24 2
    48   25   30 1
    49   25   26 2
    50   26   27 1
    51   26   58 1
    52   27   28 1
    53   27   29 1
    54   29   34 ar
    55   29   30 ar
    56   30   31 ar
    57   31   32 ar
    58   31   59 1
    59   32   33 ar
    60   32   60 1
    61   33   34 ar
    62   33   61 1
    63   34   62 1
    64   35   36 1
    65   35   37 1
    66   35   38 1
    67   39   63 1
@<TRIPOS>MOLECULE
ZINC43205072
   42    44     0     0     0
SMALL
USER_CHARGES

@<TRIPOS>ATOM
      1 C1         -0.0184    1.5028    0.0103 C.3       1 <0>        -0.0953
      2 C2          0.0021   -0.0041    0.0020 C.2       1 <0>         0.0924
      3 C3          0.0079   -0.7942   -1.0955 C.2       1 <0>        -0.2730
      4 C4          0.0279   -2.1305   -0.6642 C.2       1 <0>         0.3093
      5 N1          0.0339   -2.1341    0.6482 N.2       1 <0>        -0.3234
      6 N2          0.0237   -0.8044    1.0886 N.pl3     1 <0>        -0.4671
      7 H1          0.0289   -0.5103    2.0129 H         1 <0>         0.4405
      8 N3          0.0396   -3.2613   -1.4899 N.pl3     1 <0>        -0.6075
      9 C5          0.0313   -3.1131   -2.8691 C.ar      1 <0>         0.4611
     10 C6          0.0373   -4.2477   -3.6820 C.ar      1 <0>        -0.0581
     11 C7          0.0291   -4.0983   -5.0539 C.ar      1 <0>         0.0260
     12 C8          0.0149   -2.7990   -5.5846 C.ar      1 <0>        -0.1764
     13 C9          0.0096   -1.7045   -4.7036 C.ar      1 <0>         0.4897
     14 N4          0.0125   -1.8968   -3.3943 N.ar      1 <0>        -0.5532
     15 N5         -0.0044   -0.4153   -5.2090 N.pl3     1 <0>        -0.7012
     16 C10        -0.0100    0.7297   -4.2952 C.3       1 <0>         0.1874
     17 H2         -0.5928    0.4834   -3.4076 H         1 <0>         0.1091
     18 C11         1.4262    1.0627   -3.8860 C.3       1 <0>        -0.1636
     19 C12        -0.6245    1.9202   -4.9852 C.ar      1 <0>        -0.1078
     20 C13        -0.3447    2.1674   -6.3163 C.ar      1 <0>        -0.0853
     21 C14        -0.9080    3.2585   -6.9503 C.ar      1 <0>        -0.1471
     22 C15        -1.7530    4.1043   -6.2518 C.ar      1 <0>         0.1031
     23 C16        -2.0325    3.8557   -4.9187 C.ar      1 <0>        -0.1480
     24 C17        -1.4721    2.7610   -4.2883 C.ar      1 <0>        -0.0750
     25 F1         -2.3039    5.1715   -6.8705 F         1 <0>        -0.1368
     26 C18         0.0064   -2.5922   -7.0016 C.1       1 <0>         0.2607
     27 N6         -0.0003   -2.4281   -8.1256 N.1       1 <0>        -0.4159
     28 F2          0.0515   -5.4810   -3.1308 F         1 <0>        -0.1290
     29 H3          1.0042    1.8801    0.0026 H         1 <0>         0.0832
     30 H4         -0.5455    1.8639   -0.8728 H         1 <0>         0.0861
     31 H5         -0.5286    1.8543    0.9071 H         1 <0>         0.0729
     32 H6         -0.0017   -0.4573   -2.1216 H         1 <0>         0.1871
     33 H7          0.0534   -4.1483   -1.0975 H         1 <0>         0.4320
     34 H8          0.0339   -4.9609   -5.7038 H         1 <0>         0.1609
     35 H9         -0.0105   -0.2704   -6.1681 H         1 <0>         0.4125
     36 H10         1.8707    0.2017   -3.3869 H         1 <0>         0.0722
     37 H11         2.0090    1.3090   -4.7735 H         1 <0>         0.0606
     38 H12         1.4220    1.9146   -3.2060 H         1 <0>         0.0724
     39 H13         0.3147    1.5078   -6.8608 H         1 <0>         0.1287
     40 H14        -0.6890    3.4517   -7.9901 H         1 <0>         0.1384
     41 H15        -2.6911    4.5149   -4.3728 H         1 <0>         0.1397
     42 H16        -1.6936    2.5644   -3.2496 H         1 <0>         0.1374
@<TRIPOS>BOND
     1    1    2 1
     2    1   29 1
     3    1   30 1
     4    1   31 1
     5    2    6 1
     6    2    3 2
     7    3    4 1
     8    3   32 1
     9    4    5 2
    10    4    8 1
    11    5    6 1
    12    6    7 1
    13    8    9 1
    14    8   33 1
    15    9   14 ar
    16    9   10 ar
    17   10   11 ar
    18   10   28 1
    19   11   12 ar
    20   11   34 1
    21   12   13 ar
    22   12   26 1
    23   13   14 ar
    24   13   15 1
    25   15   16 1
    26   15   35 1
    27   16   17 1
    28   16   18 1
    29   16   19 1
    30   18   36 1
    31   18   37 1
    32   18   38 1
    33   19   24 ar
    34   19   20 ar
    35   20   21 ar
    36   20   39 1
    37   21   22 ar
    38   21   40 1
    39   22   23 ar
    40   22   25 1
    41   23   24 ar
    42   23   41 1
    43   24   42 1
    44   26   27 3
@<TRIPOS>MOLECULE
ZINC43207851
   41    44     0     0     0
SMALL
USER_CHARGES

@<TRIPOS>ATOM
      1 C1         -0.0177    1.4562    0.0100 C.2       1 <0>        -0.1718
      2 C2          1.2630    1.8627    0.0000 C.2       1 <0>         0.0562
      3 N1          2.0962    0.7748   -0.0138 N.pl3     1 <0>        -0.5731
      4 H1          3.0653    0.8164   -0.0225 H         1 <0>         0.4233
      5 C3          1.3605   -0.3787   -0.0130 C.ar      1 <0>         0.3199
      6 C4          0.0021   -0.0041    0.0020 C.ar      1 <0>        -0.2022
      7 C5         -0.9746   -1.0138    0.0052 C.ar      1 <0>         0.3164
      8 N2         -0.5697   -2.2831   -0.0061 N.ar      1 <0>        -0.5417
      9 C6          0.7143   -2.5871   -0.0199 C.ar      1 <0>         0.3224
     10 N3          1.6626   -1.6744   -0.0232 N.ar      1 <0>        -0.5408
     11 C7         -2.4158   -0.6764    0.0213 C.2       1 <0>        -0.2051
     12 C8         -3.0087    0.4202    0.6810 C.2       1 <0>         0.0821
     13 N4         -4.2951    0.3778    0.4601 N.2       1 <0>        -0.2825
     14 N5         -4.5741   -0.7356   -0.3413 N.pl3     1 <0>        -0.3609
     15 C9         -3.4151   -1.3673   -0.6056 C.2       1 <0>         0.1079
     16 C10        -5.8997   -1.1411   -0.8152 C.3       1 <0>         0.1727
     17 H2         -6.6614   -0.7566   -0.1369 H         1 <0>         0.1166
     18 C11        -5.9803   -2.6683   -0.8596 C.3       1 <0>        -0.0423
     19 C12        -5.8743   -3.2052    0.5069 C.1       1 <0>         0.1905
     20 N6         -5.7925   -3.6195    1.5615 N.1       1 <0>        -0.4070
     21 C13        -6.1343   -0.5771   -2.2180 C.3       1 <0>        -0.1029
     22 C14        -6.1264    0.9650   -2.1756 C.3       1 <0>        -0.1142
     23 C15        -7.2156    1.3787   -3.1962 C.3       1 <0>        -0.1262
     24 C16        -8.3123    0.3068   -2.9789 C.3       1 <0>        -0.1260
     25 C17        -7.5242   -0.9956   -2.7287 C.3       1 <0>        -0.1226
     26 H3         -0.8935    2.0880    0.0258 H         1 <0>         0.1554
     27 H4          1.5872    2.8929    0.0021 H         1 <0>         0.1838
     28 H5          0.9990   -3.6288   -0.0288 H         1 <0>         0.1996
     29 H6         -2.4897    1.1645    1.2667 H         1 <0>         0.1880
     30 H7         -3.2965   -2.2591   -1.2030 H         1 <0>         0.1805
     31 H8         -6.9330   -2.9694   -1.2954 H         1 <0>         0.1388
     32 H9         -5.1636   -3.0578   -1.4673 H         1 <0>         0.1199
     33 H10        -5.3626   -0.9366   -2.8986 H         1 <0>         0.0860
     34 H11        -6.3837    1.3206   -1.1779 H         1 <0>         0.0755
     35 H12        -5.1529    1.3499   -2.4795 H         1 <0>         0.0651
     36 H13        -7.5982    2.3741   -2.9706 H         1 <0>         0.0681
     37 H14        -6.8281    1.3341   -4.2140 H         1 <0>         0.0671
     38 H15        -8.9227    0.5560   -2.1109 H         1 <0>         0.0678
     39 H16        -8.9342    0.2113   -3.8690 H         1 <0>         0.0682
     40 H17        -7.4270   -1.5575   -3.6576 H         1 <0>         0.0756
     41 H18        -8.0316   -1.6005   -1.9772 H         1 <0>         0.0719
@<TRIPOS>BOND
     1    1    6 1
     2    1    2 2
     3    1   26 1
     4    2    3 1
     5    2   27 1
     6    3    4 1
     7    3    5 1
     8    5   10 ar
     9    5    6 ar
    10    6    7 ar
    11    7    8 ar
    12    7   11 1
    13    8    9 ar
    14    9   10 ar
    15    9   28 1
    16   11   15 2
    17   11   12 1
    18   12   13 2
    19   12   29 1
    20   13   14 1
    21   14   15 1
    22   14   16 1
    23   15   30 1
    24   16   17 1
    25   16   18 1
    26   16   21 1
    27   18   19 1
    28   18   31 1
    29   18   32 1
    30   19   20 3
    31   21   25 1
    32   21   22 1
    33   21   33 1
    34   22   23 1
    35   22   34 1
    36   22   35 1
    37   23   24 1
    38   23   36 1
    39   23   37 1
    40   24   25 1
    41   24   38 1
    42   24   39 1
    43   25   40 1
    44   25   41 1
@<TRIPOS>MOLECULE
ZINC34842284
   60    64     0     0     0
SMALL
USER_CHARGES

@<TRIPOS>ATOM
      1 C1         -0.0178    1.4608    0.0101 C.3       1 <0>         0.0965
      2 N1          0.0021   -0.0041    0.0020 N.pl3     1 <0>        -0.3671
      3 C2          0.0078   -0.7883   -1.0945 C.2       1 <0>         0.0815
      4 C3          0.0278   -2.0866   -0.6734 C.2       1 <0>        -0.2075
      5 C4          0.0343   -2.0758    0.7354 C.2       1 <0>         0.0682
      6 N2          0.0245   -0.8308    1.1317 N.2       1 <0>        -0.2890
      7 C5          0.0397   -3.2901   -1.5414 C.ar      1 <0>        -0.0366
      8 C6          0.0543   -4.5644   -0.9807 C.ar      1 <0>        -0.0385
      9 C7          0.0802   -5.6649   -1.8426 C.ar      1 <0>        -0.1799
     10 C8          0.1229   -5.4562   -3.2387 C.ar      1 <0>         0.1790
     11 C9          0.2532   -6.5705   -4.1609 C.2       1 <0>        -0.0928
     12 C10        -0.3414   -7.7510   -4.0859 C.2       1 <0>        -0.0827
     13 C11        -1.2649   -8.2108   -3.0641 C.ar      1 <0>        -0.0205
     14 C12        -2.3865   -8.9737   -3.4314 C.ar      1 <0>        -0.0788
     15 C13        -3.2359   -9.4502   -2.4792 C.ar      1 <0>        -0.1379
     16 C14        -3.0081   -9.1944   -1.1257 C.ar      1 <0>         0.1494
     17 C15        -1.9219   -8.4304   -0.7344 C.ar      1 <0>        -0.0939
     18 C16        -1.0553   -7.9152   -1.6995 C.ar      1 <0>        -0.1193
     19 C17         0.0500   -7.0298   -1.2992 C.2       1 <0>         0.4578
     20 O1          0.9175   -7.4185   -0.5376 O.2       1 <0>        -0.4210
     21 N3         -3.8773   -9.7097   -0.1653 N.pl3     1 <0>        -1.0655
     22 S1         -4.3812  -11.2840   -0.2641 S.o2      1 <0>         2.7793
     23 O2         -5.2247  -11.5116    0.8566 O.2       1 <0>        -0.9610
     24 O3         -4.8189  -11.4872   -1.6007 O.2       1 <0>        -0.9643
     25 N4         -3.0455  -12.2399   -0.0531 N.pl3     1 <0>        -0.9947
     26 C18        -2.6613  -12.6751    1.2920 C.3       1 <0>         0.0938
     27 C19        -2.2480  -12.6502   -1.2115 C.3       1 <0>         0.1210
     28 C20        -1.0763  -11.6831   -1.3923 C.3       1 <0>         0.0178
     29 H1         -1.4536  -10.6631   -1.4645 H         1 <0>         0.0816
     30 C21        -0.3126  -12.0380   -2.6715 C.3       1 <0>         0.0320
     31 O4          0.8442  -11.2023   -2.7746 O.3       1 <0>        -0.3693
     32 C22         1.7288  -11.3082   -1.6551 C.3       1 <0>         0.0253
     33 C23         0.9651  -10.9534   -0.3760 C.3       1 <0>         0.0211
     34 O5         -0.1924  -11.7879   -0.2721 O.3       1 <0>        -0.3671
     35 N5          0.0651   -4.2087   -3.7198 N.ar      1 <0>        -0.4628
     36 C24         0.0305   -3.1599   -2.9350 C.ar      1 <0>         0.1258
     37 H2          1.0048    1.8381    0.0023 H         1 <0>         0.0802
     38 H3         -0.5450    1.8219   -0.8730 H         1 <0>         0.0921
     39 H4         -0.5280    1.8123    0.9069 H         1 <0>         0.0936
     40 H5         -0.0021   -0.4506   -2.1203 H         1 <0>         0.1820
     41 H6          0.0494   -2.9451    1.3761 H         1 <0>         0.1866
     42 H7          0.0463   -4.6991    0.0909 H         1 <0>         0.1426
     43 H8          0.9100   -6.4187   -5.0047 H         1 <0>         0.1374
     44 H9         -0.1138   -8.4521   -4.8752 H         1 <0>         0.1386
     45 H10        -2.5760   -9.1830   -4.4738 H         1 <0>         0.1447
     46 H11        -4.0961  -10.0325   -2.7747 H         1 <0>         0.1659
     47 H12        -1.7458   -8.2343    0.3129 H         1 <0>         0.1371
     48 H13        -4.1869   -9.1460    0.5609 H         1 <0>         0.4277
     49 H14        -3.1500  -13.6222    1.5208 H         1 <0>         0.0607
     50 H15        -1.5799  -12.8040    1.3372 H         1 <0>         0.0884
     51 H16        -2.9683  -11.9229    2.0187 H         1 <0>         0.0679
     52 H17        -1.8656  -13.6582   -1.0506 H         1 <0>         0.0981
     53 H18        -2.8717  -12.6365   -2.1052 H         1 <0>         0.1107
     54 H19        -0.0048  -13.0830   -2.6340 H         1 <0>         0.0632
     55 H20        -0.9562  -11.8775   -3.5364 H         1 <0>         0.1055
     56 H21         2.1052  -12.3286   -1.5835 H         1 <0>         0.0597
     57 H22         2.5636  -10.6192   -1.7840 H         1 <0>         0.1035
     58 H23         1.6087  -11.1138    0.4889 H         1 <0>         0.1029
     59 H24         0.6574   -9.9084   -0.4134 H         1 <0>         0.0696
     60 H25        -0.0017   -2.1732   -3.3730 H         1 <0>         0.1615
@<TRIPOS>BOND
     1    1    2 1
     2    1   37 1
     3    1   38 1
     4    1   39 1
     5    2    6 1
     6    2    3 1
     7    3    4 2
     8    3   40 1
     9    4    5 1
    10    4    7 1
    11    5    6 2
    12    5   41 1
    13    7   36 ar
    14    7    8 ar
    15    8    9 ar
    16    8   42 1
    17    9   19 1
    18    9   10 ar
    19   10   11 1
    20   10   35 ar
    21   11   12 2
    22   11   43 1
    23   12   13 1
    24   12   44 1
    25   13   18 ar
    26   13   14 ar
    27   14   15 ar
    28   14   45 1
    29   15   16 ar
    30   15   46 1
    31   16   17 ar
    32   16   21 1
    33   17   18 ar
    34   17   47 1
    35   18   19 1
    36   19   20 2
    37   21   22 1
    38   21   48 1
    39   22   23 2
    40   22   24 2
    41   22   25 1
    42   25   26 1
    43   25   27 1
    44   26   49 1
    45   26   50 1
    46   26   51 1
    47   27   28 1
    48   27   52 1
    49   27   53 1
    50   28   29 1
    51   28   34 1
    52   28   30 1
    53   30   31 1
    54   30   54 1
    55   30   55 1
    56   31   32 1
    57   32   33 1
    58   32   56 1
    59   32   57 1
    60   33   34 1
    61   33   58 1
    62   33   59 1
    63   35   36 ar
    64   36   60 1
@<TRIPOS>MOLECULE
ZINC34842284
   59    63     0     0     0
SMALL
USER_CHARGES

@<TRIPOS>ATOM
      1 C1         -0.0178    1.4608    0.0101 C.3       1 <0>         0.1007
      2 N1          0.0021   -0.0041    0.0020 N.pl3     1 <0>        -0.3736
      3 C2          0.0078   -0.7883   -1.0945 C.2       1 <0>         0.0703
      4 C3          0.0278   -2.0866   -0.6734 C.2       1 <0>        -0.1902
      5 C4          0.0343   -2.0758    0.7354 C.2       1 <0>         0.0673
      6 N2          0.0245   -0.8308    1.1317 N.2       1 <0>        -0.2943
      7 C5          0.0397   -3.2901   -1.5414 C.ar      1 <0>        -0.0608
      8 C6          0.0543   -4.5644   -0.9807 C.ar      1 <0>        -0.0333
      9 C7          0.0802   -5.6649   -1.8426 C.ar      1 <0>        -0.1792
     10 C8          0.1229   -5.4562   -3.2387 C.ar      1 <0>         0.2045
     11 C9          0.2532   -6.5705   -4.1609 C.2       1 <0>        -0.1592
     12 C10        -0.3414   -7.7510   -4.0859 C.2       1 <0>        -0.0231
     13 C11        -1.2649   -8.2108   -3.0641 C.ar      1 <0>        -0.1647
     14 C12        -2.3865   -8.9737   -3.4314 C.ar      1 <0>        -0.0353
     15 C13        -3.2359   -9.4502   -2.4792 C.ar      1 <0>        -0.2465
     16 C14        -3.0081   -9.1944   -1.1257 C.ar      1 <0>         0.3005
     17 C15        -1.9219   -8.4304   -0.7344 C.ar      1 <0>        -0.1500
     18 C16        -1.0553   -7.9152   -1.6995 C.ar      1 <0>        -0.0837
     19 C17         0.0500   -7.0298   -1.2992 C.2       1 <0>         0.4609
     20 O1          0.9175   -7.4185   -0.5376 O.2       1 <0>        -0.4397
     21 N3         -3.8773   -9.7097   -0.1653 N.2       1 <0>        -1.0971
     22 S1         -5.1776  -10.6235   -0.6305 S.o2      1 <0>         2.7153
     23 O2         -6.0456   -9.7582   -1.3496 O.2       1 <0>        -1.0429
     24 O3         -4.6537  -11.8178   -1.1947 O.2       1 <0>        -1.0457
     25 N4         -5.9839  -11.0648    0.7470 N.pl3     1 <0>        -0.9885
     26 C18        -7.0496  -10.2109    1.2774 C.3       1 <0>         0.1091
     27 C19        -5.6314  -12.3092    1.4352 C.3       1 <0>         0.1365
     28 C20        -4.6323  -12.0078    2.5540 C.3       1 <0>         0.0329
     29 H1         -3.7717  -11.4810    2.1417 H         1 <0>         0.0873
     30 C21        -4.1704  -13.3198    3.1948 C.3       1 <0>         0.0320
     31 O4         -3.3244  -13.0250    4.3103 O.3       1 <0>        -0.3784
     32 C22        -3.9524  -12.2119    5.3061 C.3       1 <0>         0.0246
     33 C23        -4.4143  -10.8999    4.6653 C.3       1 <0>         0.0237
     34 O5         -5.2598  -11.1934    3.5490 O.3       1 <0>        -0.3667
     35 N5          0.0651   -4.2087   -3.7198 N.ar      1 <0>        -0.4751
     36 C24         0.0305   -3.1599   -2.9350 C.ar      1 <0>         0.1218
     37 H2          1.0048    1.8381    0.0023 H         1 <0>         0.0758
     38 H3         -0.5450    1.8219   -0.8730 H         1 <0>         0.0888
     39 H4         -0.5280    1.8123    0.9069 H         1 <0>         0.0902
     40 H5         -0.0021   -0.4506   -2.1203 H         1 <0>         0.1795
     41 H6          0.0494   -2.9451    1.3761 H         1 <0>         0.1876
     42 H7          0.0463   -4.6991    0.0909 H         1 <0>         0.1396
     43 H8          0.9100   -6.4187   -5.0047 H         1 <0>         0.1239
     44 H9         -0.1138   -8.4521   -4.8752 H         1 <0>         0.1183
     45 H10        -2.5760   -9.1830   -4.4738 H         1 <0>         0.1151
     46 H11        -4.0961  -10.0325   -2.7747 H         1 <0>         0.1021
     47 H12        -1.7458   -8.2343    0.3129 H         1 <0>         0.1215
     48 H13        -8.0037  -10.5080    0.8422 H         1 <0>         0.0404
     49 H14        -7.0955  -10.3181    2.3611 H         1 <0>         0.0728
     50 H15        -6.8424   -9.1713    1.0236 H         1 <0>         0.0649
     51 H16        -6.5299  -12.7559    1.8610 H         1 <0>         0.0781
     52 H17        -5.1826  -13.0029    0.7243 H         1 <0>         0.1032
     53 H18        -5.0384  -13.8845    3.5350 H         1 <0>         0.0590
     54 H19        -3.6164  -13.9075    2.4628 H         1 <0>         0.1068
     55 H20        -4.8131  -12.7393    5.7173 H         1 <0>         0.0563
     56 H21        -3.2406  -11.9973    6.1031 H         1 <0>         0.1003
     57 H22        -4.9682  -10.3122    5.3973 H         1 <0>         0.0994
     58 H23        -3.5462  -10.3353    4.3251 H         1 <0>         0.0629
     59 H24        -0.0017   -2.1732   -3.3730 H         1 <0>         0.1540
@<TRIPOS>BOND
     1    1    2 1
     2    1   37 1
     3    1   38 1
     4    1   39 1
     5    2    6 1
     6    2    3 1
     7    3    4 2
     8    3   40 1
     9    4    5 1
    10    4    7 1
    11    5    6 2
    12    5   41 1
    13    7   36 ar
    14    7    8 ar
    15    8    9 ar
    16    8   42 1
    17    9   19 1
    18    9   10 ar
    19   10   11 1
    20   10   35 ar
    21   11   12 2
    22   11   43 1
    23   12   13 1
    24   12   44 1
    25   13   18 ar
    26   13   14 ar
    27   14   15 ar
    28   14   45 1
    29   15   16 ar
    30   15   46 1
    31   16   17 ar
    32   16   21 1
    33   17   18 ar
    34   17   47 1
    35   18   19 1
    36   19   20 2
    37   21   22 1
    38   22   23 2
    39   22   24 2
    40   22   25 1
    41   25   26 1
    42   25   27 1
    43   26   48 1
    44   26   49 1
    45   26   50 1
    46   27   28 1
    47   27   51 1
    48   27   52 1
    49   28   29 1
    50   28   34 1
    51   28   30 1
    52   30   31 1
    53   30   53 1
    54   30   54 1
    55   31   32 1
    56   32   33 1
    57   32   55 1
    58   32   56 1
    59   33   34 1
    60   33   57 1
    61   33   58 1
    62   35   36 ar
    63   36   59 1
@<TRIPOS>MOLECULE
ZINC72105034
   70    73     0     0     0
SMALL
USER_CHARGES

@<TRIPOS>ATOM
      1 C1         -3.0465   -3.1127   14.8741 C.3       1 <0>        -0.1892
      2 C2         -3.2466   -2.2549   13.6230 C.3       1 <0>        -0.0108
      3 N1         -4.1264   -2.9600   12.6814 N.4       1 <0>        -0.3829
      4 C3         -3.4647   -4.1874   12.2214 C.3       1 <0>        -0.0274
      5 C4         -4.4254   -4.9810   11.3297 C.3       1 <0>         0.1010
      6 N2         -4.8919   -4.1005   10.2474 N.pl3     1 <0>        -0.6456
      7 C5         -5.4217   -2.7770   10.6103 C.3       1 <0>         0.1015
      8 C6         -4.4140   -2.0875   11.5359 C.3       1 <0>        -0.0220
      9 C7         -4.8337   -4.5106    8.9106 C.ar      1 <0>         0.1766
     10 C8         -4.2262   -5.7148    8.5795 C.ar      1 <0>        -0.1629
     11 C9         -4.1692   -6.1195    7.2606 C.ar      1 <0>        -0.0646
     12 C10        -4.7193   -5.3226    6.2653 C.ar      1 <0>         0.1310
     13 C11        -5.3268   -4.1185    6.5964 C.ar      1 <0>        -0.1041
     14 C12        -5.3885   -3.7162    7.9158 C.ar      1 <0>        -0.1629
     15 N3         -4.6611   -5.7330    4.9274 N.pl3     1 <0>        -0.6533
     16 C13        -4.7431   -7.0808    4.6114 C.ar      1 <0>         0.4484
     17 C14        -4.5642   -7.5111    3.2990 C.ar      1 <0>        -0.3232
     18 C15        -4.6563   -8.8727    3.0342 C.ar      1 <0>         0.4562
     19 N4         -4.9104   -9.7105    4.0371 N.ar      1 <0>        -0.5358
     20 C16        -5.0737   -9.2649    5.2660 C.ar      1 <0>         0.3663
     21 N5         -4.9887   -7.9832    5.5591 N.ar      1 <0>        -0.5884
     22 N6         -4.4859   -9.3527    1.7400 N.am      1 <0>        -0.5513
     23 C17        -4.0993   -8.4367    0.6640 C.3       1 <0>         0.0633
     24 C18        -4.6764  -10.6605    1.4758 C.2       1 <0>         0.6965
     25 O1         -4.9972  -11.4206    2.3688 O.2       1 <0>        -0.4771
     26 N7         -4.5113  -11.1256    0.2217 N.am      1 <0>        -0.6806
     27 C19        -4.5933  -12.5005   -0.0317 C.ar      1 <0>         0.2488
     28 C20        -3.5635  -13.1459   -0.7035 C.ar      1 <0>        -0.1156
     29 C21        -3.6457  -14.5077   -0.9540 C.ar      1 <0>         0.1985
     30 C22        -4.7561  -15.2246   -0.5342 C.ar      1 <0>        -0.2856
     31 C23        -5.7851  -14.5810    0.1368 C.ar      1 <0>         0.1981
     32 C24        -5.7020  -13.2205    0.3937 C.ar      1 <0>        -0.0913
     33 Cl1        -6.9867  -12.4166    1.2405 Cl        1 <0>        -0.0174
     34 O2         -6.8731  -15.2849    0.5478 O.3       1 <0>        -0.2934
     35 C25        -6.8895  -16.6834    0.2548 C.3       1 <0>         0.0217
     36 O3         -2.6377  -15.1397   -1.6116 O.3       1 <0>        -0.2949
     37 C26        -2.7887  -16.5430   -1.8355 C.3       1 <0>         0.0219
     38 Cl2        -2.1738  -12.2486   -1.2302 Cl        1 <0>        -0.0383
     39 H1         -2.3937   -2.5895   15.5727 H         1 <0>         0.1068
     40 H2         -4.0114   -3.2967   15.3466 H         1 <0>         0.0809
     41 H3         -2.5919   -4.0630   14.5941 H         1 <0>         0.0805
     42 H4         -3.7012   -1.3046   13.9030 H         1 <0>         0.1310
     43 H5         -2.2817   -2.0709   13.1505 H         1 <0>         0.1281
     44 H6         -2.5717   -3.9277   11.6528 H         1 <0>         0.1321
     45 H7         -3.1838   -4.7935   13.0827 H         1 <0>         0.1410
     46 H8         -3.9058   -5.8399   10.9049 H         1 <0>         0.1268
     47 H9         -5.2773   -5.3195   11.9194 H         1 <0>         0.0863
     48 H10        -5.5608   -2.1788    9.7098 H         1 <0>         0.1256
     49 H11        -6.3742   -2.8930   11.1273 H         1 <0>         0.0858
     50 H12        -4.8326   -1.1462   11.8921 H         1 <0>         0.1394
     51 H13        -3.4923   -1.8913   10.9881 H         1 <0>         0.1318
     52 H14        -3.7980   -6.3344    9.3535 H         1 <0>         0.1245
     53 H15        -3.6964   -7.0558    7.0031 H         1 <0>         0.1406
     54 H16        -5.7546   -3.4987    5.8223 H         1 <0>         0.1287
     55 H17        -5.8648   -2.7819    8.1738 H         1 <0>         0.1249
     56 H18        -4.5634   -5.0745    4.2219 H         1 <0>         0.4207
     57 H19        -4.3595   -6.8053    2.5076 H         1 <0>         0.1461
     58 H20        -5.2787   -9.9712    6.0569 H         1 <0>         0.2006
     59 H21        -3.0123   -8.3941    0.5961 H         1 <0>         0.0784
     60 H22        -4.5087   -8.7932   -0.2812 H         1 <0>         0.0834
     61 H23        -4.4893   -7.4413    0.8765 H         1 <0>         0.0916
     62 H24        -4.3356  -10.5081   -0.5055 H         1 <0>         0.4126
     63 H25        -4.8197  -16.2847   -0.7302 H         1 <0>         0.1546
     64 H26        -7.8108  -17.1238    0.6364 H         1 <0>         0.1096
     65 H27        -6.8368  -16.8293   -0.8241 H         1 <0>         0.0610
     66 H28        -6.0336  -17.1640    0.7287 H         1 <0>         0.0609
     67 H29        -3.6841  -16.7217   -2.4308 H         1 <0>         0.0613
     68 H30        -1.9165  -16.9218   -2.3683 H         1 <0>         0.1099
     69 H31        -2.8806  -17.0558   -0.8781 H         1 <0>         0.0610
     70 H32        -4.9899   -3.1998   13.1451 H         1 <0>         0.4221
@<TRIPOS>BOND
     1    1    2 1
     2    1   39 1
     3    1   40 1
     4    1   41 1
     5    2    3 1
     6    2   42 1
     7    2   43 1
     8    3    8 1
     9    3    4 1
    10    3   70 1
    11    4    5 1
    12    4   44 1
    13    4   45 1
    14    5    6 1
    15    5   46 1
    16    5   47 1
    17    6    7 1
    18    6    9 1
    19    7    8 1
    20    7   48 1
    21    7   49 1
    22    8   50 1
    23    8   51 1
    24    9   14 ar
    25    9   10 ar
    26   10   11 ar
    27   10   52 1
    28   11   12 ar
    29   11   53 1
    30   12   13 ar
    31   12   15 1
    32   13   14 ar
    33   13   54 1
    34   14   55 1
    35   15   16 1
    36   15   56 1
    37   16   21 ar
    38   16   17 ar
    39   17   18 ar
    40   17   57 1
    41   18   19 ar
    42   18   22 1
    43   19   20 ar
    44   20   21 ar
    45   20   58 1
    46   22   23 1
    47   22   24 am
    48   23   59 1
    49   23   60 1
    50   23   61 1
    51   24   25 2
    52   24   26 am
    53   26   27 1
    54   26   62 1
    55   27   32 ar
    56   27   28 ar
    57   28   29 ar
    58   28   38 1
    59   29   30 ar
    60   29   36 1
    61   30   31 ar
    62   30   63 1
    63   31   32 ar
    64   31   34 1
    65   32   33 1
    66   34   35 1
    67   35   64 1
    68   35   65 1
    69   35   66 1
    70   36   37 1
    71   37   67 1
    72   37   68 1
    73   37   69 1
@<TRIPOS>MOLECULE
ZINC72105034
   69    72     0     0     0
SMALL
USER_CHARGES

@<TRIPOS>ATOM
      1 C1         -3.4378   -3.9375   14.6684 C.3       1 <0>        -0.1502
      2 C2         -3.5006   -3.0159   13.4488 C.3       1 <0>         0.0503
      3 N1         -4.3406   -3.6313   12.4127 N.3       1 <0>        -0.5378
      4 C3         -3.7251   -4.8621   11.8984 C.3       1 <0>         0.0363
      5 C4         -4.7086   -5.5666   10.9578 C.3       1 <0>         0.1266
      6 N2         -5.1378   -4.6085    9.9278 N.pl3     1 <0>        -0.6321
      7 C5         -5.6391   -3.2963   10.3636 C.3       1 <0>         0.1276
      8 C6         -4.6190   -2.6811   11.3275 C.3       1 <0>         0.0396
      9 C7         -5.0714   -4.9369    8.5689 C.ar      1 <0>         0.2080
     10 C8         -4.4894   -6.1336    8.1714 C.ar      1 <0>        -0.1806
     11 C9         -4.4244   -6.4578    6.8309 C.ar      1 <0>        -0.0579
     12 C10        -4.9408   -5.5873    5.8801 C.ar      1 <0>         0.0956
     13 C11        -5.5227   -4.3907    6.2776 C.ar      1 <0>        -0.0967
     14 C12        -5.5926   -4.0689    7.6185 C.ar      1 <0>        -0.1814
     15 N3         -4.8743   -5.9160    4.5202 N.pl3     1 <0>        -0.6480
     16 C13        -4.9857   -7.2392    4.1204 C.ar      1 <0>         0.4532
     17 C14        -4.7996   -7.5924    2.7862 C.ar      1 <0>        -0.3285
     18 C15        -4.9221   -8.9324    2.4366 C.ar      1 <0>         0.4515
     19 N4         -5.2108   -9.8235    3.3827 N.ar      1 <0>        -0.5423
     20 C16        -5.3796   -9.4503    4.6347 C.ar      1 <0>         0.3655
     21 N5         -5.2667   -8.1917    5.0075 N.ar      1 <0>        -0.5828
     22 N6         -4.7461   -9.3361    1.1173 N.am      1 <0>        -0.5515
     23 C17        -4.3221   -8.3659    0.1048 C.3       1 <0>         0.0649
     24 C18        -4.9656  -10.6198    0.7705 C.2       1 <0>         0.6963
     25 O1         -5.3174  -11.4249    1.6108 O.2       1 <0>        -0.4774
     26 N7         -4.7950  -11.0110   -0.5080 N.am      1 <0>        -0.6824
     27 C19        -4.9079  -12.3651   -0.8468 C.ar      1 <0>         0.2515
     28 C20        -3.8855  -12.9943   -1.5448 C.ar      1 <0>        -0.1156
     29 C21        -3.9983  -14.3355   -1.8800 C.ar      1 <0>         0.1969
     30 C22        -5.1319  -15.0480   -1.5188 C.ar      1 <0>        -0.2867
     31 C23        -6.1535  -14.4206   -0.8218 C.ar      1 <0>         0.1972
     32 C24        -6.0399  -13.0811   -0.4802 C.ar      1 <0>        -0.0912
     33 Cl1        -7.3156  -12.2980    0.3991 Cl        1 <0>        -0.0151
     34 O2         -7.2642  -15.1202   -0.4683 O.3       1 <0>        -0.2933
     35 C25        -7.3116  -16.4972   -0.8473 C.3       1 <0>         0.0224
     36 O3         -2.9975  -14.9516   -2.5633 O.3       1 <0>        -0.2955
     37 C26        -3.1804  -16.3341   -2.8753 C.3       1 <0>         0.0225
     38 Cl2        -2.4668  -12.1023   -1.9981 Cl        1 <0>        -0.0388
     39 H1         -2.8146   -3.4808   15.4373 H         1 <0>         0.0601
     40 H2         -4.4435   -4.0912   15.0599 H         1 <0>         0.0642
     41 H3         -3.0108   -4.8971   14.3771 H         1 <0>         0.0548
     42 H4         -3.9276   -2.0563   13.7401 H         1 <0>         0.0754
     43 H5         -2.4950   -2.8622   13.0574 H         1 <0>         0.0324
     44 H6         -2.8150   -4.6131   11.3528 H         1 <0>         0.0373
     45 H7         -3.4816   -5.5223   12.7308 H         1 <0>         0.0881
     46 H8         -4.2176   -6.4171   10.4850 H         1 <0>         0.0867
     47 H9         -5.5752   -5.9086   11.5236 H         1 <0>         0.0692
     48 H10        -5.7633   -2.6458    9.4978 H         1 <0>         0.0853
     49 H11        -6.5952   -3.4200   10.8723 H         1 <0>         0.0688
     50 H12        -5.0237   -1.7596   11.7460 H         1 <0>         0.0847
     51 H13        -3.6964   -2.4625   10.7899 H         1 <0>         0.0375
     52 H14        -4.0875   -6.8104    8.9108 H         1 <0>         0.1239
     53 H15        -3.9715   -7.3882    6.5217 H         1 <0>         0.1333
     54 H16        -5.9244   -3.7138    5.5381 H         1 <0>         0.1213
     55 H17        -6.0491   -3.1403    7.9278 H         1 <0>         0.1240
     56 H18        -4.7504   -5.2181    3.8580 H         1 <0>         0.4169
     57 H19        -4.5666   -6.8448    2.0425 H         1 <0>         0.1434
     58 H20        -5.6130  -10.1984    5.3779 H         1 <0>         0.1992
     59 H21        -3.2335   -8.3472    0.0528 H         1 <0>         0.0766
     60 H22        -4.7274   -8.6529   -0.8655 H         1 <0>         0.0808
     61 H23        -4.6901   -7.3757    0.3737 H         1 <0>         0.0918
     62 H24        -4.5941  -10.3546   -1.1933 H         1 <0>         0.4120
     63 H25        -5.2193  -16.0921   -1.7808 H         1 <0>         0.1535
     64 H26        -7.2478  -16.5777   -1.9325 H         1 <0>         0.0599
     65 H27        -6.4745  -17.0279   -0.3938 H         1 <0>         0.0605
     66 H28        -8.2486  -16.9363   -0.5049 H         1 <0>         0.1088
     67 H29        -3.2981  -16.9023   -1.9526 H         1 <0>         0.0606
     68 H30        -4.0718  -16.4527   -3.4913 H         1 <0>         0.0604
     69 H31        -2.3108  -16.7017   -3.4200 H         1 <0>         0.1087
@<TRIPOS>BOND
     1    1    2 1
     2    1   39 1
     3    1   40 1
     4    1   41 1
     5    2    3 1
     6    2   42 1
     7    2   43 1
     8    3    8 1
     9    3    4 1
    10    4    5 1
    11    4   44 1
    12    4   45 1
    13    5    6 1
    14    5   46 1
    15    5   47 1
    16    6    7 1
    17    6    9 1
    18    7    8 1
    19    7   48 1
    20    7   49 1
    21    8   50 1
    22    8   51 1
    23    9   14 ar
    24    9   10 ar
    25   10   11 ar
    26   10   52 1
    27   11   12 ar
    28   11   53 1
    29   12   13 ar
    30   12   15 1
    31   13   14 ar
    32   13   54 1
    33   14   55 1
    34   15   16 1
    35   15   56 1
    36   16   21 ar
    37   16   17 ar
    38   17   18 ar
    39   17   57 1
    40   18   19 ar
    41   18   22 1
    42   19   20 ar
    43   20   21 ar
    44   20   58 1
    45   22   23 1
    46   22   24 am
    47   23   59 1
    48   23   60 1
    49   23   61 1
    50   24   25 2
    51   24   26 am
    52   26   27 1
    53   26   62 1
    54   27   32 ar
    55   27   28 ar
    56   28   29 ar
    57   28   38 1
    58   29   30 ar
    59   29   36 1
    60   30   31 ar
    61   30   63 1
    62   31   32 ar
    63   31   34 1
    64   32   33 1
    65   34   35 1
    66   35   64 1
    67   35   65 1
    68   35   66 1
    69   36   37 1
    70   37   67 1
    71   37   68 1
    72   37   69 1
@<TRIPOS>MOLECULE
ZINC03938688
   39    41     0     0     0
SMALL
USER_CHARGES

@<TRIPOS>ATOM
      1 C1         -0.0095    1.3826    0.0704 C.ar      1 <0>        -0.0343
      2 C2          0.5587    1.0580   -1.1482 C.ar      1 <0>        -0.1609
      3 C3          1.7655    0.3862   -1.1955 C.ar      1 <0>         0.1753
      4 C4          2.4129    0.0342   -0.0053 C.ar      1 <0>        -0.1954
      5 C5          1.8304    0.3669    1.2233 C.ar      1 <0>         0.1741
      6 C6          0.6231    1.0388    1.2514 C.ar      1 <0>        -0.1610
      7 F1          2.4463    0.0317    2.3781 F         1 <0>        -0.1212
      8 C7          3.6999   -0.6827   -0.0456 C.2       1 <0>         0.6210
      9 O1          4.7383   -0.0615   -0.1600 O.2       1 <0>        -0.4669
     10 N1          3.7255   -2.0272    0.0446 N.am      1 <0>        -0.3962
     11 C8          4.8314   -2.8210    0.1249 C.2       1 <0>         0.5948
     12 N2          4.4249   -4.0694    0.1979 N.2       1 <0>        -0.5873
     13 C9          3.0869   -4.1118    0.1675 C.2       1 <0>         0.5191
     14 N3          2.6183   -2.8904    0.0808 N.2       1 <0>        -0.3480
     15 N4          2.3148   -5.2702    0.2247 N.pl3     1 <0>        -0.6226
     16 C10         2.9267   -6.5079    0.4407 C.ar      1 <0>         0.2365
     17 C11         4.1432   -6.5760    1.1080 C.ar      1 <0>        -0.1584
     18 C12         4.7450   -7.8008    1.3202 C.ar      1 <0>         0.0098
     19 C13         4.1379   -8.9586    0.8692 C.ar      1 <0>        -0.7033
     20 C14         2.9269   -8.8944    0.2046 C.ar      1 <0>         0.0112
     21 C15         2.3170   -7.6734   -0.0063 C.ar      1 <0>        -0.1777
     22 S1          4.9094  -10.5191    1.1415 S.o2      1 <0>         2.7034
     23 O2          4.4084  -11.3993    0.1448 O.2       1 <0>        -0.9656
     24 O3          6.2977  -10.2630    1.3036 O.2       1 <0>        -0.9650
     25 N5          4.3605  -11.0895    2.5960 N.pl3     1 <0>        -1.2510
     26 N6          6.1422   -2.3912    0.1281 N.pl3     1 <0>        -0.7911
     27 F2          2.3185    0.0697   -2.3868 F         1 <0>        -0.1201
     28 H1         -0.9506    1.9116    0.0998 H         1 <0>         0.1546
     29 H2          0.0576    1.3300   -2.0654 H         1 <0>         0.1549
     30 H3          0.1721    1.2963    2.1984 H         1 <0>         0.1546
     31 H4          1.3525   -5.2176    0.1147 H         1 <0>         0.4325
     32 H5          4.6180   -5.6722    1.4601 H         1 <0>         0.1556
     33 H6          5.6909   -7.8544    1.8385 H         1 <0>         0.1456
     34 H7          2.4556   -9.8005   -0.1466 H         1 <0>         0.1475
     35 H8          1.3691   -7.6243   -0.5215 H         1 <0>         0.1387
     36 H9          3.7284  -10.5673    3.1145 H         1 <0>         0.4165
     37 H10         4.6709  -11.9458    2.9296 H         1 <0>         0.4206
     38 H11         6.3422   -1.4439    0.0694 H         1 <0>         0.4292
     39 H12         6.8640   -3.0364    0.1890 H         1 <0>         0.4303
@<TRIPOS>BOND
     1    1    6 ar
     2    1    2 ar
     3    1   28 1
     4    2    3 ar
     5    2   29 1
     6    3    4 ar
     7    3   27 1
     8    4    5 ar
     9    4    8 1
    10    5    6 ar
    11    5    7 1
    12    6   30 1
    13    8    9 2
    14    8   10 am
    15   10   14 1
    16   10   11 1
    17   11   12 2
    18   11   26 1
    19   12   13 1
    20   13   14 2
    21   13   15 1
    22   15   16 1
    23   15   31 1
    24   16   21 ar
    25   16   17 ar
    26   17   18 ar
    27   17   32 1
    28   18   19 ar
    29   18   33 1
    30   19   20 ar
    31   19   22 1
    32   20   21 ar
    33   20   34 1
    34   21   35 1
    35   22   23 2
    36   22   24 2
    37   22   25 1
    38   25   36 1
    39   25   37 1
    40   26   38 1
    41   26   39 1
@<TRIPOS>MOLECULE
ZINC12504479
   39    42     0     0     0
SMALL
USER_CHARGES
tert-butyl-fluoro-BLAHone
@<TRIPOS>ATOM
      1 C1          0.0306    7.5665   -1.3573 C.3       1 <0>        -0.1435
      2 C2         -0.0131    6.9316    0.0341 C.3       1 <0>         0.0141
      3 C3         -1.4663    6.6486    0.4201 C.3       1 <0>        -0.1303
      4 C4          0.6075    7.8907    1.0520 C.3       1 <0>        -0.1484
      5 C5          0.7640    5.6405    0.0218 C.2       1 <0>         0.2640
      6 N1          2.1200    5.5432    0.0086 N.pl3     1 <0>        -0.5660
      7 H1          2.7692    6.3038    0.0059 H         1 <0>         0.4300
      8 C6          2.4322    4.2055   -0.0004 C.ar      1 <0>         0.0707
      9 C7          3.6945    3.4726   -0.0160 C.ar      1 <0>        -0.0387
     10 C8          4.9179    4.1553   -0.0241 C.ar      1 <0>        -0.0830
     11 C9          6.0889    3.4567   -0.0382 C.ar      1 <0>        -0.1479
     12 C10         6.0877    2.0644   -0.0451 C.ar      1 <0>         0.1067
     13 C11         4.9015    1.3651   -0.0371 C.ar      1 <0>        -0.1434
     14 C12         3.6874    2.0596   -0.0226 C.ar      1 <0>         0.0348
     15 C13         2.4115    1.3424   -0.0138 C.ar      1 <0>        -0.1820
     16 C14         1.2049    2.0599    0.0016 C.ar      1 <0>         0.1180
     17 C15         1.2195    3.5214    0.0080 C.ar      1 <0>         0.0317
     18 N2          0.2386    4.4495    0.0214 N.2       1 <0>        -0.4565
     19 C16        -0.0162    1.3425    0.0094 C.2       1 <0>        -0.2034
     20 C17         0.0021   -0.0041    0.0020 C.2       1 <0>         0.1350
     21 N3          1.1742   -0.7011   -0.0125 N.am      1 <0>        -0.6142
     22 H2          1.1491   -1.6708   -0.0168 H         1 <0>         0.4195
     23 C18         2.3662   -0.0731   -0.0205 C.2       1 <0>         0.5428
     24 O1          3.3998   -0.7196   -0.0338 O.2       1 <0>        -0.5363
     25 F1          7.2604    1.3938   -0.0600 F         1 <0>        -0.1343
     26 H3         -0.4115    6.8833   -2.0824 H         1 <0>         0.0650
     27 H4         -0.5315    8.5004   -1.3483 H         1 <0>         0.0730
     28 H5          1.0659    7.7682   -1.6323 H         1 <0>         0.0547
     29 H6         -1.4974    6.1963    1.4114 H         1 <0>         0.0620
     30 H7         -2.0283    7.5824    0.4291 H         1 <0>         0.0642
     31 H8         -1.9084    5.9653   -0.3050 H         1 <0>         0.0701
     32 H9          1.6428    8.0923    0.7770 H         1 <0>         0.0535
     33 H10         0.0454    8.8245    1.0609 H         1 <0>         0.0757
     34 H11         0.5764    7.4384    2.0432 H         1 <0>         0.0638
     35 H12         4.9335    5.2351   -0.0195 H         1 <0>         0.1298
     36 H13         7.0282    3.9897   -0.0443 H         1 <0>         0.1393
     37 H14         4.9085    0.2852   -0.0418 H         1 <0>         0.1812
     38 H15        -0.9571    1.8725    0.0168 H         1 <0>         0.1577
     39 H16        -0.9330   -0.5444    0.0080 H         1 <0>         0.1706
@<TRIPOS>BOND
     1    1    2 1
     2    1   26 1
     3    1   27 1
     4    1   28 1
     5    2    3 1
     6    2    4 1
     7    2    5 1
     8    3   29 1
     9    3   30 1
    10    3   31 1
    11    4   32 1
    12    4   33 1
    13    4   34 1
    14    5   18 2
    15    5    6 1
    16    6    7 1
    17    6    8 1
    18    8   17 ar
    19    8    9 ar
    20    9   14 ar
    21    9   10 ar
    22   10   11 ar
    23   10   35 1
    24   11   12 ar
    25   11   36 1
    26   12   13 ar
    27   12   25 1
    28   13   14 ar
    29   13   37 1
    30   14   15 ar
    31   15   23 1
    32   15   16 ar
    33   16   17 ar
    34   16   19 1
    35   17   18 1
    36   19   20 2
    37   19   38 1
    38   20   21 1
    39   20   39 1
    40   21   22 1
    41   21   23 am
    42   23   24 2
@<TRIPOS>MOLECULE
ZINC03818808
   43    45     0     0     0
SMALL
USER_CHARGES

@<TRIPOS>ATOM
      1 C1         -0.1632    1.4289   -0.0427 C.3       1 <0>        -0.1412
      2 C2         -0.0864   -0.0984    0.0043 C.3       1 <0>        -0.0993
      3 H1          0.4045   -0.4653   -0.8971 H         1 <0>         0.0854
      4 C3         -1.5005   -0.6778    0.0865 C.3       1 <0>        -0.1618
      5 C4         -1.4214   -2.2076    0.0985 C.3       1 <0>         0.0979
      6 N1         -0.5332   -2.6266    1.1913 N.am      1 <0>        -0.6084
      7 C5          0.8204   -2.0592    1.2586 C.3       1 <0>         0.1008
      8 C6          0.7158   -0.5310    1.2337 C.3       1 <0>         0.1392
      9 H2          1.7154   -0.0989    1.1864 H         1 <0>         0.1227
     10 N2          0.0389   -0.0672    2.4474 N.pl3     1 <0>        -0.5724
     11 C7         -1.3008   -0.5622    2.7736 C.3       1 <0>         0.0568
     12 C8          0.6646    0.8382    3.2852 C.ar      1 <0>         0.4913
     13 C9         -0.0139    1.3910    4.3823 C.ar      1 <0>        -0.2606
     14 C10        -1.3557    1.2550    4.9458 C.2       1 <0>        -0.1714
     15 C11        -1.4077    2.0560    6.0226 C.2       1 <0>         0.0373
     16 N3         -0.2038    2.6908    6.1878 N.pl3     1 <0>        -0.5701
     17 H3          0.0007    3.3193    6.8977 H         1 <0>         0.4217
     18 C12         0.6666    2.3073    5.2049 C.ar      1 <0>         0.3412
     19 N4          1.9288    2.6138    4.9083 N.ar      1 <0>        -0.5745
     20 C13         2.5254    2.0715    3.8692 C.ar      1 <0>         0.3621
     21 N5          1.9260    1.2026    3.0748 N.ar      1 <0>        -0.6016
     22 C14        -0.9523   -3.5144    2.1147 C.2       1 <0>         0.5178
     23 O1         -0.2095   -3.8523    3.0120 O.2       1 <0>        -0.5153
     24 C15        -2.3438   -4.0872    2.0324 C.3       1 <0>        -0.0460
     25 C16        -2.5552   -5.0247    3.1474 C.1       1 <0>         0.2103
     26 N6         -2.7185   -5.7482    4.0078 N.1       1 <0>        -0.4023
     27 H4          0.8439    1.8417   -0.1017 H         1 <0>         0.0576
     28 H5         -0.7342    1.7372   -0.9185 H         1 <0>         0.0554
     29 H6         -0.6541    1.7959    0.8587 H         1 <0>         0.0527
     30 H7         -1.9831   -0.3313    1.0004 H         1 <0>         0.0936
     31 H8         -2.0787   -0.3501   -0.7775 H         1 <0>         0.0813
     32 H9         -2.4164   -2.6237    0.2564 H         1 <0>         0.0917
     33 H10        -1.0222   -2.5603   -0.8525 H         1 <0>         0.0812
     34 H11         1.3045   -2.3773    2.1818 H         1 <0>         0.1011
     35 H12         1.4023   -2.3998    0.4022 H         1 <0>         0.0864
     36 H13        -1.4613   -1.5240    2.2863 H         1 <0>         0.0974
     37 H14        -1.3908   -0.6824    3.8532 H         1 <0>         0.0714
     38 H15        -2.0469    0.1513    2.4239 H         1 <0>         0.0596
     39 H16        -2.1522    0.6306    4.5687 H         1 <0>         0.1530
     40 H17        -2.2689    2.1817    6.6620 H         1 <0>         0.1790
     41 H18         3.5491    2.3441    3.6594 H         1 <0>         0.1974
     42 H19        -3.0733   -3.2796    2.0934 H         1 <0>         0.1393
     43 H20        -2.4641   -4.6148    1.0862 H         1 <0>         0.1422
@<TRIPOS>BOND
     1    1    2 1
     2    1   27 1
     3    1   28 1
     4    1   29 1
     5    2    3 1
     6    2    8 1
     7    2    4 1
     8    4    5 1
     9    4   30 1
    10    4   31 1
    11    5    6 1
    12    5   32 1
    13    5   33 1
    14    6    7 1
    15    6   22 am
    16    7    8 1
    17    7   34 1
    18    7   35 1
    19    8    9 1
    20    8   10 1
    21   10   11 1
    22   10   12 1
    23   11   36 1
    24   11   37 1
    25   11   38 1
    26   12   21 ar
    27   12   13 ar
    28   13   18 ar
    29   13   14 1
    30   14   15 2
    31   14   39 1
    32   15   16 1
    33   15   40 1
    34   16   17 1
    35   16   18 1
    36   18   19 ar
    37   19   20 ar
    38   20   21 ar
    39   20   41 1
    40   22   23 2
    41   22   24 1
    42   24   25 1
    43   24   42 1
    44   24   43 1
    45   25   26 3
@<TRIPOS>MOLECULE
ZINC03818808
   44    46     0     0     0
SMALL
USER_CHARGES

@<TRIPOS>ATOM
      1 C1          1.0751    1.2737   -0.0434 C.3       1 <0>        -0.1717
      2 C2          0.9577   -0.2392    0.1521 C.3       1 <0>        -0.1047
      3 H1          1.6206   -0.7482   -0.5476 H         1 <0>         0.1065
      4 C3         -0.4865   -0.6759   -0.1043 C.3       1 <0>        -0.1315
      5 C4         -0.5928   -2.1955    0.0584 C.3       1 <0>         0.0881
      6 N1         -0.0762   -2.5665    1.3829 N.am      1 <0>        -0.6217
      7 C5          1.2696   -2.1192    1.7670 C.3       1 <0>         0.0703
      8 C6          1.3546   -0.6005    1.5853 C.3       1 <0>         0.1548
      9 H2          2.3753   -0.2682    1.7748 H         1 <0>         0.1151
     10 N2          0.4432    0.0566    2.5254 N.pl3     1 <0>        -0.6726
     11 C7          0.2147    1.5009    2.4360 C.3       1 <0>         0.0820
     12 C8         -0.1863   -0.6692    3.4747 C.cat     1 <0>         0.6538
     13 N3         -1.4115   -1.1477    3.3110 N.pl3     1 <0>        -0.5444
     14 C9         -2.0279   -1.8522    4.2561 C.2       1 <0>         0.3321
     15 N4         -1.4500   -2.3911    5.3069 N.2       1 <0>        -0.3576
     16 C10        -0.1425   -2.2304    5.4947 C.2       1 <0>         0.3486
     17 N5          0.8810   -2.7839    6.0628 N.2       1 <0>        -0.3868
     18 C11         2.0466   -2.4288    5.4730 C.2       1 <0>         0.0742
     19 C12         1.8950   -1.3891    4.6394 C.2       1 <0>        -0.1875
     20 C13         0.4539   -1.0025    4.7995 C.3       1 <0>        -0.1965
     21 H3          0.3826   -0.1407    5.4632 H         1 <0>         0.2035
     22 C14        -0.8228   -3.3029    2.2295 C.2       1 <0>         0.4987
     23 O1         -0.4185   -3.5355    3.3491 O.2       1 <0>        -0.5208
     24 C15        -2.1600   -3.8373    1.7851 C.3       1 <0>        -0.0470
     25 C16        -2.7721   -4.6027    2.8834 C.1       1 <0>         0.1796
     26 N6         -3.2445   -5.1934    3.7309 N.1       1 <0>        -0.3579
     27 H4          1.9917    1.6307    0.4261 H         1 <0>         0.0671
     28 H5          1.1000    1.5016   -1.1090 H         1 <0>         0.0701
     29 H6          0.2170    1.7667    0.4136 H         1 <0>         0.0716
     30 H7         -1.1471   -0.1863    0.6113 H         1 <0>         0.0598
     31 H8         -0.7764   -0.3973   -1.1174 H         1 <0>         0.1011
     32 H9         -1.6361   -2.4998   -0.0253 H         1 <0>         0.1003
     33 H10        -0.0031   -2.6879   -0.7149 H         1 <0>         0.0960
     34 H11         1.4551   -2.3733    2.8106 H         1 <0>         0.1127
     35 H12         2.0111   -2.6054    1.1331 H         1 <0>         0.1150
     36 H13        -0.6534    1.6930    1.8054 H         1 <0>         0.0747
     37 H14         0.0356    1.9028    3.4332 H         1 <0>         0.0735
     38 H15         1.0920    1.9814    2.0027 H         1 <0>         0.1163
     39 H16        -3.0936   -1.9931    4.1516 H         1 <0>         0.2346
     40 H17         2.9889   -2.9247    5.6530 H         1 <0>         0.1925
     41 H18         2.6381   -0.9370    3.9993 H         1 <0>         0.1817
     42 H19        -2.8114   -3.0064    1.5141 H         1 <0>         0.1360
     43 H20        -2.0224   -4.4878    0.9214 H         1 <0>         0.1536
     44 H21        -1.8737   -0.9784    2.4752 H         1 <0>         0.4370
@<TRIPOS>BOND
     1    1    2 1
     2    1   27 1
     3    1   28 1
     4    1   29 1
     5    2    3 1
     6    2    8 1
     7    2    4 1
     8    4    5 1
     9    4   30 1
    10    4   31 1
    11    5    6 1
    12    5   32 1
    13    5   33 1
    14    6    7 1
    15    6   22 am
    16    7    8 1
    17    7   34 1
    18    7   35 1
    19    8    9 1
    20    8   10 1
    21   10   11 1
    22   10   12 1
    23   11   36 1
    24   11   37 1
    25   11   38 1
    26   12   20 1
    27   12   13 2
    28   13   14 1
    29   13   44 1
    30   14   15 2
    31   14   39 1
    32   15   16 1
    33   16   20 1
    34   16   17 2
    35   17   18 1
    36   18   19 2
    37   18   40 1
    38   19   20 1
    39   19   41 1
    40   20   21 1
    41   22   23 2
    42   22   24 1
    43   24   25 1
    44   24   42 1
    45   24   43 1
    46   25   26 3
@<TRIPOS>MOLECULE
ZINC03960707
   29    30     0     0     0
SMALL
USER_CHARGES

@<TRIPOS>ATOM
      1 C1         -0.0169    1.3916    0.0097 C.ar      1 <0>        -0.0852
      2 C2          1.1697    2.0949    0.0021 C.ar      1 <0>        -0.1431
      3 C3          2.3789    1.4185   -0.0135 C.ar      1 <0>         0.0976
      4 C4          2.4036    0.0330   -0.0212 C.ar      1 <0>        -0.1452
      5 C5          1.2231   -0.6803   -0.0137 C.ar      1 <0>        -0.0781
      6 C6          0.0021   -0.0041    0.0020 C.ar      1 <0>        -0.0007
      7 C7         -1.2663   -0.7632    0.0105 C.2       1 <0>        -0.2065
      8 C8         -1.4491   -2.1118    0.0107 C.2       1 <0>        -0.0829
      9 C9         -2.7731   -2.5575    0.0207 C.2       1 <0>        -0.2667
     10 C10        -3.7751   -1.5939    0.0295 C.2       1 <0>         0.0994
     11 S1         -2.9347   -0.1400    0.0311 S.3       1 <0>         0.3342
     12 N1         -5.1466   -1.7878    0.0397 N.am      1 <0>        -0.6198
     13 C11        -5.9772   -0.7264    0.0473 C.2       1 <0>         0.6992
     14 O1         -5.5226    0.4012    0.0452 O.2       1 <0>        -0.5593
     15 N2         -7.3116   -0.9150    0.0572 N.am      1 <0>        -0.8471
     16 C12        -3.0940   -3.9887    0.0214 C.2       1 <0>         0.5918
     17 O2         -4.2556   -4.3519    0.0297 O.2       1 <0>        -0.5653
     18 N3         -2.1026   -4.9016    0.0128 N.am      1 <0>        -0.8480
     19 F1          3.5381    2.1123   -0.0217 F         1 <0>        -0.1375
     20 H1         -0.9587    1.9198    0.0260 H         1 <0>         0.1345
     21 H2          1.1562    3.1748    0.0081 H         1 <0>         0.1408
     22 H3          3.3488   -0.4892   -0.0334 H         1 <0>         0.1400
     23 H4          1.2434   -1.7601   -0.0204 H         1 <0>         0.1352
     24 H5         -0.6164   -2.7996    0.0032 H         1 <0>         0.1418
     25 H6         -5.5092   -2.6875    0.0414 H         1 <0>         0.4318
     26 H7         -7.6743   -1.8147    0.0589 H         1 <0>         0.4057
     27 H8         -7.9094   -0.1512    0.0627 H         1 <0>         0.4259
     28 H9         -1.1768   -4.6121    0.0061 H         1 <0>         0.4018
     29 H10        -2.3148   -5.8481    0.0132 H         1 <0>         0.4056
@<TRIPOS>BOND
     1    1    6 ar
     2    1    2 ar
     3    1   20 1
     4    2    3 ar
     5    2   21 1
     6    3    4 ar
     7    3   19 1
     8    4    5 ar
     9    4   22 1
    10    5    6 ar
    11    5   23 1
    12    6    7 1
    13    7   11 1
    14    7    8 2
    15    8    9 1
    16    8   24 1
    17    9   10 2
    18    9   16 1
    19   10   11 1
    20   10   12 1
    21   12   13 am
    22   12   25 1
    23   13   14 2
    24   13   15 am
    25   15   26 1
    26   15   27 1
    27   16   17 2
    28   16   18 am
    29   18   28 1
    30   18   29 1
@<TRIPOS>MOLECULE
ZINC13538893
   35    38     0     0     0
SMALL
USER_CHARGES
(3Z)-5-(3-pyridyl)-3-(1H-pyrrol-2-ylmethylene)indolin-2-one
@<TRIPOS>ATOM
      1 C1         -1.0256    2.5106   -0.0740 C.2       1 <0>        -0.1985
      2 C2          0.1330    2.1118   -0.7431 C.2       1 <0>        -0.1501
      3 C3          1.1119    1.9179    0.2193 C.2       1 <0>        -0.0041
      4 N1          0.5447    2.1910    1.4456 N.pl3     1 <0>        -0.5339
      5 H1          0.9963    2.1385    2.3024 H         1 <0>         0.4140
      6 C4         -0.7509    2.5452    1.2538 C.2       1 <0>         0.0018
      7 C5          2.4433    1.5157   -0.0136 C.2       1 <0>         0.0527
      8 C6          3.4425    2.4638   -0.1222 C.2       1 <0>        -0.1383
      9 C7          4.8975    2.2273   -0.2568 C.ar      1 <0>        -0.1097
     10 C8          5.6720    1.0754   -0.3138 C.ar      1 <0>        -0.0447
     11 C9          7.0531    1.1812   -0.4463 C.ar      1 <0>        -0.0676
     12 C10         7.6490    2.4413   -0.5217 C.ar      1 <0>        -0.0648
     13 C11         6.8805    3.5829   -0.4652 C.ar      1 <0>        -0.1348
     14 C12         5.4978    3.4925   -0.3323 C.ar      1 <0>         0.1590
     15 N2          4.5131    4.4690   -0.2532 N.am      1 <0>        -0.6566
     16 C13         3.2905    3.9242   -0.1357 C.2       1 <0>         0.5532
     17 O1          2.2398    4.5352   -0.0521 O.2       1 <0>        -0.4763
     18 C14         7.8902   -0.0423   -0.5072 C.ar      1 <0>        -0.0896
     19 C15         9.2778    0.0528   -0.6459 C.ar      1 <0>        -0.0705
     20 C16        10.0147   -1.1180   -0.6918 C.ar      1 <0>        -0.1660
     21 C17         9.3594   -2.3334   -0.6114 C.ar      1 <0>         0.0966
     22 N3          8.0478   -2.3917   -0.4862 N.ar      1 <0>        -0.4796
     23 C18         7.3055   -1.3046   -0.4327 C.ar      1 <0>         0.1059
     24 H2         -1.9744    2.7471   -0.5327 H         1 <0>         0.1373
     25 H3          0.2465    1.9831   -1.8094 H         1 <0>         0.1365
     26 H4         -1.4492    2.8155    2.0321 H         1 <0>         0.1651
     27 H5          2.6820    0.4665   -0.1069 H         1 <0>         0.1472
     28 H6          5.2050    0.1034   -0.2548 H         1 <0>         0.1347
     29 H7          8.7211    2.5217   -0.6249 H         1 <0>         0.1360
     30 H8          7.3528    4.5524   -0.5238 H         1 <0>         0.1341
     31 H9          4.6857    5.4230   -0.2841 H         1 <0>         0.4196
     32 H10         9.7631    1.0154   -0.7110 H         1 <0>         0.1377
     33 H11        11.0893   -1.0829   -0.7934 H         1 <0>         0.1388
     34 H12         9.9308   -3.2490   -0.6513 H         1 <0>         0.1578
     35 H13         6.2340   -1.3927   -0.3299 H         1 <0>         0.1570
@<TRIPOS>BOND
     1    1    6 2
     2    1    2 1
     3    1   24 1
     4    2    3 2
     5    2   25 1
     6    3    4 1
     7    3    7 1
     8    4    5 1
     9    4    6 1
    10    6   26 1
    11    7    8 2
    12    7   27 1
    13    8   16 1
    14    8    9 1
    15    9   14 ar
    16    9   10 ar
    17   10   11 ar
    18   10   28 1
    19   11   12 ar
    20   11   18 1
    21   12   13 ar
    22   12   29 1
    23   13   14 ar
    24   13   30 1
    25   14   15 1
    26   15   16 am
    27   15   31 1
    28   16   17 2
    29   18   23 ar
    30   18   19 ar
    31   19   20 ar
    32   19   32 1
    33   20   21 ar
    34   20   33 1
    35   21   22 ar
    36   21   34 1
    37   22   23 ar
    38   23   35 1
@<TRIPOS>MOLECULE
ZINC29136213
   39    43     0     0     0
SMALL
USER_CHARGES
2-(6-chloro-1H-phenanthro[9,10-d]imidazol-2-yl)benzene-1,3-dicarbonitrile
@<TRIPOS>ATOM
      1 C1         -2.8499   11.1210   -0.1519 C.ar      1 <0>        -0.1066
      2 C2         -3.5503    9.9232   -0.2140 C.ar      1 <0>        -0.1052
      3 C3         -2.8939    8.7274   -0.1693 C.ar      1 <0>        -0.1112
      4 C4         -1.4980    8.6990   -0.0596 C.ar      1 <0>        -0.0109
      5 C5         -0.7834    9.9138    0.0038 C.ar      1 <0>        -0.0207
      6 C6         -1.4778   11.1248   -0.0439 C.ar      1 <0>        -0.0984
      7 C7          0.6814    9.8930    0.1185 C.ar      1 <0>        -0.0294
      8 C8          1.4080   11.0849    0.1821 C.ar      1 <0>        -0.0941
      9 C9          2.7805   11.0423    0.2890 C.ar      1 <0>        -0.0289
     10 C10         3.4471    9.8238    0.3339 C.ar      1 <0>        -0.1037
     11 C11         2.7558    8.6478    0.2731 C.ar      1 <0>        -0.0766
     12 C12         1.3623    8.6610    0.1644 C.ar      1 <0>         0.0115
     13 C13         0.6067    7.4015    0.0976 C.ar      1 <0>         0.0636
     14 C14        -0.7807    7.4268   -0.0110 C.ar      1 <0>         0.0491
     15 N1         -1.1928    6.1162   -0.0568 N.pl3     1 <0>        -0.5691
     16 H1         -2.2630    5.8791   -0.1491 H         1 <0>         0.4475
     17 C15        -0.0704    5.3391    0.0314 C.2       1 <0>         0.2519
     18 N2          0.9874    6.1134    0.1193 N.2       1 <0>        -0.4330
     19 C16        -0.0504    3.8650    0.0228 C.ar      1 <0>         0.0794
     20 C17         1.1729    3.1717   -0.0396 C.ar      1 <0>         0.0186
     21 C18         1.1768    1.7765   -0.0465 C.ar      1 <0>        -0.0346
     22 C19        -0.0125    1.0758    0.0080 C.ar      1 <0>        -0.1077
     23 C20        -1.2207    1.7433    0.0642 C.ar      1 <0>        -0.0338
     24 C21        -1.2544    3.1381    0.0774 C.ar      1 <0>        -0.0302
     25 C22        -2.5084    3.8268    0.1407 C.1       1 <0>         0.2598
     26 N3         -3.5031    4.3731    0.1910 N.1       1 <0>        -0.4021
     27 C23         2.4077    3.8948   -0.0952 C.1       1 <0>         0.2471
     28 N4          3.3872    4.4684   -0.1393 N.1       1 <0>        -0.3734
     29 Cl1         3.6846   12.5221    0.3676 Cl        1 <0>        -0.0630
     30 H2         -3.3865   12.0575   -0.1890 H         1 <0>         0.1329
     31 H3         -4.6269    9.9383   -0.2990 H         1 <0>         0.1306
     32 H4         -3.4508    7.8033   -0.2188 H         1 <0>         0.1195
     33 H5         -0.9403   12.0603    0.0043 H         1 <0>         0.1368
     34 H6          0.8958   12.0350    0.1480 H         1 <0>         0.1430
     35 H7          4.5237    9.8068    0.4175 H         1 <0>         0.1393
     36 H8          3.2857    7.7074    0.3086 H         1 <0>         0.1441
     37 H9          2.1140    1.2418   -0.0943 H         1 <0>         0.1532
     38 H10         0.0021   -0.0041    0.0020 H         1 <0>         0.1545
     39 H11        -2.1432    1.1829    0.1019 H         1 <0>         0.1505
@<TRIPOS>BOND
     1    1    6 ar
     2    1    2 ar
     3    1   30 1
     4    2    3 ar
     5    2   31 1
     6    3    4 ar
     7    3   32 1
     8    4   14 ar
     9    4    5 ar
    10    5    6 ar
    11    5    7 ar
    12    6   33 1
    13    7   12 ar
    14    7    8 ar
    15    8    9 ar
    16    8   34 1
    17    9   10 ar
    18    9   29 1
    19   10   11 ar
    20   10   35 1
    21   11   12 ar
    22   11   36 1
    23   12   13 ar
    24   13   18 1
    25   13   14 ar
    26   14   15 1
    27   15   16 1
    28   15   17 1
    29   17   18 2
    30   17   19 1
    31   19   24 ar
    32   19   20 ar
    33   20   21 ar
    34   20   27 1
    35   21   22 ar
    36   21   37 1
    37   22   23 ar
    38   22   38 1
    39   23   24 ar
    40   23   39 1
    41   24   25 1
    42   25   26 3
    43   27   28 3
@<TRIPOS>MOLECULE
ZINC13974878
   43    45     0     0     0
SMALL
USER_CHARGES
3-[(3R,4S)-4-methyl-3-(methyl-(7H-pyrrolo[3,2-e]pyrimidin-4-yl)amino)-1-piperidyl]-3-oxo-propanenitrile
@<TRIPOS>ATOM
      1 C1          4.7421    4.2827    1.5638 C.3       1 <0>        -0.1409
      2 C2          4.8159    3.5541    0.2204 C.3       1 <0>        -0.0882
      3 H1          4.9617    4.2807   -0.5790 H         1 <0>         0.0753
      4 C3          5.9892    2.5718    0.2369 C.3       1 <0>        -0.1305
      5 C4          6.0811    1.8694   -1.1215 C.3       1 <0>         0.0989
      6 N1          4.7822    1.2530   -1.4239 N.am      1 <0>        -0.6038
      7 C5          3.5754    2.0898   -1.3785 C.3       1 <0>         0.0840
      8 C6          3.5116    2.7896   -0.0173 C.3       1 <0>         0.0846
      9 H2          3.3769    2.0460    0.7682 H         1 <0>         0.1046
     10 N2          2.3826    3.7293   -0.0016 N.pl3     1 <0>        -0.4578
     11 C7          2.4569    4.6606   -1.1352 C.3       1 <0>         0.0142
     12 C8          1.1755    3.0539    0.0068 C.ar      1 <0>         0.4053
     13 C9         -0.0406    3.7541    0.0217 C.ar      1 <0>        -0.2205
     14 C10        -0.4235    5.1647    0.0324 C.2       1 <0>        -0.1671
     15 C11        -1.7660    5.2026    0.0451 C.2       1 <0>         0.0504
     16 N3         -2.2667    3.9264    0.0434 N.pl3     1 <0>        -0.5712
     17 H3         -3.2096    3.6988    0.0508 H         1 <0>         0.4236
     18 C12        -1.2415    3.0211    0.0292 C.ar      1 <0>         0.3296
     19 N4         -1.1753    1.6905    0.0169 N.ar      1 <0>        -0.5492
     20 C13        -0.0126    1.0758    0.0080 C.ar      1 <0>         0.3457
     21 N5          1.1381    1.7248    0.0005 N.ar      1 <0>        -0.5699
     22 C14         4.6993   -0.0552   -1.7375 C.2       1 <0>         0.5212
     23 O1          3.6212   -0.5522   -1.9855 O.2       1 <0>        -0.5188
     24 C15         5.9463   -0.9003   -1.7799 C.3       1 <0>        -0.0430
     25 C16         5.5908   -2.2816   -2.1439 C.1       1 <0>         0.2132
     26 N6          5.3164   -3.3475   -2.4249 N.1       1 <0>        -0.4075
     27 H4          4.5956    3.5565    2.3633 H         1 <0>         0.0531
     28 H5          5.6710    4.8272    1.7332 H         1 <0>         0.0533
     29 H6          3.9072    4.9833    1.5518 H         1 <0>         0.0666
     30 H7          5.8318    1.8301    1.0200 H         1 <0>         0.0734
     31 H8          6.9150    3.1140    0.4294 H         1 <0>         0.0852
     32 H9          6.8512    1.0990   -1.0831 H         1 <0>         0.0911
     33 H10         6.3296    2.5962   -1.8949 H         1 <0>         0.0762
     34 H11         2.6921    1.4647   -1.5097 H         1 <0>         0.1158
     35 H12         3.6183    2.8363   -2.1715 H         1 <0>         0.0651
     36 H13         1.6494    5.3889   -1.0607 H         1 <0>         0.0879
     37 H14         3.4159    5.1783   -1.1178 H         1 <0>         0.0887
     38 H15         2.3606    4.1055   -2.0683 H         1 <0>         0.0453
     39 H16         0.2446    6.0132    0.0309 H         1 <0>         0.1557
     40 H17        -2.3617    6.1034    0.0549 H         1 <0>         0.1829
     41 H18         0.0021   -0.0041    0.0020 H         1 <0>         0.1995
     42 H19         6.6349   -0.4950   -2.5212 H         1 <0>         0.1387
     43 H20         6.4229   -0.8942   -0.7996 H         1 <0>         0.1394
@<TRIPOS>BOND
     1    1    2 1
     2    1   27 1
     3    1   28 1
     4    1   29 1
     5    2    3 1
     6    2    8 1
     7    2    4 1
     8    4    5 1
     9    4   30 1
    10    4   31 1
    11    5    6 1
    12    5   32 1
    13    5   33 1
    14    6    7 1
    15    6   22 am
    16    7    8 1
    17    7   34 1
    18    7   35 1
    19    8    9 1
    20    8   10 1
    21   10   11 1
    22   10   12 1
    23   11   36 1
    24   11   37 1
    25   11   38 1
    26   12   21 ar
    27   12   13 ar
    28   13   18 ar
    29   13   14 1
    30   14   15 2
    31   14   39 1
    32   15   16 1
    33   15   40 1
    34   16   17 1
    35   16   18 1
    36   18   19 ar
    37   19   20 ar
    38   20   21 ar
    39   20   41 1
    40   22   23 2
    41   22   24 1
    42   24   25 1
    43   24   42 1
    44   24   43 1
    45   25   26 3
@<TRIPOS>MOLECULE
ZINC13974880
   43    45     0     0     0
SMALL
USER_CHARGES
3-[(3S,4S)-4-methyl-3-(methyl-(7H-pyrrolo[3,2-e]pyrimidin-4-yl)amino)-1-piperidyl]-3-oxo-propanenitrile
@<TRIPOS>ATOM
      1 C1         -0.0644    4.7040   -0.2404 C.3       1 <0>        -0.1480
      2 C2         -0.0417    3.9557    1.0940 C.3       1 <0>        -0.0935
      3 H1         -0.0439    4.6745    1.9134 H         1 <0>         0.0784
      4 C3         -1.2788    3.0607    1.1975 C.3       1 <0>        -0.1292
      5 C4         -1.2905    2.0749    0.0193 C.3       1 <0>         0.0964
      6 N1         -0.0162    1.3436    0.0094 N.am      1 <0>        -0.6050
      7 C5          1.2377    2.1093    0.0016 C.3       1 <0>         0.1061
      8 C6          1.2210    3.0948    1.1743 C.3       1 <0>         0.0867
      9 H2          1.2261    2.5423    2.1139 H         1 <0>         0.0672
     10 N2          2.4079    3.9577    1.1065 N.pl3     1 <0>        -0.4637
     11 C7          2.3779    4.9781    2.1629 C.3       1 <0>         0.0216
     12 C8          3.5693    3.2094    1.1730 C.ar      1 <0>         0.4045
     13 C9          4.8278    3.8281    1.1200 C.ar      1 <0>        -0.2202
     14 C10         5.3001    5.2071    1.0124 C.2       1 <0>        -0.1673
     15 C11         6.6423    5.1597    1.0208 C.2       1 <0>         0.0505
     16 N3          7.0604    3.8587    1.1303 N.pl3     1 <0>        -0.5712
     17 H3          7.9868    3.5725    1.1568 H         1 <0>         0.4236
     18 C12         5.9793    3.0233    1.1961 C.ar      1 <0>         0.3297
     19 N4          5.8281    1.7042    1.3056 N.ar      1 <0>        -0.5489
     20 C13         4.6283    1.1667    1.3466 C.ar      1 <0>         0.3458
     21 N5          3.5215    1.8851    1.2833 N.ar      1 <0>        -0.5682
     22 C14         0.0021   -0.0041    0.0020 C.2       1 <0>         0.5213
     23 O1          1.0605   -0.5961   -0.0113 O.2       1 <0>        -0.5182
     24 C15        -1.2926   -0.7753    0.0102 C.3       1 <0>        -0.0437
     25 C16        -1.0041   -2.2187   -0.0003 C.1       1 <0>         0.2139
     26 N6         -0.7814   -3.3326   -0.0084 N.1       1 <0>        -0.4086
     27 H4         -0.0618    3.9854   -1.0600 H         1 <0>         0.0585
     28 H5         -0.9637    5.3172   -0.2978 H         1 <0>         0.0546
     29 H6          0.8160    5.3423   -0.3140 H         1 <0>         0.0658
     30 H7         -1.2508    2.5086    2.1368 H         1 <0>         0.0709
     31 H8         -2.1774    3.6768    1.1637 H         1 <0>         0.0842
     32 H9         -1.4055    2.6213   -0.9168 H         1 <0>         0.0798
     33 H10        -2.1146    1.3714    0.1379 H         1 <0>         0.0892
     34 H11         2.0823    1.4285    0.1084 H         1 <0>         0.1333
     35 H12         1.3247    2.6584   -0.9360 H         1 <0>         0.0688
     36 H13         2.3550    4.4912    3.1378 H         1 <0>         0.0416
     37 H14         3.2680    5.6030    2.0897 H         1 <0>         0.0879
     38 H15         1.4886    5.5971    2.0450 H         1 <0>         0.0896
     39 H16         4.6876    6.0935    0.9373 H         1 <0>         0.1558
     40 H17         7.2944    6.0178    0.9511 H         1 <0>         0.1829
     41 H18         4.5446    0.0936    1.4354 H         1 <0>         0.2003
     42 H19        -1.8592   -0.5245    0.9070 H         1 <0>         0.1382
     43 H20        -1.8762   -0.5150   -0.8728 H         1 <0>         0.1383
@<TRIPOS>BOND
     1    1    2 1
     2    1   27 1
     3    1   28 1
     4    1   29 1
     5    2    3 1
     6    2    8 1
     7    2    4 1
     8    4    5 1
     9    4   30 1
    10    4   31 1
    11    5    6 1
    12    5   32 1
    13    5   33 1
    14    6    7 1
    15    6   22 am
    16    7    8 1
    17    7   34 1
    18    7   35 1
    19    8    9 1
    20    8   10 1
    21   10   11 1
    22   10   12 1
    23   11   36 1
    24   11   37 1
    25   11   38 1
    26   12   21 ar
    27   12   13 ar
    28   13   18 ar
    29   13   14 1
    30   14   15 2
    31   14   39 1
    32   15   16 1
    33   15   40 1
    34   16   17 1
    35   16   18 1
    36   18   19 ar
    37   19   20 ar
    38   20   21 ar
    39   20   41 1
    40   22   23 2
    41   22   24 1
    42   24   25 1
    43   24   42 1
    44   24   43 1
    45   25   26 3
@<TRIPOS>MOLECULE
ZINC13974879
   43    45     0     0     0
SMALL
USER_CHARGES
3-[(3S,4R)-4-methyl-3-(methyl-(7H-pyrrolo[3,2-e]pyrimidin-4-yl)amino)-1-piperidyl]-3-oxo-propanenitrile
@<TRIPOS>ATOM
      1 C1         -4.4618    4.5058    2.6224 C.3       1 <0>        -0.1422
      2 C2         -3.7622    3.7091    1.5194 C.3       1 <0>        -0.0975
      3 H1         -4.2446    3.9119    0.5632 H         1 <0>         0.0990
      4 C3         -3.8576    2.2139    1.8316 C.3       1 <0>        -0.1277
      5 C4         -3.1865    1.4179    0.7080 C.3       1 <0>         0.1036
      6 N1         -1.8136    1.9115    0.5335 N.am      1 <0>        -0.5995
      7 C5         -1.6015    3.3501    0.3234 C.3       1 <0>         0.0706
      8 C6         -2.2908    4.1238    1.4459 C.3       1 <0>         0.0856
      9 H2         -1.8016    3.8984    2.3935 H         1 <0>         0.0911
     10 N2         -2.2005    5.5653    1.1782 N.pl3     1 <0>        -0.4667
     11 C7         -0.8023    5.9825    1.0078 C.3       1 <0>         0.0247
     12 C8         -2.9594    5.9132    0.0753 C.ar      1 <0>         0.4087
     13 C9         -3.3427    7.2455   -0.1430 C.ar      1 <0>        -0.2048
     14 C10        -3.1354    8.5111    0.5583 C.2       1 <0>        -0.1611
     15 C11        -3.7615    9.4590   -0.1580 C.2       1 <0>         0.0507
     16 N3         -4.3508    8.8952   -1.2600 N.pl3     1 <0>        -0.5713
     17 H3         -4.8609    9.3803   -1.9274 H         1 <0>         0.4240
     18 C12        -4.1142    7.5482   -1.2799 C.ar      1 <0>         0.3270
     19 N4         -4.4500    6.5567   -2.1040 N.ar      1 <0>        -0.5421
     20 C13        -4.0684    5.3219   -1.8599 C.ar      1 <0>         0.3307
     21 N5         -3.3396    4.9946   -0.8077 N.ar      1 <0>        -0.5680
     22 C14        -0.7683    1.0616    0.5710 C.2       1 <0>         0.5196
     23 O1          0.3598    1.4807    0.4206 O.2       1 <0>        -0.5306
     24 C15        -1.0018   -0.4105    0.7935 C.3       1 <0>        -0.0434
     25 C16         0.2887   -1.1186    0.7857 C.1       1 <0>         0.2136
     26 N6          1.2846   -1.6651    0.7796 N.1       1 <0>        -0.4089
     27 H4         -4.0262    4.2492    3.5881 H         1 <0>         0.0528
     28 H5         -4.3331    5.5723    2.4377 H         1 <0>         0.0617
     29 H6         -5.5245    4.2636    2.6274 H         1 <0>         0.0495
     30 H7         -4.9056    1.9242    1.9070 H         1 <0>         0.0816
     31 H8         -3.3539    2.0061    2.7757 H         1 <0>         0.0685
     32 H9         -3.7439    1.5530   -0.2189 H         1 <0>         0.0793
     33 H10        -3.1638    0.3607    0.9723 H         1 <0>         0.0877
     34 H11        -0.5335    3.5674    0.3342 H         1 <0>         0.0850
     35 H12        -2.0271    3.6461   -0.6354 H         1 <0>         0.1177
     36 H13        -0.3967    5.5326    0.1016 H         1 <0>         0.0449
     37 H14        -0.7544    7.0685    0.9271 H         1 <0>         0.0820
     38 H15        -0.2183    5.6560    1.8683 H         1 <0>         0.0870
     39 H16        -2.5850    8.6559    1.4761 H         1 <0>         0.1563
     40 H17        -3.7957   10.5082    0.0960 H         1 <0>         0.1836
     41 H18        -4.3597    4.5440   -2.5501 H         1 <0>         0.1988
     42 H19        -1.4920   -0.5593    1.7557 H         1 <0>         0.1391
     43 H20        -1.6360   -0.8022   -0.0018 H         1 <0>         0.1394
@<TRIPOS>BOND
     1    1    2 1
     2    1   27 1
     3    1   28 1
     4    1   29 1
     5    2    3 1
     6    2    8 1
     7    2    4 1
     8    4    5 1
     9    4   30 1
    10    4   31 1
    11    5    6 1
    12    5   32 1
    13    5   33 1
    14    6    7 1
    15    6   22 am
    16    7    8 1
    17    7   34 1
    18    7   35 1
    19    8    9 1
    20    8   10 1
    21   10   11 1
    22   10   12 1
    23   11   36 1
    24   11   37 1
    25   11   38 1
    26   12   21 ar
    27   12   13 ar
    28   13   18 ar
    29   13   14 1
    30   14   15 2
    31   14   39 1
    32   15   16 1
    33   15   40 1
    34   16   17 1
    35   16   18 1
    36   18   19 ar
    37   19   20 ar
    38   20   21 ar
    39   20   41 1
    40   22   23 2
    41   22   24 1
    42   24   25 1
    43   24   42 1
    44   24   43 1
    45   25   26 3
@<TRIPOS>MOLECULE
ZINC38995988
   51    55     0     0     0
SMALL
USER_CHARGES

@<TRIPOS>ATOM
      1 C1         -0.0167    1.3832    0.0096 C.ar      1 <0>        -0.0900
      2 C2          1.1624    2.0986    0.0022 C.ar      1 <0>        -0.1093
      3 C3          2.3769    1.4282   -0.0129 C.ar      1 <0>         0.0585
      4 C4          2.4020    0.0222   -0.0207 C.ar      1 <0>         0.0556
      5 C5          1.1969   -0.6870   -0.0127 C.ar      1 <0>        -0.0377
      6 C6          0.0021   -0.0041    0.0020 C.ar      1 <0>        -0.0874
      7 C7         -1.2962   -0.7693    0.0108 C.3       1 <0>         0.0982
      8 N1         -1.7317   -1.0105   -1.3713 N.3       1 <0>        -0.5319
      9 C8         -2.0812    0.2506   -2.0413 C.3       1 <0>         0.0140
     10 C9         -2.4711   -0.0400   -3.4930 C.3       1 <0>         0.0628
     11 O1         -3.5484   -0.9803   -3.5128 O.3       1 <0>        -0.3858
     12 C10        -3.2423   -2.2203   -2.8694 C.3       1 <0>         0.0630
     13 C11        -2.8603   -1.9518   -1.4114 C.3       1 <0>         0.0170
     14 N2          3.7040   -0.3552   -0.0358 N.2       1 <0>        -0.4791
     15 C12         4.4709    0.7083   -0.0379 C.2       1 <0>         0.3677
     16 N3          3.6969    1.8375   -0.0241 N.pl3     1 <0>        -0.5827
     17 C13         5.9482    0.6906   -0.0529 C.2       1 <0>         0.1128
     18 C14         6.7655   -0.4629   -0.0734 C.2       1 <0>         0.0625
     19 C15         8.0574   -0.0542   -0.0820 C.2       1 <0>         0.0467
     20 N4          8.0646    1.3049   -0.0675 N.pl3     1 <0>        -0.4518
     21 H1          8.8531    1.8699   -0.0696 H         1 <0>         0.4522
     22 N5          6.7361    1.7481   -0.0552 N.2       1 <0>        -0.2610
     23 N6          6.3179   -1.7953   -0.0825 N.am      1 <0>        -0.6484
     24 C16         7.2097   -2.8056   -0.1024 C.2       1 <0>         0.7112
     25 O2          8.4015   -2.5644   -0.1124 O.2       1 <0>        -0.5835
     26 N7          6.7806   -4.0832   -0.1111 N.am      1 <0>        -0.7107
     27 C17         7.7500   -5.1814   -0.1326 C.3       1 <0>         0.0984
     28 C18         7.4710   -6.3514   -1.0782 C.3       1 <0>        -0.1941
     29 C19         7.3013   -6.5309    0.4317 C.3       1 <0>        -0.1895
     30 H2         -0.9613    1.9065    0.0260 H         1 <0>         0.1292
     31 H3          1.1404    3.1784    0.0078 H         1 <0>         0.1265
     32 H4          1.2037   -1.7669   -0.0185 H         1 <0>         0.1329
     33 H5         -1.1522   -1.7232    0.5181 H         1 <0>         0.0877
     34 H6         -2.0559   -0.1898    0.5352 H         1 <0>         0.0479
     35 H7         -2.9207    0.7164   -1.5252 H         1 <0>         0.0435
     36 H8         -1.2233    0.9227   -2.0224 H         1 <0>         0.0909
     37 H9         -2.7857    0.8844   -3.9773 H         1 <0>         0.0978
     38 H10        -1.6147   -0.4564   -4.0234 H         1 <0>         0.0598
     39 H11        -4.1148   -2.8728   -2.9028 H         1 <0>         0.0988
     40 H12        -2.4084   -2.7001   -3.3817 H         1 <0>         0.0605
     41 H13        -2.5711   -2.8874   -0.9327 H         1 <0>         0.0882
     42 H14        -3.7122   -1.5212   -0.8852 H         1 <0>         0.0444
     43 H15         8.9269   -0.6946   -0.0972 H         1 <0>         0.2141
     44 H16         5.3672   -1.9876   -0.0745 H         1 <0>         0.4224
     45 H17         5.8299   -4.2755   -0.1031 H         1 <0>         0.4015
     46 H18         8.7902   -4.8932    0.0188 H         1 <0>         0.1414
     47 H19         6.5663   -6.3041   -1.6842 H         1 <0>         0.0976
     48 H20         8.3279   -6.8332   -1.5492 H         1 <0>         0.1039
     49 H21         8.0465   -7.1307    0.9541 H         1 <0>         0.1053
     50 H22         6.2849   -6.6016    0.8191 H         1 <0>         0.0980
     51 H23         4.0155    2.7537   -0.0227 H         1 <0>         0.4299
@<TRIPOS>BOND
     1    1    6 ar
     2    1    2 ar
     3    1   30 1
     4    2    3 ar
     5    2   31 1
     6    3   16 1
     7    3    4 ar
     8    4    5 ar
     9    4   14 1
    10    5    6 ar
    11    5   32 1
    12    6    7 1
    13    7    8 1
    14    7   33 1
    15    7   34 1
    16    8   13 1
    17    8    9 1
    18    9   10 1
    19    9   35 1
    20    9   36 1
    21   10   11 1
    22   10   37 1
    23   10   38 1
    24   11   12 1
    25   12   13 1
    26   12   39 1
    27   12   40 1
    28   13   41 1
    29   13   42 1
    30   14   15 2
    31   15   16 1
    32   15   17 1
    33   16   51 1
    34   17   22 2
    35   17   18 1
    36   18   19 2
    37   18   23 1
    38   19   20 1
    39   19   43 1
    40   20   21 1
    41   20   22 1
    42   23   24 am
    43   23   44 1
    44   24   25 2
    45   24   26 am
    46   26   27 1
    47   26   45 1
    48   27   29 1
    49   27   28 1
    50   27   46 1
    51   28   29 1
    52   28   47 1
    53   28   48 1
    54   29   49 1
    55   29   50 1
@<TRIPOS>MOLECULE
ZINC55760827
   83    87     0     0     0
SMALL
USER_CHARGES

@<TRIPOS>ATOM
      1 C1          0.1308    1.2757   -1.5114 C.3       1 <0>        -0.1457
      2 C2          0.0489   -0.2316   -1.2617 C.3       1 <0>        -0.5666
      3 C3          1.2691   -0.6821   -0.4560 C.3       1 <0>        -0.1409
      4 S1         -1.4624   -0.6093   -0.3323 S.o2      1 <0>         2.4858
      5 O1         -1.4234    0.0188    0.9418 O.2       1 <0>        -0.9268
      6 O2         -2.6005   -0.4734   -1.1723 O.2       1 <0>        -0.9405
      7 C4         -1.3622   -2.3341    0.0135 C.ar      1 <0>        -0.6839
      8 C5         -1.2554   -2.7725    1.3190 C.ar      1 <0>        -0.0030
      9 C6         -1.1772   -4.1258    1.5912 C.ar      1 <0>        -0.1503
     10 C7         -1.2056   -5.0450    0.5581 C.ar      1 <0>        -0.0467
     11 C8         -1.3123   -4.6135   -0.7492 C.ar      1 <0>        -0.1331
     12 C9         -1.3964   -3.2546   -1.0259 C.ar      1 <0>         0.2443
     13 N1         -1.5099   -2.8147   -2.3478 N.pl3     1 <0>        -0.6616
     14 C10        -0.8607   -3.4990   -3.3646 C.ar      1 <0>         0.4830
     15 C11        -0.8842   -3.0123   -4.6745 C.ar      1 <0>        -0.2526
     16 C12        -0.2236   -3.7275   -5.6550 C.ar      1 <0>         0.2363
     17 N2          0.4082   -4.8455   -5.3272 N.ar      1 <0>        -0.5723
     18 C13         0.4137   -5.2832   -4.0770 C.ar      1 <0>         0.5997
     19 N3         -0.2026   -4.6244   -3.1067 N.ar      1 <0>        -0.5908
     20 N4          1.0856   -6.4561   -3.7754 N.pl3     1 <0>        -0.6151
     21 C14         1.8542   -7.0973   -4.7591 C.ar      1 <0>         0.0827
     22 C15         2.3739   -6.3680   -5.8182 C.ar      1 <0>        -0.0385
     23 C16         3.1307   -6.9985   -6.7873 C.ar      1 <0>        -0.2089
     24 C17         3.3726   -8.3634   -6.7029 C.ar      1 <0>         0.2363
     25 C18         2.8541   -9.0969   -5.6442 C.ar      1 <0>        -0.2647
     26 C19         2.1002   -8.4653   -4.6693 C.ar      1 <0>         0.1479
     27 O3          1.5961   -9.1808   -3.6285 O.3       1 <0>        -0.3171
     28 C20         1.8884  -10.5793   -3.6006 C.3       1 <0>         0.0308
     29 N5          4.1389   -8.9999   -7.6857 N.pl3     1 <0>        -0.6295
     30 C21         4.7972   -8.2205   -8.7431 C.3       1 <0>         0.1228
     31 C22         4.3883   -8.7923  -10.1042 C.3       1 <0>        -0.1329
     32 C23         4.7023  -10.2897  -10.1391 C.3       1 <0>         0.0908
     33 C24         3.8977  -11.0068   -9.0526 C.3       1 <0>        -0.1308
     34 C25         4.3056  -10.4596   -7.6763 C.3       1 <0>         0.1234
     35 N6          4.3421  -10.8347  -11.4549 N.3       1 <0>        -0.5357
     36 C26         5.0321  -10.1106  -12.5318 C.3       1 <0>         0.0201
     37 C27         4.5853  -10.6681  -13.8850 C.3       1 <0>        -0.0022
     38 N7          4.9025  -12.1007  -13.9534 N.4       1 <0>        -0.3883
     39 C28         4.1869  -12.8138  -12.8872 C.3       1 <0>        -0.0021
     40 C29         4.6303  -12.2741  -11.5256 C.3       1 <0>         0.0207
     41 C30         4.4898  -12.6315  -15.2595 C.3       1 <0>        -0.0459
     42 Cl1        -1.7246   -1.5432   -5.0610 Cl        1 <0>        -0.0377
     43 H1          1.0389    1.5027   -2.0698 H         1 <0>         0.0885
     44 H2         -0.7385    1.5967   -2.0853 H         1 <0>         0.0736
     45 H3          0.1503    1.8016   -0.5568 H         1 <0>         0.0788
     46 H4          0.0294   -0.7574   -2.2162 H         1 <0>         0.1318
     47 H5          2.1772   -0.4551   -1.0145 H         1 <0>         0.0814
     48 H6          1.2886   -0.1562    0.4985 H         1 <0>         0.0798
     49 H7          1.2107   -1.7559   -0.2782 H         1 <0>         0.0704
     50 H8         -1.2325   -2.0574    2.1279 H         1 <0>         0.1501
     51 H9         -1.0933   -4.4659    2.6128 H         1 <0>         0.1365
     52 H10        -1.1440   -6.1014    0.7741 H         1 <0>         0.1352
     53 H11        -1.3341   -5.3318   -1.5555 H         1 <0>         0.1523
     54 H12        -2.0426   -2.0307   -2.5540 H         1 <0>         0.4348
     55 H13        -0.2223   -3.3794   -6.6774 H         1 <0>         0.1828
     56 H14         1.0250   -6.8344   -2.8843 H         1 <0>         0.4275
     57 H15         2.1866   -5.3065   -5.8858 H         1 <0>         0.1583
     58 H16         3.5343   -6.4292   -7.6115 H         1 <0>         0.1269
     59 H17         3.0423  -10.1584   -5.5787 H         1 <0>         0.1320
     60 H18         1.4922  -11.0513   -4.4997 H         1 <0>         0.0544
     61 H19         2.9680  -10.7241   -3.5600 H         1 <0>         0.0558
     62 H20         1.4281  -11.0293   -2.7210 H         1 <0>         0.1025
     63 H21         4.4859   -7.1780   -8.6762 H         1 <0>         0.0942
     64 H22         5.8789   -8.2891   -8.6279 H         1 <0>         0.0623
     65 H23         3.3196   -8.6410  -10.2562 H         1 <0>         0.0830
     66 H24         4.9438   -8.2856  -10.8934 H         1 <0>         0.0745
     67 H25         5.7671  -10.4417   -9.9625 H         1 <0>         0.0537
     68 H26         2.8336  -10.8347   -9.2145 H         1 <0>         0.0823
     69 H27         4.1040  -12.0763   -9.0933 H         1 <0>         0.0730
     70 H28         5.3481  -10.7071   -7.4760 H         1 <0>         0.0623
     71 H29         3.6699  -10.8950   -6.9053 H         1 <0>         0.0877
     72 H30         4.7834   -9.0509  -12.4750 H         1 <0>         0.1272
     73 H31         6.1092  -10.2381  -12.4236 H         1 <0>         0.0603
     74 H32         3.5103  -10.5282  -13.9986 H         1 <0>         0.1375
     75 H33         5.1067  -10.1420  -14.6847 H         1 <0>         0.1357
     76 H34         3.1139  -12.6629  -13.0058 H         1 <0>         0.1374
     77 H35         4.4128  -13.8785  -12.9471 H         1 <0>         0.1354
     78 H36         5.7008  -12.4372  -11.4009 H         1 <0>         0.0602
     79 H37         4.0885  -12.7929  -10.7348 H         1 <0>         0.1256
     80 H38         5.0217  -12.1033  -16.0508 H         1 <0>         0.1244
     81 H39         4.7251  -13.6946  -15.3105 H         1 <0>         0.1242
     82 H40         3.4165  -12.4904  -15.3864 H         1 <0>         0.1232
     83 H41         5.8962  -12.2309  -13.8366 H         1 <0>         0.4222
@<TRIPOS>BOND
     1    1    2 1
     2    1   43 1
     3    1   44 1
     4    1   45 1
     5    2    3 1
     6    2    4 1
     7    2   46 1
     8    3   47 1
     9    3   48 1
    10    3   49 1
    11    4    5 2
    12    4    6 2
    13    4    7 1
    14    7   12 ar
    15    7    8 ar
    16    8    9 ar
    17    8   50 1
    18    9   10 ar
    19    9   51 1
    20   10   11 ar
    21   10   52 1
    22   11   12 ar
    23   11   53 1
    24   12   13 1
    25   13   14 1
    26   13   54 1
    27   14   19 ar
    28   14   15 ar
    29   15   16 ar
    30   15   42 1
    31   16   17 ar
    32   16   55 1
    33   17   18 ar
    34   18   19 ar
    35   18   20 1
    36   20   21 1
    37   20   56 1
    38   21   26 ar
    39   21   22 ar
    40   22   23 ar
    41   22   57 1
    42   23   24 ar
    43   23   58 1
    44   24   25 ar
    45   24   29 1
    46   25   26 ar
    47   25   59 1
    48   26   27 1
    49   27   28 1
    50   28   60 1
    51   28   61 1
    52   28   62 1
    53   29   34 1
    54   29   30 1
    55   30   31 1
    56   30   63 1
    57   30   64 1
    58   31   32 1
    59   31   65 1
    60   31   66 1
    61   32   33 1
    62   32   35 1
    63   32   67 1
    64   33   34 1
    65   33   68 1
    66   33   69 1
    67   34   70 1
    68   34   71 1
    69   35   40 1
    70   35   36 1
    71   36   37 1
    72   36   72 1
    73   36   73 1
    74   37   38 1
    75   37   74 1
    76   37   75 1
    77   38   39 1
    78   38   41 1
    79   38   83 1
    80   39   40 1
    81   39   76 1
    82   39   77 1
    83   40   78 1
    84   40   79 1
    85   41   80 1
    86   41   81 1
    87   41   82 1
@<TRIPOS>MOLECULE
ZINC03816310
   51    55     0     0     0
SMALL
USER_CHARGES
4-amino-5-fluoro-3-[5-(4-methylpiperazin-1-yl)-3H-benzoimidazol-2-yl]-1H-quinolin-2-one
@<TRIPOS>ATOM
      1 C1         -4.4670    0.8494    3.0633 C.3       1 <0>        -0.0407
      2 C2         -3.3790    0.9463    0.9019 C.3       1 <0>         0.0019
      3 C3         -3.5151    1.4789   -0.5264 C.3       1 <0>         0.0203
      4 N1         -3.5799    2.9467   -0.4951 N.pl3     1 <0>        -0.4822
      5 C4         -4.7239    3.4034    0.3063 C.3       1 <0>         0.0231
      6 C5         -4.5878    2.8708    1.7347 C.3       1 <0>         0.0021
      7 C6         -3.6324    3.4738   -1.7895 C.ar      1 <0>         0.0898
      8 C7         -3.6187    2.6172   -2.8884 C.ar      1 <0>        -0.1658
      9 C8         -3.6694    3.1157   -4.1588 C.ar      1 <0>        -0.0428
     10 C9         -3.7362    4.4973   -4.3655 C.ar      1 <0>         0.0571
     11 C10        -3.7506    5.3641   -3.2589 C.ar      1 <0>         0.0655
     12 C11        -3.7036    4.8454   -1.9734 C.ar      1 <0>        -0.1134
     13 N2         -3.8198    6.6467   -3.7722 N.pl3     1 <0>        -0.5851
     14 H1         -3.8464    7.4962   -3.2453 H         1 <0>         0.4436
     15 C12        -3.8451    6.5353   -5.1390 C.2       1 <0>         0.4046
     16 N3         -3.7957    5.2687   -5.4809 N.2       1 <0>        -0.5294
     17 C13        -3.9164    7.6652   -6.0804 C.2       1 <0>        -0.3025
     18 C14        -4.0559    7.4305   -7.4504 C.2       1 <0>         0.3760
     19 C15        -4.1228    8.5898   -8.3476 C.ar      1 <0>        -0.1878
     20 C16        -4.0447    9.8830   -7.7997 C.ar      1 <0>         0.2450
     21 C17        -4.1078   10.9864   -8.6429 C.ar      1 <0>        -0.1734
     22 C18        -4.2458   10.8081  -10.0035 C.ar      1 <0>        -0.0185
     23 C19        -4.3231    9.5350  -10.5468 C.ar      1 <0>        -0.1801
     24 C20        -4.2628    8.4239   -9.7304 C.ar      1 <0>         0.1680
     25 F1         -4.3388    7.1843  -10.2623 F         1 <0>        -0.1206
     26 N4         -3.9076   10.0470   -6.4354 N.am      1 <0>        -0.6368
     27 H2         -3.8498   10.9715   -6.0585 H         1 <0>         0.4300
     28 C21        -3.8500    8.9949   -5.6023 C.2       1 <0>         0.5826
     29 O1         -3.7334    9.1908   -4.4050 O.2       1 <0>        -0.5600
     30 N5         -4.1288    6.1500   -7.9440 N.pl3     1 <0>        -0.8025
     31 H3         -3.5472    1.1734    3.5502 H         1 <0>         0.1241
     32 H4         -5.3249    1.2032    3.6351 H         1 <0>         0.1225
     33 H5         -4.4877   -0.2393    3.0134 H         1 <0>         0.1228
     34 H6         -3.3598   -0.1434    0.8835 H         1 <0>         0.1376
     35 H7         -2.4541    1.3189    1.3424 H         1 <0>         0.1399
     36 H8         -2.6529    1.1655   -1.1151 H         1 <0>         0.1307
     37 H9         -4.4260    1.0841   -0.9765 H         1 <0>         0.0717
     38 H10        -4.7431    4.4931    0.3248 H         1 <0>         0.1261
     39 H11        -5.6486    3.0309   -0.1345 H         1 <0>         0.0691
     40 H12        -3.6769    3.2656    2.1847 H         1 <0>         0.1400
     41 H13        -5.4498    3.1846    2.3235 H         1 <0>         0.1367
     42 H14        -3.5672    1.5496   -2.7341 H         1 <0>         0.1314
     43 H15        -3.6582    2.4431   -5.0037 H         1 <0>         0.1346
     44 H16        -3.7183    5.5073   -1.1202 H         1 <0>         0.1268
     45 H17        -4.0491   11.9836   -8.2323 H         1 <0>         0.1496
     46 H18        -4.2944   11.6697  -10.6529 H         1 <0>         0.1516
     47 H19        -4.4307    9.4121  -11.6144 H         1 <0>         0.1515
     48 H20        -4.3218    5.4103   -7.3468 H         1 <0>         0.4285
     49 H21        -3.9874    5.9859   -8.8895 H         1 <0>         0.4092
     50 N6         -4.5458    1.3938    1.6909 N.4       1 <0>        -0.3998
     51 H22        -5.4033    1.0486    1.2438 H         1 <0>         0.4274
@<TRIPOS>BOND
     1    1   31 1
     2    1   32 1
     3    1   33 1
     4    1   50 1
     5    2    3 1
     6    2   34 1
     7    2   35 1
     8    2   50 1
     9    3    4 1
    10    3   36 1
    11    3   37 1
    12    4    5 1
    13    4    7 1
    14    5    6 1
    15    5   38 1
    16    5   39 1
    17    6   40 1
    18    6   41 1
    19    6   50 1
    20    7   12 ar
    21    7    8 ar
    22    8    9 ar
    23    8   42 1
    24    9   10 ar
    25    9   43 1
    26   10   16 1
    27   10   11 ar
    28   11   12 ar
    29   11   13 1
    30   12   44 1
    31   13   14 1
    32   13   15 1
    33   15   16 2
    34   15   17 1
    35   17   28 1
    36   17   18 2
    37   18   19 1
    38   18   30 1
    39   19   24 ar
    40   19   20 ar
    41   20   21 ar
    42   20   26 1
    43   21   22 ar
    44   21   45 1
    45   22   23 ar
    46   22   46 1
    47   23   24 ar
    48   23   47 1
    49   24   25 1
    50   26   27 1
    51   26   28 am
    52   28   29 2
    53   30   48 1
    54   30   49 1
    55   50   51 1
@<TRIPOS>MOLECULE
ZINC03964325
   57    59     0     0     0
SMALL
USER_CHARGES

@<TRIPOS>ATOM
      1 C1          0.1489    2.0884    0.1150 C.3       1 <0>        -0.1876
      2 C2          0.1348    0.5603    0.1888 C.3       1 <0>        -0.0191
      3 N1         -1.2520    0.0881    0.2979 N.4       1 <0>        -0.3822
      4 C3         -1.9779    0.4111   -0.9377 C.3       1 <0>        -0.0142
      5 C4         -3.4549    0.0484   -0.7712 C.3       1 <0>        -0.1895
      6 C5         -1.2593   -1.3663    0.5041 C.3       1 <0>        -0.0265
      7 C6         -0.6131   -1.6936    1.8518 C.3       1 <0>         0.0952
      8 N2         -0.6203   -3.1440    2.0575 N.am      1 <0>        -0.7289
      9 C7         -0.0988   -3.6675    3.1846 C.2       1 <0>         0.6111
     10 O1          0.3779   -2.9358    4.0309 O.2       1 <0>        -0.5184
     11 C8         -0.1061   -5.1270    3.3915 C.2       1 <0>        -0.2420
     12 C9          0.9071   -6.0320    3.0089 C.2       1 <0>        -0.0577
     13 C10         0.4868   -7.2892    3.3960 C.2       1 <0>        -0.0075
     14 N3         -0.7476   -7.1595    3.9982 N.pl3     1 <0>        -0.4910
     15 H1         -1.2731   -7.8879    4.3645 H         1 <0>         0.4270
     16 C11        -1.1044   -5.8642    4.0022 C.2       1 <0>         0.1158
     17 C12        -2.3825   -5.3072    4.5743 C.3       1 <0>        -0.0999
     18 C13         1.1957   -8.4957    3.2079 C.2       1 <0>         0.0729
     19 C14         0.5100   -9.6674    2.9570 C.2       1 <0>        -0.1889
     20 C15         1.0648  -11.0377    2.8871 C.ar      1 <0>        -0.0736
     21 C16         2.3472  -11.5557    3.0375 C.ar      1 <0>        -0.1000
     22 C17         2.5553  -12.9162    2.9116 C.ar      1 <0>         0.0861
     23 C18         1.4888  -13.7593    2.6366 C.ar      1 <0>        -0.1139
     24 C19         0.2139  -13.2531    2.4856 C.ar      1 <0>        -0.1021
     25 C20        -0.0144  -11.8871    2.6092 C.ar      1 <0>         0.1282
     26 N4         -1.1765  -11.1301    2.5069 N.am      1 <0>        -0.6466
     27 C21        -0.9294   -9.8245    2.7079 C.2       1 <0>         0.5595
     28 O2         -1.7538   -8.9280    2.6842 O.2       1 <0>        -0.5156
     29 F1          3.7984  -13.4252    3.0561 F         1 <0>        -0.1318
     30 C22         2.1990   -5.6919    2.3116 C.3       1 <0>        -0.0931
     31 H2          1.1793    2.4435    0.1331 H         1 <0>         0.1076
     32 H3         -0.3308    2.4121   -0.8087 H         1 <0>         0.0811
     33 H4         -0.3916    2.4984    0.9682 H         1 <0>         0.0809
     34 H5          0.5888    0.1488   -0.7126 H         1 <0>         0.1317
     35 H6          0.6996    0.2334    1.0619 H         1 <0>         0.1337
     36 H7         -1.8867    1.4775   -1.1444 H         1 <0>         0.1351
     37 H8         -1.5554   -0.1571   -1.7664 H         1 <0>         0.1307
     38 H9         -3.5537   -1.0316   -0.6617 H         1 <0>         0.0802
     39 H10        -3.8523    0.5414    0.1160 H         1 <0>         0.0808
     40 H11        -4.0109    0.3769   -1.6492 H         1 <0>         0.1074
     41 H12        -2.2871   -1.7292    0.4963 H         1 <0>         0.1397
     42 H13        -0.6973   -1.8494   -0.2952 H         1 <0>         0.1376
     43 H14         0.4147   -1.3306    1.8596 H         1 <0>         0.0893
     44 H15        -1.1751   -1.2105    2.6511 H         1 <0>         0.0890
     45 H16        -1.0005   -3.7277    1.3824 H         1 <0>         0.4099
     46 H17        -3.1529   -5.3000    3.8032 H         1 <0>         0.0840
     47 H18        -2.7087   -5.9289    5.4080 H         1 <0>         0.0782
     48 H19        -2.2103   -4.2898    4.9254 H         1 <0>         0.0840
     49 H20         2.2744   -8.5020    3.2604 H         1 <0>         0.1589
     50 H21         3.1765  -10.8977    3.2512 H         1 <0>         0.1436
     51 H22         1.6578  -14.8215    2.5394 H         1 <0>         0.1485
     52 H23        -0.6084  -13.9196    2.2712 H         1 <0>         0.1415
     53 H24        -2.0541  -11.4980    2.3189 H         1 <0>         0.4217
     54 H25         2.9686   -5.4822    3.0545 H         1 <0>         0.0785
     55 H26         2.5107   -6.5337    1.6932 H         1 <0>         0.0726
     56 H27         2.0522   -4.8138    1.6827 H         1 <0>         0.0634
     57 H28        -1.7009    0.5410    1.0799 H         1 <0>         0.4247
@<TRIPOS>BOND
     1    1    2 1
     2    1   31 1
     3    1   32 1
     4    1   33 1
     5    2    3 1
     6    2   34 1
     7    2   35 1
     8    3    4 1
     9    3    6 1
    10    3   57 1
    11    4    5 1
    12    4   36 1
    13    4   37 1
    14    5   38 1
    15    5   39 1
    16    5   40 1
    17    6    7 1
    18    6   41 1
    19    6   42 1
    20    7    8 1
    21    7   43 1
    22    7   44 1
    23    8    9 am
    24    8   45 1
    25    9   10 2
    26    9   11 1
    27   11   16 2
    28   11   12 1
    29   12   13 2
    30   12   30 1
    31   13   14 1
    32   13   18 1
    33   14   15 1
    34   14   16 1
    35   16   17 1
    36   17   46 1
    37   17   47 1
    38   17   48 1
    39   18   19 2
    40   18   49 1
    41   19   27 1
    42   19   20 1
    43   20   25 ar
    44   20   21 ar
    45   21   22 ar
    46   21   50 1
    47   22   23 ar
    48   22   29 1
    49   23   24 ar
    50   23   51 1
    51   24   25 ar
    52   24   52 1
    53   25   26 1
    54   26   27 am
    55   26   53 1
    56   27   28 2
    57   30   54 1
    58   30   55 1
    59   30   56 1
@<TRIPOS>MOLECULE
ZINC17289894
   76    77     0     0     0
SMALL
USER_CHARGES
2-(diethylaminomethyl)-4-[(E)-2-[3-(diethylaminomethyl)-4-hydroxy-phenyl]-1-ethyl-but-1-enyl]phenol
@<TRIPOS>ATOM
      1 C1         -5.1527   -5.5023    0.3591 C.3       1 <0>        -0.1444
      2 C2         -3.8958   -6.0336    1.0511 C.3       1 <0>        -0.0955
      3 C3         -3.2627   -7.0990    0.1937 C.2       1 <0>        -0.0715
      4 C4         -2.2716   -6.7779   -0.6538 C.2       1 <0>        -0.0712
      5 C5         -1.6385   -7.8433   -1.5112 C.3       1 <0>        -0.0955
      6 C6         -2.3136   -7.8611   -2.8841 C.3       1 <0>        -0.1444
      7 C7         -1.8032   -5.3839   -0.7453 C.ar      1 <0>        -0.0436
      8 C8         -1.1852   -4.7783    0.3527 C.ar      1 <0>        -0.0597
      9 C9         -0.7493   -3.4744    0.2625 C.ar      1 <0>        -0.1338
     10 C10        -0.9227   -2.7618   -0.9173 C.ar      1 <0>         0.1384
     11 C11        -1.5411   -3.3572   -2.0089 C.ar      1 <0>        -0.1829
     12 C12        -1.9758   -4.6627   -1.9300 C.ar      1 <0>        -0.0710
     13 C13        -1.7316   -2.5766   -3.2838 C.3       1 <0>         0.0475
     14 C14        -2.8476   -0.6409   -2.3509 C.3       1 <0>        -0.0127
     15 C15        -1.8387    0.3261   -2.9738 C.3       1 <0>        -0.1750
     16 C16        -3.4528   -1.4424   -4.5541 C.3       1 <0>        -0.0126
     17 C17        -4.8609   -0.8515   -4.4596 C.3       1 <0>        -0.1887
     18 O1         -0.4908   -1.4764   -1.0017 O.3       1 <0>        -0.4984
     19 C18        -3.7311   -8.4931    0.2852 C.ar      1 <0>        -0.0433
     20 C19        -2.8754   -9.4904    0.7621 C.ar      1 <0>        -0.0599
     21 C20        -3.3179  -10.7926    0.8458 C.ar      1 <0>        -0.1333
     22 C21        -4.6120  -11.1151    0.4572 C.ar      1 <0>         0.1369
     23 C22        -5.4657  -10.1278   -0.0172 C.ar      1 <0>        -0.1827
     24 C23        -5.0340   -8.8215   -0.0991 C.ar      1 <0>        -0.0703
     25 C24        -6.8685  -10.4843   -0.4367 C.3       1 <0>         0.0474
     26 C25        -6.3502  -12.3321   -1.9130 C.3       1 <0>        -0.0138
     27 C26        -7.3087  -13.2762   -1.1843 C.3       1 <0>        -0.1750
     28 C27        -8.1947  -10.8508   -2.4290 C.3       1 <0>        -0.0144
     29 C28        -8.0816  -10.9821   -3.9492 C.3       1 <0>        -0.1870
     30 O2         -5.0440  -12.4004    0.5420 O.3       1 <0>        -0.4984
     31 H1         -5.6106   -4.7317    0.9793 H         1 <0>         0.0644
     32 H2         -4.8831   -5.0778   -0.6080 H         1 <0>         0.0502
     33 H3         -5.8598   -6.3189    0.2131 H         1 <0>         0.0539
     34 H4         -4.1653   -6.4581    2.0181 H         1 <0>         0.0778
     35 H5         -3.1887   -5.2170    1.1971 H         1 <0>         0.0810
     36 H6         -0.5764   -7.6295   -1.6313 H         1 <0>         0.0778
     37 H7         -1.7617   -8.8151   -1.0331 H         1 <0>         0.0810
     38 H8         -3.3757   -8.0749   -2.7639 H         1 <0>         0.0503
     39 H9         -2.1904   -6.8893   -3.3621 H         1 <0>         0.0538
     40 H10        -1.8557   -8.6317   -3.5042 H         1 <0>         0.0644
     41 H11        -1.0494   -5.3317    1.2702 H         1 <0>         0.1405
     42 H12        -0.2718   -3.0056    1.1102 H         1 <0>         0.1459
     43 H13        -2.4530   -5.1263   -2.7807 H         1 <0>         0.1360
     44 H14        -0.8997   -1.8843   -3.4137 H         1 <0>         0.1399
     45 H15        -1.7675   -3.2641   -4.1289 H         1 <0>         0.1329
     46 H16        -3.8130   -0.1447   -2.2521 H         1 <0>         0.1239
     47 H17        -2.4952   -0.9495   -1.3667 H         1 <0>         0.1371
     48 H18        -0.8979   -0.1950   -3.1513 H         1 <0>         0.0774
     49 H19        -2.2305    0.7008   -3.9194 H         1 <0>         0.0756
     50 H20        -1.6688    1.1614   -2.2944 H         1 <0>         0.1052
     51 H21        -2.7749   -0.7002   -4.9758 H         1 <0>         0.1340
     52 H22        -3.4709   -2.3237   -5.1952 H         1 <0>         0.1259
     53 H23        -5.5506   -1.6126   -4.0946 H         1 <0>         0.0774
     54 H24        -4.8549   -0.0065   -3.7711 H         1 <0>         0.0814
     55 H25        -5.1805   -0.5145   -5.4457 H         1 <0>         0.1068
     56 H26         0.4205   -1.3872   -1.3125 H         1 <0>         0.4059
     57 H27        -1.8690   -9.2407    1.0641 H         1 <0>         0.1406
     58 H28        -2.6577  -11.5637    1.2145 H         1 <0>         0.1460
     59 H29        -5.7001   -8.0536   -0.4640 H         1 <0>         0.1363
     60 H30        -7.2526  -11.2718    0.2117 H         1 <0>         0.1395
     61 H31        -7.5065   -9.6042   -0.3563 H         1 <0>         0.1327
     62 H32        -6.2750  -12.6274   -2.9595 H         1 <0>         0.1225
     63 H33        -5.3654  -12.3849   -1.4488 H         1 <0>         0.1408
     64 H34        -6.8833  -14.2795   -1.1616 H         1 <0>         0.1055
     65 H35        -7.4612  -12.9231   -0.1644 H         1 <0>         0.0767
     66 H36        -8.2645  -13.2986   -1.7078 H         1 <0>         0.0756
     67 H37        -8.8313  -11.6465   -2.0420 H         1 <0>         0.1352
     68 H38        -8.6301   -9.8833   -2.1793 H         1 <0>         0.1258
     69 H39        -7.3704  -10.2468   -4.3254 H         1 <0>         0.0761
     70 H40        -7.7363  -11.9844   -4.2026 H         1 <0>         0.0814
     71 H41        -9.0576  -10.8087   -4.4024 H         1 <0>         0.1066
     72 H42        -5.4535  -12.6227    1.3893 H         1 <0>         0.4056
     73 N1         -3.0099   -1.8392   -3.2009 N.4       1 <0>        -0.3920
     74 H43        -3.7211   -2.4506   -2.7831 H         1 <0>         0.4228
     75 N2         -6.8408  -10.9396   -1.8425 N.4       1 <0>        -0.3918
     76 H44        -6.2058  -10.3348   -2.3765 H         1 <0>         0.4227
@<TRIPOS>BOND
     1    1    2 1
     2    1   31 1
     3    1   32 1
     4    1   33 1
     5    2    3 1
     6    2   34 1
     7    2   35 1
     8    3    4 2
     9    3   19 1
    10    4    5 1
    11    4    7 1
    12    5    6 1
    13    5   36 1
    14    5   37 1
    15    6   38 1
    16    6   39 1
    17    6   40 1
    18    7   12 ar
    19    7    8 ar
    20    8    9 ar
    21    8   41 1
    22    9   10 ar
    23    9   42 1
    24   10   11 ar
    25   10   18 1
    26   11   12 ar
    27   11   13 1
    28   12   43 1
    29   13   44 1
    30   13   45 1
    31   13   73 1
    32   14   15 1
    33   14   46 1
    34   14   47 1
    35   14   73 1
    36   15   48 1
    37   15   49 1
    38   15   50 1
    39   16   17 1
    40   16   51 1
    41   16   52 1
    42   16   73 1
    43   17   53 1
    44   17   54 1
    45   17   55 1
    46   18   56 1
    47   19   24 ar
    48   19   20 ar
    49   20   21 ar
    50   20   57 1
    51   21   22 ar
    52   21   58 1
    53   22   23 ar
    54   22   30 1
    55   23   24 ar
    56   23   25 1
    57   24   59 1
    58   25   60 1
    59   25   61 1
    60   25   75 1
    61   26   27 1
    62   26   62 1
    63   26   63 1
    64   26   75 1
    65   27   64 1
    66   27   65 1
    67   27   66 1
    68   28   29 1
    69   28   67 1
    70   28   68 1
    71   28   75 1
    72   29   69 1
    73   29   70 1
    74   29   71 1
    75   30   72 1
    76   73   74 1
    77   75   76 1
@<TRIPOS>MOLECULE
ZINC03820040
   62    66     0     0     0
SMALL
USER_CHARGES
N-[4-[4-(4-methylpiperazin-1-yl)-6-[(5-methyl-2H-pyrazol-3-yl)amino]pyrimidin-2-yl]sulfanylphenyl]cyclopropanecarboxamide
@<TRIPOS>ATOM
      1 C1          1.8035   -7.6837    0.5070 C.3       1 <0>        -0.0779
      2 C2          2.3685   -6.3674    0.0389 C.2       1 <0>         0.0949
      3 C3          1.9325   -5.1020    0.4407 C.2       1 <0>        -0.2905
      4 C4          2.6904   -4.1743   -0.2066 C.2       1 <0>         0.3252
      5 N1          3.5799   -4.8447   -0.9836 N.pl3     1 <0>        -0.4853
      6 H1          4.2729   -4.4328   -1.5753 H         1 <0>         0.4473
      7 N2          3.3537   -6.2159   -0.8085 N.2       1 <0>        -0.2711
      8 N3          2.5778   -2.7905   -0.0888 N.pl3     1 <0>        -0.6296
      9 C5          1.3376   -2.2123    0.1391 C.ar      1 <0>         0.4706
     10 C6          0.1755   -2.9717    0.0343 C.ar      1 <0>        -0.2983
     11 C7         -1.0466   -2.3490    0.2714 C.ar      1 <0>         0.3791
     12 N4         -1.0643   -1.0564    0.5886 N.ar      1 <0>        -0.5664
     13 C8          0.0620   -0.3646    0.6795 C.ar      1 <0>         0.3511
     14 N5          1.2425   -0.9231    0.4557 N.ar      1 <0>        -0.5606
     15 S1         -0.0125    1.3444    1.1018 S.3       1 <0>         0.1303
     16 C9          1.7078    1.7032    1.2298 C.ar      1 <0>        -0.1638
     17 C10         2.3806    1.4637    2.4214 C.ar      1 <0>        -0.0284
     18 C11         3.7293    1.7409    2.5200 C.ar      1 <0>        -0.1315
     19 C12         4.4114    2.2681    1.4313 C.ar      1 <0>         0.1902
     20 C13         3.7379    2.5125    0.2417 C.ar      1 <0>        -0.1573
     21 C14         2.3903    2.2311    0.1410 C.ar      1 <0>        -0.0288
     22 N6          5.7793    2.5539    1.5333 N.am      1 <0>        -0.6744
     23 C15         6.5739    1.7808    2.2997 C.2       1 <0>         0.5466
     24 O1          6.1269    0.7811    2.8213 O.2       1 <0>        -0.5140
     25 C16         8.0178    2.1584    2.5086 C.3       1 <0>        -0.2022
     26 C17         9.0818    1.2604    1.8742 C.3       1 <0>        -0.1494
     27 C18         8.8679    1.2402    3.3890 C.3       1 <0>        -0.1425
     28 N7         -2.2296   -3.0657    0.1789 N.pl3     1 <0>        -0.4710
     29 C19        -2.3617   -3.6957   -1.1422 C.3       1 <0>         0.0277
     30 C20        -3.6379   -4.5399   -1.1765 C.3       1 <0>         0.0040
     31 C21        -4.6643   -3.0537    0.4349 C.3       1 <0>        -0.0004
     32 C22        -3.3881   -2.2095    0.4692 C.3       1 <0>         0.0347
     33 C23        -6.0501   -4.4431   -0.9842 C.3       1 <0>        -0.0407
     34 H2          2.3381   -8.0122    1.3982 H         1 <0>         0.0831
     35 H3          0.7460   -7.5623    0.7417 H         1 <0>         0.0784
     36 H4          1.9177   -8.4287   -0.2805 H         1 <0>         0.0774
     37 H5          1.1347   -4.8964    1.1389 H         1 <0>         0.1550
     38 H6          3.3667   -2.2314   -0.1662 H         1 <0>         0.4241
     39 H7          0.2211   -4.0192   -0.2246 H         1 <0>         0.1631
     40 H8          1.8494    1.0573    3.2693 H         1 <0>         0.1319
     41 H9          4.2533    1.5509    3.4451 H         1 <0>         0.1405
     42 H10         4.2686    2.9225   -0.6049 H         1 <0>         0.1339
     43 H11         1.8666    2.4209   -0.7843 H         1 <0>         0.1341
     44 H12         6.1543    3.3081    1.0523 H         1 <0>         0.4168
     45 H13         8.2224    3.2282    2.5520 H         1 <0>         0.1306
     46 H14         8.7374    0.3965    1.3057 H         1 <0>         0.0995
     47 H15         9.9866    1.7393    1.5000 H         1 <0>         0.1100
     48 H16         9.6320    1.7059    4.0114 H         1 <0>         0.1092
     49 H17         8.3827    0.3633    3.8175 H         1 <0>         0.1093
     50 H18        -2.4158   -2.9234   -1.9095 H         1 <0>         0.0737
     51 H19        -1.4982   -4.3342   -1.3286 H         1 <0>         0.1318
     52 H20        -3.5722   -5.3290   -0.4274 H         1 <0>         0.1439
     53 H21        -3.7533   -4.9852   -2.1646 H         1 <0>         0.1412
     54 H22        -4.6102   -3.8259    1.2022 H         1 <0>         0.1407
     55 H23        -5.5278   -2.4152    0.6217 H         1 <0>         0.1407
     56 H24        -3.2729   -1.7645    1.4575 H         1 <0>         0.1357
     57 H25        -3.4537   -1.4201   -0.2796 H         1 <0>         0.0793
     58 H26        -6.8948   -3.7714   -0.8313 H         1 <0>         0.1238
     59 H27        -6.1225   -4.8989   -1.9717 H         1 <0>         0.1230
     60 H28        -6.0632   -5.2226   -0.2224 H         1 <0>         0.1251
     61 N8         -4.7966   -3.6630   -0.9051 N.4       1 <0>        -0.4014
     62 H29        -4.8229   -2.9169   -1.6099 H         1 <0>         0.4281
@<TRIPOS>BOND
     1    1    2 1
     2    1   34 1
     3    1   35 1
     4    1   36 1
     5    2    7 2
     6    2    3 1
     7    3    4 2
     8    3   37 1
     9    4    5 1
    10    4    8 1
    11    5    6 1
    12    5    7 1
    13    8    9 1
    14    8   38 1
    15    9   14 ar
    16    9   10 ar
    17   10   11 ar
    18   10   39 1
    19   11   12 ar
    20   11   28 1
    21   12   13 ar
    22   13   14 ar
    23   13   15 1
    24   15   16 1
    25   16   21 ar
    26   16   17 ar
    27   17   18 ar
    28   17   40 1
    29   18   19 ar
    30   18   41 1
    31   19   20 ar
    32   19   22 1
    33   20   21 ar
    34   20   42 1
    35   21   43 1
    36   22   23 am
    37   22   44 1
    38   23   24 2
    39   23   25 1
    40   25   27 1
    41   25   26 1
    42   25   45 1
    43   26   27 1
    44   26   46 1
    45   26   47 1
    46   27   48 1
    47   27   49 1
    48   28   32 1
    49   28   29 1
    50   29   30 1
    51   29   50 1
    52   29   51 1
    53   30   52 1
    54   30   53 1
    55   30   61 1
    56   31   32 1
    57   31   54 1
    58   31   55 1
    59   31   61 1
    60   32   56 1
    61   32   57 1
    62   33   58 1
    63   33   59 1
    64   33   60 1
    65   33   61 1
    66   61   62 1
@<TRIPOS>MOLECULE
ZINC18825339
   59    62     0     0     0
SMALL
USER_CHARGES
5-[(Z)-(5-fluoro-2-oxo-indolin-3-ylidene)methyl]-N-[(2R)-2-hydroxy-3-morpholino-propyl]-2,4-dimethyl-1H-pyrrole-3-carboxamide
@<TRIPOS>ATOM
      1 C1          3.5607    0.7280    0.3667 C.3       1 <0>        -0.0956
      2 C2          2.0758    0.7165    0.1102 C.2       1 <0>        -0.0564
      3 C3          1.2591    1.8188   -0.0477 C.2       1 <0>        -0.0308
      4 N1         -0.0271    1.3691   -0.2640 N.pl3     1 <0>        -0.5068
      5 H1         -0.8436    2.0903   -0.4163 H         1 <0>         0.4494
      6 C4         -0.0354    0.0257   -0.2455 C.2       1 <0>         0.1277
      7 C5          1.2525   -0.4230   -0.0155 C.2       1 <0>        -0.2308
      8 C6          1.6847   -1.8291    0.0810 C.2       1 <0>         0.5980
      9 O1          2.0430   -2.4250   -0.9167 O.2       1 <0>        -0.5421
     10 N2          1.6827   -2.4542    1.2750 N.am      1 <0>        -0.7266
     11 C7          2.1121   -3.8516    1.3710 C.3       1 <0>         0.1299
     12 C8          2.0150   -4.3162    2.8255 C.3       1 <0>         0.1144
     13 H2          2.5334   -3.6206    3.5018 H         1 <0>         0.0568
     14 C9          2.5799   -5.7329    2.9471 C.3       1 <0>         0.0228
     15 N3          2.4867   -6.1790    4.3436 N.3       1 <0>        -0.5349
     16 C10         3.3671   -5.3829    5.2109 C.3       1 <0>         0.0083
     17 C11         3.1945   -5.8402    6.6618 C.3       1 <0>         0.0618
     18 O2          3.4694   -7.2408    6.7508 O.3       1 <0>        -0.3843
     19 C12         2.6296   -8.0463    5.9193 C.3       1 <0>         0.0614
     20 C13         2.7965   -7.6114    4.4609 C.3       1 <0>         0.0172
     21 O3          0.6463   -4.3123    3.2364 O.3       1 <0>        -0.5882
     22 C14        -1.2476   -0.8477   -0.4426 C.3       1 <0>        -0.0994
     23 C15         1.6686    3.1691    0.0027 C.2       1 <0>         0.0908
     24 C16         0.8216    4.1284    0.5209 C.2       1 <0>        -0.2125
     25 C17         1.0162    5.5955    0.5210 C.ar      1 <0>        -0.0684
     26 C18         2.0202    6.4240    0.0297 C.ar      1 <0>        -0.1043
     27 C19         1.9118    7.7937    0.1786 C.ar      1 <0>         0.0808
     28 C20         0.8031    8.3379    0.8097 C.ar      1 <0>        -0.1198
     29 C21        -0.2000    7.5233    1.2941 C.ar      1 <0>        -0.1061
     30 C22        -0.1080    6.1430    1.1533 C.ar      1 <0>         0.1250
     31 N4         -0.9593    5.1144    1.5420 N.am      1 <0>        -0.6604
     32 C23        -0.4649    3.9133    1.1971 C.2       1 <0>         0.5647
     33 O4         -0.9909    2.8351    1.4086 O.2       1 <0>        -0.5132
     34 F1          2.8866    8.6030   -0.2904 F         1 <0>        -0.1355
     35 H3          3.9167    1.7678    0.4131 H         1 <0>         0.0672
     36 H4          4.0776    0.1994   -0.4478 H         1 <0>         0.0746
     37 H5          3.7717    0.2252    1.3221 H         1 <0>         0.0710
     38 H6          1.3586   -1.9152    2.1775 H         1 <0>         0.4262
     39 H7          1.4633   -4.4786    0.7417 H         1 <0>         0.0750
     40 H8          3.1531   -3.9398    1.0266 H         1 <0>         0.0785
     41 H9          2.0023   -6.4143    2.3052 H         1 <0>         0.0900
     42 H10         3.6334   -5.7360    2.6307 H         1 <0>         0.0465
     43 H11         4.4130   -5.5254    4.9015 H         1 <0>         0.0459
     44 H12         3.1012   -4.3189    5.1257 H         1 <0>         0.0881
     45 H13         3.8925   -5.2859    7.3064 H         1 <0>         0.1001
     46 H14         2.1618   -5.6458    6.9871 H         1 <0>         0.0615
     47 H15         2.9156   -9.1033    6.0238 H         1 <0>         0.1009
     48 H16         1.5805   -7.9185    6.2243 H         1 <0>         0.0621
     49 H17         2.1104   -8.1883    3.8234 H         1 <0>         0.0898
     50 H18         3.8332   -7.7899    4.1393 H         1 <0>         0.0455
     51 H19         0.3780   -4.6185    4.2583 H         1 <0>         0.4136
     52 H20        -0.9523   -1.9052   -0.3757 H         1 <0>         0.0845
     53 H21        -1.6843   -0.6508   -1.4328 H         1 <0>         0.0777
     54 H22        -1.9909   -0.6245    0.3369 H         1 <0>         0.0809
     55 H23         2.6624    3.4568   -0.3709 H         1 <0>         0.1579
     56 H24         2.8828    5.9984   -0.4614 H         1 <0>         0.1409
     57 H25         0.7239    9.4091    0.9228 H         1 <0>         0.1443
     58 H26        -1.0583    7.9589    1.7840 H         1 <0>         0.1386
     59 H27        -1.9003    5.3463    2.0623 H         1 <0>         0.4455
@<TRIPOS>BOND
     1    1    2 1
     2    1   35 1
     3    1   36 1
     4    1   37 1
     5    2    7 1
     6    2    3 2
     7    3    4 1
     8    3   23 1
     9    4    5 1
    10    4    6 1
    11    6    7 2
    12    6   22 1
    13    7    8 1
    14    8    9 2
    15    8   10 am
    16   10   11 1
    17   10   38 1
    18   11   12 1
    19   11   39 1
    20   11   40 1
    21   12   13 1
    22   12   14 1
    23   12   21 1
    24   14   15 1
    25   14   41 1
    26   14   42 1
    27   15   20 1
    28   15   16 1
    29   16   17 1
    30   16   43 1
    31   16   44 1
    32   17   18 1
    33   17   45 1
    34   17   46 1
    35   18   19 1
    36   19   20 1
    37   19   47 1
    38   19   48 1
    39   20   49 1
    40   20   50 1
    41   21   51 1
    42   22   52 1
    43   22   53 1
    44   22   54 1
    45   23   24 2
    46   23   55 1
    47   24   32 1
    48   24   25 1
    49   25   30 ar
    50   25   26 ar
    51   26   27 ar
    52   26   56 1
    53   27   28 ar
    54   27   34 1
    55   28   29 ar
    56   28   57 1
    57   29   30 ar
    58   29   58 1
    59   30   31 1
    60   31   32 am
    61   31   59 1
    62   32   33 2
@<TRIPOS>MOLECULE
ZINC18825344
   59    62     0     0     0
SMALL
USER_CHARGES
5-[(Z)-(5-fluoro-2-oxo-indolin-3-ylidene)methyl]-N-[(2S)-2-hydroxy-3-morpholino-propyl]-2,4-dimethyl-1H-pyrrole-3-carboxamide
@<TRIPOS>ATOM
      1 C1          4.7056    0.6287    1.0117 C.3       1 <0>        -0.0968
      2 C2          3.2464    0.8378    0.6983 C.2       1 <0>        -0.0523
      3 C3          2.5980    2.0501    0.5678 C.2       1 <0>        -0.0327
      4 N1          1.2732    1.7961    0.2789 N.pl3     1 <0>        -0.5060
      5 H1          0.5720    2.6311    0.1339 H         1 <0>         0.4496
      6 C4          1.0783    0.4679    0.2258 C.2       1 <0>         0.1246
      7 C5          2.2801   -0.1676    0.4808 C.2       1 <0>        -0.2308
      8 C6          2.5088   -1.6234    0.5191 C.2       1 <0>         0.5976
      9 O1          2.8262   -2.2159   -0.4944 O.2       1 <0>        -0.5428
     10 N2          2.3662   -2.2977    1.6773 N.am      1 <0>        -0.7254
     11 C7          2.5935   -3.7444    1.7154 C.3       1 <0>         0.1298
     12 C8          2.3672   -4.2590    3.1384 C.3       1 <0>         0.1172
     13 H2          1.3599   -4.0040    3.4994 H         1 <0>         0.0560
     14 C9          2.6045   -5.7699    3.1781 C.3       1 <0>         0.0219
     15 N3          2.3382   -6.2720    4.5327 N.3       1 <0>        -0.5356
     16 C10         2.9762   -7.5793    4.7450 C.3       1 <0>         0.0168
     17 C11         2.7241   -8.0365    6.1842 C.3       1 <0>         0.0612
     18 O2          1.3152   -8.0759    6.4267 O.3       1 <0>        -0.3844
     19 C12         0.6618   -6.8191    6.2299 C.3       1 <0>         0.0617
     20 C13         0.8930   -6.3496    4.7911 C.3       1 <0>         0.0111
     21 O3          3.2765   -3.6103    4.0297 O.3       1 <0>        -0.5892
     22 C14        -0.2328   -0.2165   -0.0637 C.3       1 <0>        -0.0987
     23 C15         3.1876    3.3256    0.7056 C.2       1 <0>         0.0935
     24 C16         2.4515    4.3746    1.2192 C.2       1 <0>        -0.2157
     25 C17         2.8515    5.7966    1.3077 C.ar      1 <0>        -0.0669
     26 C18         3.9943    6.4912    0.9234 C.ar      1 <0>        -0.1048
     27 C19         4.0710    7.8545    1.1363 C.ar      1 <0>         0.0814
     28 C20         3.0098    8.5263    1.7247 C.ar      1 <0>        -0.1204
     29 C21         1.8704    7.8457    2.1029 C.ar      1 <0>        -0.1055
     30 C22         1.7753    6.4739    1.8965 C.ar      1 <0>         0.1237
     31 N4          0.7622    5.5637    2.1775 N.am      1 <0>        -0.6596
     32 C23         1.1039    4.3195    1.8021 C.2       1 <0>         0.5657
     33 O4          0.4171    3.3209    1.9242 O.2       1 <0>        -0.5153
     34 F1          5.1807    8.5334    0.7715 F         1 <0>        -0.1355
     35 H3          5.1994    1.6049    1.1269 H         1 <0>         0.0668
     36 H4          5.1808    0.0720    0.1906 H         1 <0>         0.0744
     37 H5          4.8016    0.0567    1.9464 H         1 <0>         0.0741
     38 H6          2.0791   -1.7617    2.5940 H         1 <0>         0.4273
     39 H7          1.8935   -4.2437    1.0293 H         1 <0>         0.0777
     40 H8          3.6268   -3.9615    1.4070 H         1 <0>         0.0736
     41 H9          1.9304   -6.2658    2.4641 H         1 <0>         0.0486
     42 H10         3.6486   -5.9844    2.9062 H         1 <0>         0.0884
     43 H11         2.5501   -8.3132    4.0451 H         1 <0>         0.0451
     44 H12         4.0587   -7.4917    4.5704 H         1 <0>         0.0900
     45 H13         3.1515   -9.0395    6.3305 H         1 <0>         0.1008
     46 H14         3.1986   -7.3305    6.8817 H         1 <0>         0.0620
     47 H15        -0.4170   -6.9344    6.4112 H         1 <0>         0.1000
     48 H16         1.0741   -6.0778    6.9303 H         1 <0>         0.0613
     49 H17         0.4415   -5.3564    4.6504 H         1 <0>         0.0873
     50 H18         0.4333   -7.0637    4.0920 H         1 <0>         0.0461
     51 H19         3.2627   -3.8533    5.1024 H         1 <0>         0.4141
     52 H20        -0.0899   -1.3070   -0.0417 H         1 <0>         0.0829
     53 H21        -0.5927    0.0862   -1.0581 H         1 <0>         0.0781
     54 H22        -0.9728    0.0718    0.6974 H         1 <0>         0.0803
     55 H23         4.2335    3.4835    0.4037 H         1 <0>         0.1584
     56 H24         4.8196    5.9664    0.4654 H         1 <0>         0.1411
     57 H25         3.0756    9.5918    1.8882 H         1 <0>         0.1443
     58 H26         1.0507    8.3797    2.5605 H         1 <0>         0.1385
     59 H27        -0.1701    5.9069    2.6497 H         1 <0>         0.4455
@<TRIPOS>BOND
     1    1    2 1
     2    1   35 1
     3    1   36 1
     4    1   37 1
     5    2    7 1
     6    2    3 2
     7    3    4 1
     8    3   23 1
     9    4    5 1
    10    4    6 1
    11    6    7 2
    12    6   22 1
    13    7    8 1
    14    8    9 2
    15    8   10 am
    16   10   11 1
    17   10   38 1
    18   11   12 1
    19   11   39 1
    20   11   40 1
    21   12   13 1
    22   12   14 1
    23   12   21 1
    24   14   15 1
    25   14   41 1
    26   14   42 1
    27   15   20 1
    28   15   16 1
    29   16   17 1
    30   16   43 1
    31   16   44 1
    32   17   18 1
    33   17   45 1
    34   17   46 1
    35   18   19 1
    36   19   20 1
    37   19   47 1
    38   19   48 1
    39   20   49 1
    40   20   50 1
    41   21   51 1
    42   22   52 1
    43   22   53 1
    44   22   54 1
    45   23   24 2
    46   23   55 1
    47   24   32 1
    48   24   25 1
    49   25   30 ar
    50   25   26 ar
    51   26   27 ar
    52   26   56 1
    53   27   28 ar
    54   27   34 1
    55   28   29 ar
    56   28   57 1
    57   29   30 ar
    58   29   58 1
    59   30   31 1
    60   31   32 am
    61   31   59 1
    62   32   33 2
@<TRIPOS>MOLECULE
ZINC23247639
   69    72     0     0     0
SMALL
USER_CHARGES
1-[4-[(4-ethylpiperazin-1-yl)methyl]-3-(trifluoromethyl)phenyl]-3-[4-(6-methylaminopyrimidin-4-yl)oxyphenyl]urea
@<TRIPOS>ATOM
      1 C1          8.9417    3.3719    8.2172 C.3       1 <0>        -0.1901
      2 C2         10.1498    2.9102    7.3997 C.3       1 <0>        -0.0070
      3 N1          9.9972    3.3533    6.0075 N.4       1 <0>        -0.4011
      4 C3         11.2367    3.1387    5.2477 C.3       1 <0>         0.0016
      5 C4         11.0629    3.6845    3.8284 C.3       1 <0>         0.0271
      6 N2          9.9288    3.0094    3.1822 N.3       1 <0>        -0.5300
      7 C5          8.6893    3.2240    3.9420 C.3       1 <0>         0.0232
      8 C6          8.8631    2.6781    5.3612 C.3       1 <0>        -0.0016
      9 C7          9.7762    3.4524    1.7899 C.3       1 <0>         0.0786
     10 C8          8.7879    2.5601    1.0842 C.ar      1 <0>        -0.0666
     11 C9          7.5022    3.0092    0.8434 C.ar      1 <0>        -0.0932
     12 C10         6.5958    2.1959    0.1923 C.ar      1 <0>        -0.0888
     13 C11         6.9731    0.9214   -0.2106 C.ar      1 <0>         0.1880
     14 C12         8.2646    0.4735    0.0326 C.ar      1 <0>        -0.1043
     15 C13         9.1683    1.2940    0.6793 C.ar      1 <0>        -0.1369
     16 C14        10.5702    0.8086    0.9441 C.3       1 <0>         0.5111
     17 F1         10.7250   -0.4786    0.4184 F         1 <0>        -0.1776
     18 F2         11.4860    1.6739    0.3362 F         1 <0>        -0.1774
     19 F3         10.8008    0.7797    2.3237 F         1 <0>        -0.1628
     20 N3          6.0552    0.0926   -0.8655 N.am      1 <0>        -0.6979
     21 C15         4.7513    0.1311   -0.5266 C.2       1 <0>         0.7117
     22 O1          4.3858    0.8194    0.4067 O.2       1 <0>        -0.5623
     23 N4          3.8526   -0.5934   -1.2222 N.am      1 <0>        -0.6900
     24 C16         2.4863   -0.4790   -0.9335 C.ar      1 <0>         0.1635
     25 C17         1.5516   -0.5518   -1.9576 C.ar      1 <0>        -0.1265
     26 C18         0.2052   -0.4394   -1.6724 C.ar      1 <0>        -0.0923
     27 C19        -0.2137   -0.2543   -0.3628 C.ar      1 <0>         0.0841
     28 C20         0.7198   -0.1815    0.6609 C.ar      1 <0>        -0.0957
     29 C21         2.0665   -0.2932    0.3769 C.ar      1 <0>        -0.1058
     30 O2         -1.5393   -0.1385   -0.0833 O.3       1 <0>        -0.2424
     31 C22        -2.3129   -1.2454   -0.1983 C.ar      1 <0>         0.3836
     32 C23        -3.6894   -1.1637   -0.0277 C.ar      1 <0>        -0.3134
     33 C24        -4.4409   -2.3284   -0.1601 C.ar      1 <0>         0.4631
     34 N5         -3.8165   -3.4721   -0.4341 N.ar      1 <0>        -0.5936
     35 C25        -2.5082   -3.5081   -0.5840 C.ar      1 <0>         0.3760
     36 N6         -1.7644   -2.4263   -0.4707 N.ar      1 <0>        -0.6039
     37 N7         -5.8178   -2.2988   -0.0034 N.pl3     1 <0>        -0.7218
     38 C26        -6.4937   -1.0344    0.2979 C.3       1 <0>         0.0891
     39 H1          9.0560    3.0401    9.2597 H         1 <0>         0.1066
     40 H2          8.0243    2.9380    7.7928 H         1 <0>         0.0798
     41 H3          8.8763    4.4695    8.1868 H         1 <0>         0.0803
     42 H4         11.0672    3.3441    7.8241 H         1 <0>         0.1306
     43 H5         10.2153    1.8126    7.4301 H         1 <0>         0.1269
     44 H6         12.0665    3.6630    5.7442 H         1 <0>         0.1361
     45 H7         11.4577    2.0621    5.2031 H         1 <0>         0.1357
     46 H8         10.8699    4.7665    3.8728 H         1 <0>         0.0625
     47 H9         11.9796    3.4990    3.2494 H         1 <0>         0.1239
     48 H10         8.4684    4.3007    3.9867 H         1 <0>         0.0621
     49 H11         7.8594    2.6998    3.4455 H         1 <0>         0.1239
     50 H12         9.0569    1.5962    5.3178 H         1 <0>         0.1351
     51 H13         7.9470    2.8635    5.9412 H         1 <0>         0.1359
     52 H14         9.4106    4.4897    1.7732 H         1 <0>         0.0663
     53 H15        10.7489    3.3982    1.2791 H         1 <0>         0.1073
     54 H16         7.2082    3.9988    1.1607 H         1 <0>         0.1358
     55 H17         5.5933    2.5489    0.0003 H         1 <0>         0.1466
     56 H18         8.5625   -0.5152   -0.2838 H         1 <0>         0.1447
     57 H19         6.3979   -0.5903   -1.6569 H         1 <0>         0.4387
     58 H20         4.1917   -1.2745   -2.0166 H         1 <0>         0.4355
     59 H21         1.8775   -0.6959   -2.9771 H         1 <0>         0.1334
     60 H22        -0.5220   -0.4960   -2.4689 H         1 <0>         0.1303
     61 H23         0.3932   -0.0371    1.6801 H         1 <0>         0.1327
     62 H24         2.7931   -0.2369    1.1740 H         1 <0>         0.1442
     63 H25        -4.1646   -0.2205    0.1982 H         1 <0>         0.1466
     64 H26        -2.0315   -4.4515   -0.8058 H         1 <0>         0.2000
     65 H27        -6.4030   -3.2246   -0.1053 H         1 <0>         0.4376
     66 H28        -7.5762   -1.2091    0.3856 H         1 <0>         0.0864
     67 H29        -6.3028   -0.3146   -0.5117 H         1 <0>         0.0603
     68 H30        -6.1096   -0.6302    1.2461 H         1 <0>         0.0599
     69 H31         9.7882    4.4332    6.0188 H         1 <0>         0.4364
@<TRIPOS>BOND
     1    1    2 1
     2    1   39 1
     3    1   40 1
     4    1   41 1
     5    2    3 1
     6    2   42 1
     7    2   43 1
     8    3    8 1
     9    3    4 1
    10    3   69 1
    11    4    5 1
    12    4   44 1
    13    4   45 1
    14    5    6 1
    15    5   46 1
    16    5   47 1
    17    6    7 1
    18    6    9 1
    19    7    8 1
    20    7   48 1
    21    7   49 1
    22    8   50 1
    23    8   51 1
    24    9   10 1
    25    9   52 1
    26    9   53 1
    27   10   15 ar
    28   10   11 ar
    29   11   12 ar
    30   11   54 1
    31   12   13 ar
    32   12   55 1
    33   13   14 ar
    34   13   20 1
    35   14   15 ar
    36   14   56 1
    37   15   16 1
    38   16   17 1
    39   16   18 1
    40   16   19 1
    41   20   21 am
    42   20   57 1
    43   21   22 2
    44   21   23 am
    45   23   24 1
    46   23   58 1
    47   24   29 ar
    48   24   25 ar
    49   25   26 ar
    50   25   59 1
    51   26   27 ar
    52   26   60 1
    53   27   28 ar
    54   27   30 1
    55   28   29 ar
    56   28   61 1
    57   29   62 1
    58   30   31 1
    59   31   36 ar
    60   31   32 ar
    61   32   33 ar
    62   32   63 1
    63   33   34 ar
    64   33   37 1
    65   34   35 ar
    66   35   36 ar
    67   35   64 1
    68   37   38 1
    69   37   65 1
    70   38   66 1
    71   38   67 1
    72   38   68 1
@<TRIPOS>MOLECULE
ZINC23247639
   69    72     0     0     0
SMALL
USER_CHARGES
1-[4-[(4-ethylpiperazin-1-yl)methyl]-3-(trifluoromethyl)phenyl]-3-[4-(6-methylaminopyrimidin-4-yl)oxyphenyl]urea
@<TRIPOS>ATOM
      1 C1          8.9417    3.3719    8.2172 C.3       1 <0>        -0.1569
      2 C2         10.1498    2.9102    7.3997 C.3       1 <0>         0.0486
      3 N1          9.9972    3.3533    6.0075 N.3       1 <0>        -0.5379
      4 C3         11.2367    3.1387    5.2477 C.3       1 <0>         0.0250
      5 C4         11.0629    3.6845    3.8284 C.3       1 <0>         0.0004
      6 N2          9.9288    3.0094    3.1822 N.4       1 <0>        -0.4202
      7 C5          8.6893    3.2240    3.9420 C.3       1 <0>        -0.0009
      8 C6          8.8631    2.6781    5.3612 C.3       1 <0>         0.0222
      9 C7          9.7762    3.4524    1.7899 C.3       1 <0>         0.0266
     10 C8          8.7879    2.5601    1.0842 C.ar      1 <0>        -0.1272
     11 C9          7.5022    3.0092    0.8434 C.ar      1 <0>        -0.0630
     12 C10         6.5958    2.1959    0.1923 C.ar      1 <0>        -0.0846
     13 C11         6.9731    0.9214   -0.2106 C.ar      1 <0>         0.2154
     14 C12         8.2646    0.4735    0.0326 C.ar      1 <0>        -0.0955
     15 C13         9.1683    1.2940    0.6793 C.ar      1 <0>        -0.1507
     16 C14        10.5702    0.8086    0.9441 C.3       1 <0>         0.5109
     17 F1         10.7250   -0.4786    0.4184 F         1 <0>        -0.1491
     18 F2         11.4860    1.6739    0.3362 F         1 <0>        -0.1584
     19 F3         10.8008    0.7797    2.3237 F         1 <0>        -0.1724
     20 N3          6.0552    0.0926   -0.8655 N.am      1 <0>        -0.6988
     21 C15         4.7513    0.1311   -0.5266 C.2       1 <0>         0.7114
     22 O1          4.3858    0.8194    0.4067 O.2       1 <0>        -0.5584
     23 N4          3.8526   -0.5934   -1.2222 N.am      1 <0>        -0.6858
     24 C16         2.4863   -0.4790   -0.9335 C.ar      1 <0>         0.1577
     25 C17         1.5516   -0.5518   -1.9576 C.ar      1 <0>        -0.1240
     26 C18         0.2052   -0.4394   -1.6724 C.ar      1 <0>        -0.0926
     27 C19        -0.2137   -0.2543   -0.3628 C.ar      1 <0>         0.0883
     28 C20         0.7198   -0.1815    0.6609 C.ar      1 <0>        -0.0957
     29 C21         2.0665   -0.2932    0.3769 C.ar      1 <0>        -0.1046
     30 O2         -1.5393   -0.1385   -0.0833 O.3       1 <0>        -0.2426
     31 C22        -2.3129   -1.2454   -0.1983 C.ar      1 <0>         0.3832
     32 C23        -3.6894   -1.1637   -0.0277 C.ar      1 <0>        -0.3126
     33 C24        -4.4409   -2.3284   -0.1601 C.ar      1 <0>         0.4635
     34 N5         -3.8165   -3.4721   -0.4341 N.ar      1 <0>        -0.5931
     35 C25        -2.5082   -3.5081   -0.5840 C.ar      1 <0>         0.3762
     36 N6         -1.7644   -2.4263   -0.4707 N.ar      1 <0>        -0.6049
     37 N7         -5.8178   -2.2988   -0.0034 N.pl3     1 <0>        -0.7212
     38 C26        -6.4937   -1.0344    0.2979 C.3       1 <0>         0.0887
     39 H1          9.0560    3.0401    9.2597 H         1 <0>         0.0714
     40 H2          8.0243    2.9380    7.7928 H         1 <0>         0.0562
     41 H3          8.8763    4.4695    8.1868 H         1 <0>         0.0696
     42 H4         11.0672    3.3441    7.8241 H         1 <0>         0.0895
     43 H5         10.2153    1.8126    7.4301 H         1 <0>         0.0455
     44 H6         12.0665    3.6630    5.7442 H         1 <0>         0.1253
     45 H7         11.4577    2.0621    5.2031 H         1 <0>         0.0582
     46 H8         10.8699    4.7665    3.8728 H         1 <0>         0.1369
     47 H9         11.9796    3.4990    3.2494 H         1 <0>         0.1329
     48 H10         8.4684    4.3007    3.9867 H         1 <0>         0.1355
     49 H11         7.8594    2.6998    3.4455 H         1 <0>         0.1312
     50 H12         9.0569    1.5962    5.3178 H         1 <0>         0.0572
     51 H13         7.9470    2.8635    5.9412 H         1 <0>         0.1266
     52 H14         9.4106    4.4897    1.7732 H         1 <0>         0.1472
     53 H15        10.7489    3.3982    1.2791 H         1 <0>         0.1420
     54 H16         7.2082    3.9988    1.1607 H         1 <0>         0.1512
     55 H17         5.5933    2.5489    0.0003 H         1 <0>         0.1583
     56 H18         8.5625   -0.5152   -0.2838 H         1 <0>         0.1556
     57 H19         6.3979   -0.5903   -1.6569 H         1 <0>         0.4440
     58 H20         4.1917   -1.2745   -2.0166 H         1 <0>         0.4371
     59 H21         1.8775   -0.6959   -2.9771 H         1 <0>         0.1338
     60 H22        -0.5220   -0.4960   -2.4689 H         1 <0>         0.1313
     61 H23         0.3932   -0.0371    1.6801 H         1 <0>         0.1341
     62 H24         2.7931   -0.2369    1.1740 H         1 <0>         0.1440
     63 H25        -4.1646   -0.2205    0.1982 H         1 <0>         0.1470
     64 H26        -2.0315   -4.4515   -0.8058 H         1 <0>         0.2001
     65 H27        -6.4030   -3.2246   -0.1053 H         1 <0>         0.4380
     66 H28        -7.5762   -1.2091    0.3856 H         1 <0>         0.0868
     67 H29        -6.3028   -0.3146   -0.5117 H         1 <0>         0.0604
     68 H30        -6.1096   -0.6302    1.2461 H         1 <0>         0.0603
     69 H31        10.1379    1.9295    3.1711 H         1 <0>         0.4253
@<TRIPOS>BOND
     1    1    2 1
     2    1   39 1
     3    1   40 1
     4    1   41 1
     5    2    3 1
     6    2   42 1
     7    2   43 1
     8    3    8 1
     9    3    4 1
    10    4    5 1
    11    4   44 1
    12    4   45 1
    13    5    6 1
    14    5   46 1
    15    5   47 1
    16    6    7 1
    17    6    9 1
    18    6   69 1
    19    7    8 1
    20    7   48 1
    21    7   49 1
    22    8   50 1
    23    8   51 1
    24    9   10 1
    25    9   52 1
    26    9   53 1
    27   10   15 ar
    28   10   11 ar
    29   11   12 ar
    30   11   54 1
    31   12   13 ar
    32   12   55 1
    33   13   14 ar
    34   13   20 1
    35   14   15 ar
    36   14   56 1
    37   15   16 1
    38   16   17 1
    39   16   18 1
    40   16   19 1
    41   20   21 am
    42   20   57 1
    43   21   22 2
    44   21   23 am
    45   23   24 1
    46   23   58 1
    47   24   29 ar
    48   24   25 ar
    49   25   26 ar
    50   25   59 1
    51   26   27 ar
    52   26   60 1
    53   27   28 ar
    54   27   30 1
    55   28   29 ar
    56   28   61 1
    57   29   62 1
    58   30   31 1
    59   31   36 ar
    60   31   32 ar
    61   32   33 ar
    62   32   63 1
    63   33   34 ar
    64   33   37 1
    65   34   35 ar
    66   35   36 ar
    67   35   64 1
    68   37   38 1
    69   37   65 1
    70   38   66 1
    71   38   67 1
    72   38   68 1
@<TRIPOS>MOLECULE
ZINC23247639
   68    71     0     0     0
SMALL
USER_CHARGES
1-[4-[(4-ethylpiperazin-1-yl)methyl]-3-(trifluoromethyl)phenyl]-3-[4-(6-methylaminopyrimidin-4-yl)oxyphenyl]urea
@<TRIPOS>ATOM
      1 C1          8.9417    3.3719    8.2172 C.3       1 <0>        -0.1510
      2 C2         10.1498    2.9102    7.3997 C.3       1 <0>         0.0499
      3 N1          9.9972    3.3533    6.0075 N.3       1 <0>        -0.5402
      4 C3         11.2367    3.1387    5.2477 C.3       1 <0>         0.0569
      5 C4         11.0629    3.6845    3.8284 C.3       1 <0>         0.0590
      6 N2          9.9288    3.0094    3.1822 N.3       1 <0>        -0.5268
      7 C5          8.6893    3.2240    3.9420 C.3       1 <0>         0.0561
      8 C6          8.8631    2.6781    5.3612 C.3       1 <0>         0.0550
      9 C7          9.7762    3.4524    1.7899 C.3       1 <0>         0.0729
     10 C8          8.7879    2.5601    1.0842 C.ar      1 <0>        -0.0447
     11 C9          7.5022    3.0092    0.8434 C.ar      1 <0>        -0.0942
     12 C10         6.5958    2.1959    0.1923 C.ar      1 <0>        -0.0884
     13 C11         6.9731    0.9214   -0.2106 C.ar      1 <0>         0.1720
     14 C12         8.2646    0.4735    0.0326 C.ar      1 <0>        -0.1038
     15 C13         9.1683    1.2940    0.6793 C.ar      1 <0>        -0.1404
     16 C14        10.5702    0.8086    0.9441 C.3       1 <0>         0.5095
     17 F1         10.7250   -0.4786    0.4184 F         1 <0>        -0.1841
     18 F2         11.4860    1.6739    0.3362 F         1 <0>        -0.1795
     19 F3         10.8008    0.7797    2.3237 F         1 <0>        -0.1519
     20 N3          6.0552    0.0926   -0.8655 N.am      1 <0>        -0.6948
     21 C15         4.7513    0.1311   -0.5266 C.2       1 <0>         0.7096
     22 O1          4.3858    0.8194    0.4067 O.2       1 <0>        -0.5587
     23 N4          3.8526   -0.5934   -1.2222 N.am      1 <0>        -0.6930
     24 C16         2.4863   -0.4790   -0.9335 C.ar      1 <0>         0.1697
     25 C17         1.5516   -0.5518   -1.9576 C.ar      1 <0>        -0.1297
     26 C18         0.2052   -0.4394   -1.6724 C.ar      1 <0>        -0.0930
     27 C19        -0.2137   -0.2543   -0.3628 C.ar      1 <0>         0.0783
     28 C20         0.7198   -0.1815    0.6609 C.ar      1 <0>        -0.0936
     29 C21         2.0665   -0.2932    0.3769 C.ar      1 <0>        -0.1059
     30 O2         -1.5393   -0.1385   -0.0833 O.3       1 <0>        -0.2412
     31 C22        -2.3129   -1.2454   -0.1983 C.ar      1 <0>         0.3851
     32 C23        -3.6894   -1.1637   -0.0277 C.ar      1 <0>        -0.3141
     33 C24        -4.4409   -2.3284   -0.1601 C.ar      1 <0>         0.4620
     34 N5         -3.8165   -3.4721   -0.4341 N.ar      1 <0>        -0.5954
     35 C25        -2.5082   -3.5081   -0.5840 C.ar      1 <0>         0.3753
     36 N6         -1.7644   -2.4263   -0.4707 N.ar      1 <0>        -0.6017
     37 N7         -5.8178   -2.2988   -0.0034 N.pl3     1 <0>        -0.7231
     38 C26        -6.4937   -1.0344    0.2979 C.3       1 <0>         0.0898
     39 H1          9.0560    3.0401    9.2597 H         1 <0>         0.0595
     40 H2          8.0243    2.9380    7.7928 H         1 <0>         0.0547
     41 H3          8.8763    4.4695    8.1868 H         1 <0>         0.0631
     42 H4         11.0672    3.3441    7.8241 H         1 <0>         0.0746
     43 H5         10.2153    1.8126    7.4301 H         1 <0>         0.0335
     44 H6         12.0665    3.6630    5.7442 H         1 <0>         0.0800
     45 H7         11.4577    2.0621    5.2031 H         1 <0>         0.0441
     46 H8         10.8699    4.7665    3.8728 H         1 <0>         0.0445
     47 H9         11.9796    3.4990    3.2494 H         1 <0>         0.0809
     48 H10         8.4684    4.3007    3.9867 H         1 <0>         0.0435
     49 H11         7.8594    2.6998    3.4455 H         1 <0>         0.0808
     50 H12         9.0569    1.5962    5.3178 H         1 <0>         0.0425
     51 H13         7.9470    2.8635    5.9412 H         1 <0>         0.0819
     52 H14         9.4106    4.4897    1.7732 H         1 <0>         0.0550
     53 H15        10.7489    3.3982    1.2791 H         1 <0>         0.0962
     54 H16         7.2082    3.9988    1.1607 H         1 <0>         0.1355
     55 H17         5.5933    2.5489    0.0003 H         1 <0>         0.1427
     56 H18         8.5625   -0.5152   -0.2838 H         1 <0>         0.1409
     57 H19         6.3979   -0.5903   -1.6569 H         1 <0>         0.4343
     58 H20         4.1917   -1.2745   -2.0166 H         1 <0>         0.4332
     59 H21         1.8775   -0.6959   -2.9771 H         1 <0>         0.1323
     60 H22        -0.5220   -0.4960   -2.4689 H         1 <0>         0.1282
     61 H23         0.3932   -0.0371    1.6801 H         1 <0>         0.1328
     62 H24         2.7931   -0.2369    1.1740 H         1 <0>         0.1466
     63 H25        -4.1646   -0.2205    0.1982 H         1 <0>         0.1463
     64 H26        -2.0315   -4.4515   -0.8058 H         1 <0>         0.1996
     65 H27        -6.4030   -3.2246   -0.1053 H         1 <0>         0.4362
     66 H28        -7.5762   -1.2091    0.3856 H         1 <0>         0.0851
     67 H29        -6.3028   -0.3146   -0.5117 H         1 <0>         0.0598
     68 H30        -6.1096   -0.6302    1.2461 H         1 <0>         0.0599
@<TRIPOS>BOND
     1    1    2 1
     2    1   39 1
     3    1   40 1
     4    1   41 1
     5    2    3 1
     6    2   42 1
     7    2   43 1
     8    3    8 1
     9    3    4 1
    10    4    5 1
    11    4   44 1
    12    4   45 1
    13    5    6 1
    14    5   46 1
    15    5   47 1
    16    6    7 1
    17    6    9 1
    18    7    8 1
    19    7   48 1
    20    7   49 1
    21    8   50 1
    22    8   51 1
    23    9   10 1
    24    9   52 1
    25    9   53 1
    26   10   15 ar
    27   10   11 ar
    28   11   12 ar
    29   11   54 1
    30   12   13 ar
    31   12   55 1
    32   13   14 ar
    33   13   20 1
    34   14   15 ar
    35   14   56 1
    36   15   16 1
    37   16   17 1
    38   16   18 1
    39   16   19 1
    40   20   21 am
    41   20   57 1
    42   21   22 2
    43   21   23 am
    44   23   24 1
    45   23   58 1
    46   24   29 ar
    47   24   25 ar
    48   25   26 ar
    49   25   59 1
    50   26   27 ar
    51   26   60 1
    52   27   28 ar
    53   27   30 1
    54   28   29 ar
    55   28   61 1
    56   29   62 1
    57   30   31 1
    58   31   36 ar
    59   31   32 ar
    60   32   33 ar
    61   32   63 1
    62   33   34 ar
    63   33   37 1
    64   34   35 ar
    65   35   36 ar
    66   35   64 1
    67   37   38 1
    68   37   65 1
    69   38   66 1
    70   38   67 1
    71   38   68 1
@<TRIPOS>MOLECULE
ZINC45302326
   24    26     0     0     0
SMALL
USER_CHARGES

@<TRIPOS>ATOM
      1 C1         -0.0167    1.3792    0.0096 C.ar      1 <0>        -0.1028
      2 C2          1.1685    2.0928    0.0021 C.ar      1 <0>        -0.1253
      3 C3          2.3774    1.4278   -0.0130 C.ar      1 <0>        -0.0736
      4 C4          2.4029    0.0333   -0.0207 C.ar      1 <0>        -0.0560
      5 C5          1.2046   -0.6805   -0.0131 C.ar      1 <0>        -0.0898
      6 C6          0.0021   -0.0041    0.0020 C.ar      1 <0>        -0.1247
      7 C7          3.6971   -0.6867   -0.0375 C.ar      1 <0>         0.2707
      8 C8          3.8520   -1.9065    0.6411 C.ar      1 <0>        -0.1988
      9 C9          2.9868   -2.7574    1.4529 C.2       1 <0>        -0.1776
     10 C10         3.7251   -3.8145    1.8319 C.2       1 <0>         0.0624
     11 N1          4.9929   -3.7027    1.3247 N.pl3     1 <0>        -0.5723
     12 H1          5.7062   -4.3453    1.4633 H         1 <0>         0.4246
     13 C11         5.1052   -2.5514    0.5936 C.ar      1 <0>         0.3199
     14 N2          6.0893   -1.9778   -0.0924 N.ar      1 <0>        -0.5342
     15 C12         5.8987   -0.8333   -0.7137 C.ar      1 <0>         0.3201
     16 N3          4.7429   -0.1970   -0.7009 N.ar      1 <0>        -0.5314
     17 H2         -0.9604    1.9042    0.0260 H         1 <0>         0.1258
     18 H3          1.1475    3.1726    0.0078 H         1 <0>         0.1280
     19 H4          3.3020    1.9859   -0.0192 H         1 <0>         0.1307
     20 H5          1.2180   -1.7604   -0.0194 H         1 <0>         0.1291
     21 H6         -0.9264   -0.5556    0.0079 H         1 <0>         0.1282
     22 H7          1.9521   -2.5727    1.7014 H         1 <0>         0.1580
     23 H8          3.3719   -4.6302    2.4453 H         1 <0>         0.1861
     24 H9          6.7224   -0.3983   -1.2603 H         1 <0>         0.2029
@<TRIPOS>BOND
     1    1    6 ar
     2    1    2 ar
     3    1   17 1
     4    2    3 ar
     5    2   18 1
     6    3    4 ar
     7    3   19 1
     8    4    5 ar
     9    4    7 1
    10    5    6 ar
    11    5   20 1
    12    6   21 1
    13    7   16 ar
    14    7    8 ar
    15    8   13 ar
    16    8    9 1
    17    9   10 2
    18    9   22 1
    19   10   11 1
    20   10   23 1
    21   11   12 1
    22   11   13 1
    23   13   14 ar
    24   14   15 ar
    25   15   16 ar
    26   15   24 1
@<TRIPOS>MOLECULE
ZINC00602803
   57    59     0     0     0
SMALL
USER_CHARGES

@<TRIPOS>ATOM
      1 C1         -1.3402   -4.8618    1.2145 C.3       1 <0>        -0.1534
      2 C2         -0.8181   -3.6495    0.4408 C.3       1 <0>         0.0511
      3 O1         -0.7742   -2.5142    1.3074 O.3       1 <0>        -0.3148
      4 C3         -0.3304   -1.3470    0.7727 C.ar      1 <0>         0.1525
      5 C4          0.0498   -1.3049   -0.5488 C.ar      1 <0>        -0.1831
      6 C5          0.5092   -0.1023   -1.1071 C.ar      1 <0>         0.1876
      7 C6          0.5748    1.0570   -0.2965 C.ar      1 <0>        -0.1304
      8 C7          0.1883    0.9932    1.0499 C.ar      1 <0>        -0.0592
      9 C8         -0.2650   -0.1967    1.5740 C.ar      1 <0>         0.1185
     10 N1         -0.6575   -0.2608    2.9161 N.am      1 <0>        -0.6449
     11 C9         -0.1566    0.6173    3.8075 C.2       1 <0>         0.5328
     12 O2          0.7152    1.3957    3.4703 O.2       1 <0>        -0.5071
     13 C10        -0.6641    0.6344    5.1877 C.2       1 <0>        -0.1271
     14 C11        -0.1697    1.5011    6.0673 C.2       1 <0>        -0.1492
     15 C12        -0.6897    1.5186    7.4817 C.3       1 <0>         0.0302
     16 C13         1.3312    2.5206    8.3617 C.3       1 <0>        -0.0486
     17 C14        -0.0528    1.1357    9.7861 C.3       1 <0>        -0.0433
     18 C15         1.0386    2.2666   -0.8642 C.ar      1 <0>         0.2844
     19 C16         1.4144    2.2536   -2.2161 C.ar      1 <0>        -0.1029
     20 C17         1.3165    1.0573   -2.9447 C.ar      1 <0>         0.2010
     21 N2          0.8834   -0.0478   -2.3940 N.ar      1 <0>        -0.4743
     22 C18         1.8922    3.4476   -2.8459 C.1       1 <0>         0.2469
     23 N3          2.2712    4.3948   -3.3456 N.1       1 <0>        -0.3851
     24 N4          1.1194    3.4219   -0.1130 N.pl3     1 <0>        -0.6979
     25 C19         2.3677    3.9814    0.1773 C.ar      1 <0>         0.1846
     26 C20         3.4715    3.1592    0.3659 C.ar      1 <0>        -0.1231
     27 C21         4.7048    3.7137    0.6463 C.ar      1 <0>        -0.1069
     28 C22         4.8398    5.0877    0.7520 C.ar      1 <0>         0.0844
     29 C23         3.7394    5.9099    0.5700 C.ar      1 <0>        -0.0407
     30 C24         2.5044    5.3592    0.2831 C.ar      1 <0>        -0.1222
     31 Cl1         3.9119    7.6322    0.7020 Cl        1 <0>        -0.0373
     32 F1          6.0462    5.6274    1.0324 F         1 <0>        -0.1244
     33 H1         -2.3423   -4.6506    1.5877 H         1 <0>         0.0676
     34 H2         -1.3737   -5.7279    0.5535 H         1 <0>         0.0859
     35 H3         -0.6765   -5.0706    2.0536 H         1 <0>         0.0665
     36 H4         -1.4818   -3.4407   -0.3983 H         1 <0>         0.0727
     37 H5          0.1840   -3.8607    0.0676 H         1 <0>         0.0719
     38 H6         -0.0049   -2.1965   -1.1558 H         1 <0>         0.1557
     39 H7          0.2375    1.8756    1.6707 H         1 <0>         0.1646
     40 H8         -1.2900   -0.9373    3.2047 H         1 <0>         0.4221
     41 H9         -1.4381   -0.0567    5.4870 H         1 <0>         0.1454
     42 H10         0.6043    2.1922    5.7680 H         1 <0>         0.1533
     43 H11        -1.1915    2.4672    7.6726 H         1 <0>         0.1468
     44 H12        -1.3959    0.6999    7.6193 H         1 <0>         0.1366
     45 H13         0.7789    3.4221    8.6269 H         1 <0>         0.1257
     46 H14         2.1523    2.3777    9.0642 H         1 <0>         0.1250
     47 H15         1.7302    2.6227    7.3524 H         1 <0>         0.1232
     48 H16        -0.6601    0.2309    9.8124 H         1 <0>         0.1226
     49 H17         0.7976    1.0222   10.4584 H         1 <0>         0.1252
     50 H18        -0.6553    1.9870   10.1029 H         1 <0>         0.1250
     51 H19         1.6056    1.0492   -3.9853 H         1 <0>         0.1765
     52 H20         0.3102    3.8456    0.2136 H         1 <0>         0.4201
     53 H21         3.3660    2.0871    0.2888 H         1 <0>         0.1375
     54 H22         5.5639    3.0747    0.7881 H         1 <0>         0.1500
     55 H23         1.6466    6.0000    0.1416 H         1 <0>         0.1457
     56 N5          0.4465    1.3376    8.4096 N.4       1 <0>        -0.3970
     57 H24         0.9816    0.5092    8.1241 H         1 <0>         0.4334
@<TRIPOS>BOND
     1    1    2 1
     2    1   33 1
     3    1   34 1
     4    1   35 1
     5    2    3 1
     6    2   36 1
     7    2   37 1
     8    3    4 1
     9    4    9 ar
    10    4    5 ar
    11    5    6 ar
    12    5   38 1
    13    6   21 ar
    14    6    7 ar
    15    7    8 ar
    16    7   18 ar
    17    8    9 ar
    18    8   39 1
    19    9   10 1
    20   10   11 am
    21   10   40 1
    22   11   12 2
    23   11   13 1
    24   13   14 2
    25   13   41 1
    26   14   15 1
    27   14   42 1
    28   15   43 1
    29   15   44 1
    30   15   56 1
    31   16   45 1
    32   16   46 1
    33   16   47 1
    34   16   56 1
    35   17   48 1
    36   17   49 1
    37   17   50 1
    38   17   56 1
    39   18   19 ar
    40   18   24 1
    41   19   20 ar
    42   19   22 1
    43   20   21 ar
    44   20   51 1
    45   22   23 3
    46   24   25 1
    47   24   52 1
    48   25   30 ar
    49   25   26 ar
    50   26   27 ar
    51   26   53 1
    52   27   28 ar
    53   27   54 1
    54   28   29 ar
    55   28   32 1
    56   29   30 ar
    57   29   31 1
    58   30   55 1
    59   56   57 1
