@<TRIPOS>MOLECULE
ZINC71318764
   33    35     0     0     0
SMALL
USER_CHARGES

@<TRIPOS>ATOM
      1 C1         -0.0164    1.3552    0.0095 C.ar      1 <0>        -0.1189
      2 C2          1.1573    2.0973    0.0023 C.ar      1 <0>        -0.0954
      3 C3          2.3741    1.4452   -0.0128 C.ar      1 <0>        -0.0759
      4 C4          2.4061    0.0671   -0.0204 C.ar      1 <0>        -0.1127
      5 C5          1.2281   -0.7107   -0.0134 C.ar      1 <0>        -0.0747
      6 C6          0.0021   -0.0041    0.0020 C.ar      1 <0>        -0.0768
      7 C7          1.4506   -2.1491   -0.0232 C.2       1 <0>        -0.0948
      8 C8          2.7062   -2.6192   -0.0376 C.2       1 <0>        -0.1374
      9 S1          3.7042   -1.1421   -0.0393 S.3       1 <0>         0.0404
     10 C9          0.2817   -3.1002   -0.0167 C.3       1 <0>        -0.0815
     11 C10        -0.2001   -3.3137   -1.4285 C.2       1 <0>         0.5048
     12 O1          0.3515   -2.7491   -2.3494 O.2       1 <0>        -0.4854
     13 N1         -1.2438   -4.1321   -1.6679 N.am      1 <0>        -0.6132
     14 C11        -1.6871   -4.3286   -2.9670 C.2       1 <0>         0.0857
     15 C12        -2.7397   -5.1227   -3.3979 C.2       1 <0>        -0.2759
     16 C13        -2.9895   -5.1481   -4.8210 C.2       1 <0>        -0.1018
     17 C14        -2.1680   -4.3938   -5.5743 C.2       1 <0>        -0.2559
     18 S2         -1.0781   -3.6547   -4.3776 S.3       1 <0>         0.2875
     19 C15        -3.5565   -5.8968   -2.4580 C.2       1 <0>         0.5917
     20 O2         -3.3181   -5.8527   -1.2653 O.2       1 <0>        -0.5661
     21 N2         -4.5712   -6.6572   -2.9147 N.am      1 <0>        -0.8487
     22 H1         -0.9657    1.8698    0.0259 H         1 <0>         0.1276
     23 H2          1.1186    3.1766    0.0080 H         1 <0>         0.1353
     24 H3          3.2942    2.0107   -0.0189 H         1 <0>         0.1324
     25 H4         -0.9293   -0.5508    0.0079 H         1 <0>         0.1191
     26 H5          3.0347   -3.6480   -0.0458 H         1 <0>         0.1899
     27 H6          0.5920   -4.0542    0.4096 H         1 <0>         0.1162
     28 H7         -0.5255   -2.6797    0.5830 H         1 <0>         0.1129
     29 H8         -1.6849   -4.5837   -0.9314 H         1 <0>         0.4339
     30 H9         -3.7857   -5.7360   -5.2532 H         1 <0>         0.1419
     31 H10        -2.1721   -4.2647   -6.6466 H         1 <0>         0.1891
     32 H11        -4.7612   -6.6923   -3.8653 H         1 <0>         0.4018
     33 H12        -5.1115   -7.1693   -2.2929 H         1 <0>         0.4046
@<TRIPOS>BOND
     1    1    6 ar
     2    1    2 ar
     3    1   22 1
     4    2    3 ar
     5    2   23 1
     6    3    4 ar
     7    3   24 1
     8    4    9 1
     9    4    5 ar
    10    5    6 ar
    11    5    7 1
    12    6   25 1
    13    7    8 2
    14    7   10 1
    15    8    9 1
    16    8   26 1
    17   10   11 1
    18   10   27 1
    19   10   28 1
    20   11   12 2
    21   11   13 am
    22   13   14 1
    23   13   29 1
    24   14   18 1
    25   14   15 2
    26   15   16 1
    27   15   19 1
    28   16   17 2
    29   16   30 1
    30   17   18 1
    31   17   31 1
    32   19   20 2
    33   19   21 am
    34   21   32 1
    35   21   33 1
@<TRIPOS>MOLECULE
ZINC01910234
   35    36     0     0     0
SMALL
USER_CHARGES

@<TRIPOS>ATOM
      1 C1          0.4526    1.4556   -0.1156 C.ar      1 <0>        -0.0869
      2 C2          1.6960    2.0629   -0.1275 C.ar      1 <0>        -0.1201
      3 C3          2.8472    1.2958   -0.1178 C.ar      1 <0>        -0.0728
      4 C4          2.7621   -0.0812   -0.0958 C.ar      1 <0>        -0.1706
      5 C5          1.5115   -0.6996   -0.0833 C.ar      1 <0>         0.0468
      6 C6          0.3540    0.0799   -0.0936 C.ar      1 <0>        -0.1136
      7 C7          1.4129   -2.1764   -0.0601 C.2       1 <0>        -0.2079
      8 C8          1.0536   -2.8659   -1.2094 C.2       1 <0>         0.2495
      9 N1          0.7897   -2.1787   -2.3675 N.pl3     1 <0>        -0.8305
     10 S1          0.9362   -4.6237   -1.1818 S.3       1 <0>         0.0608
     11 C9          0.6017   -5.0549   -2.8572 C.ar      1 <0>        -0.2364
     12 C10         1.6497   -5.3338   -3.7251 C.ar      1 <0>        -0.0061
     13 C11         1.3875   -5.6716   -5.0377 C.ar      1 <0>        -0.2075
     14 C12         0.0759   -5.7322   -5.4906 C.ar      1 <0>         0.2557
     15 C13        -0.9721   -5.4528   -4.6229 C.ar      1 <0>        -0.2084
     16 C14        -0.7103   -5.1215   -3.3085 C.ar      1 <0>        -0.0088
     17 N2         -0.1897   -6.0741   -6.8211 N.pl3     1 <0>        -0.8679
     18 C15         1.6882   -2.8935    1.1484 C.1       1 <0>         0.2737
     19 N3          1.9067   -3.4624    2.1072 N.1       1 <0>        -0.4321
     20 C16         4.0171   -0.9153   -0.0858 C.3       1 <0>         0.5089
     21 F1          5.1356   -0.0751   -0.1020 F         1 <0>        -0.1808
     22 F2          4.0434   -1.7045    1.0691 F         1 <0>        -0.1704
     23 F3          4.0376   -1.7407   -1.2152 F         1 <0>        -0.1729
     24 H1         -0.4424    2.0600   -0.1191 H         1 <0>         0.1344
     25 H2          1.7680    3.1404   -0.1448 H         1 <0>         0.1352
     26 H3          3.8147    1.7758   -0.1279 H         1 <0>         0.1392
     27 H4         -0.6170   -0.3929   -0.0839 H         1 <0>         0.1372
     28 H5          0.7635   -1.2090   -2.3609 H         1 <0>         0.4067
     29 H6          0.6294   -2.6625   -3.1928 H         1 <0>         0.4070
     30 H7          2.6696   -5.2861   -3.3732 H         1 <0>         0.1358
     31 H8          2.2024   -5.8885   -5.7126 H         1 <0>         0.1306
     32 H9         -1.9919   -5.4996   -4.9752 H         1 <0>         0.1303
     33 H10        -1.5254   -4.9090   -2.6326 H         1 <0>         0.1351
     34 H11         0.5421   -6.2688   -7.4272 H         1 <0>         0.4035
     35 H12        -1.1057   -6.1163   -7.1374 H         1 <0>         0.4033
@<TRIPOS>BOND
     1    1    6 ar
     2    1    2 ar
     3    1   24 1
     4    2    3 ar
     5    2   25 1
     6    3    4 ar
     7    3   26 1
     8    4    5 ar
     9    4   20 1
    10    5    6 ar
    11    5    7 1
    12    6   27 1
    13    7    8 2
    14    7   18 1
    15    8    9 1
    16    8   10 1
    17    9   28 1
    18    9   29 1
    19   10   11 1
    20   11   16 ar
    21   11   12 ar
    22   12   13 ar
    23   12   30 1
    24   13   14 ar
    25   13   31 1
    26   14   15 ar
    27   14   17 1
    28   15   16 ar
    29   15   32 1
    30   16   33 1
    31   17   34 1
    32   17   35 1
    33   18   19 3
    34   20   21 1
    35   20   22 1
    36   20   23 1
@<TRIPOS>MOLECULE
ZINC14959980
   44    45     0     0     0
SMALL
USER_CHARGES

@<TRIPOS>ATOM
      1 C1         -0.0187    1.5258    0.0104 C.3       1 <0>        -0.1572
      2 C2          0.0021   -0.0041    0.0020 C.3       1 <0>         0.0644
      3 O1          0.6709   -0.4649   -1.1737 O.3       1 <0>        -0.2954
      4 C3          0.7764   -1.8060   -1.3357 C.ar      1 <0>         0.4160
      5 C4          1.4284   -2.3208   -2.4685 C.ar      1 <0>        -0.1683
      6 C5          1.5285   -3.7158   -2.6192 C.ar      1 <0>         0.3299
      7 C6          0.9723   -4.5281   -1.6306 C.ar      1 <0>        -0.2180
      8 C7          0.3447   -3.9382   -0.5417 C.ar      1 <0>         0.1834
      9 N1          0.2709   -2.6155   -0.4257 N.ar      1 <0>        -0.5591
     10 C8         -0.2483   -4.7967    0.5113 C.2       1 <0>         0.5734
     11 O2         -0.1829   -6.0064    0.4172 O.2       1 <0>        -0.5177
     12 N2         -0.8601   -4.2355    1.5730 N.am      1 <0>        -0.7056
     13 C9         -1.4462   -5.0839    2.6136 C.3       1 <0>         0.1515
     14 C10        -2.0637   -4.2166    3.6802 C.ar      1 <0>        -0.0565
     15 C11        -1.3058   -3.8041    4.7601 C.ar      1 <0>        -0.1186
     16 C12        -1.8723   -3.0085    5.7384 C.ar      1 <0>        -0.0244
     17 C13        -3.1965   -2.6251    5.6366 C.ar      1 <0>        -0.6520
     18 C14        -3.9541   -3.0369    4.5561 C.ar      1 <0>        -0.0244
     19 C15        -3.3865   -3.8289    3.5756 C.ar      1 <0>        -0.1187
     20 S1         -3.9188   -1.6120    6.8842 S.o2      1 <0>         2.4983
     21 O3         -5.3071   -1.9112    6.8354 O.2       1 <0>        -0.9353
     22 O4         -3.1602   -1.8823    8.0549 O.2       1 <0>        -0.9353
     23 C16        -3.6266    0.0902    6.3295 C.3       1 <0>        -0.6498
     24 N3          2.1626   -4.2688   -3.7210 N.pl3     1 <0>        -0.8366
     25 C17         1.9812   -1.4404   -3.4534 C.1       1 <0>         0.2638
     26 N4          2.4198   -0.7421   -4.2347 N.1       1 <0>        -0.4087
     27 H1          1.0039    1.9031    0.0027 H         1 <0>         0.0668
     28 H2         -0.5459    1.8868   -0.8726 H         1 <0>         0.0668
     29 H3         -0.5289    1.8773    0.9072 H         1 <0>         0.0828
     30 H4          0.5293   -0.3651    0.8851 H         1 <0>         0.0725
     31 H5         -1.0205   -0.3814    0.0098 H         1 <0>         0.0725
     32 H6          1.0290   -5.6036   -1.7116 H         1 <0>         0.1615
     33 H7         -0.9124   -3.2698    1.6481 H         1 <0>         0.4139
     34 H8         -2.2137   -5.7207    2.1737 H         1 <0>         0.0878
     35 H9         -0.6681   -5.7057    3.0564 H         1 <0>         0.0878
     36 H10        -0.2713   -4.1036    4.8397 H         1 <0>         0.1369
     37 H11        -1.2804   -2.6868    6.5826 H         1 <0>         0.1455
     38 H12        -4.9888   -2.7377    4.4767 H         1 <0>         0.1456
     39 H13        -3.9774   -4.1476    2.7296 H         1 <0>         0.1369
     40 H14        -4.1019    0.2432    5.3605 H         1 <0>         0.1320
     41 H15        -4.0480    0.7861    7.0548 H         1 <0>         0.1343
     42 H16        -2.5543    0.2640    6.2397 H         1 <0>         0.1319
     43 H17         2.5446   -3.6920   -4.4009 H         1 <0>         0.4093
     44 H18         2.2243   -5.2325   -3.8120 H         1 <0>         0.4163
@<TRIPOS>BOND
     1    1    2 1
     2    1   27 1
     3    1   28 1
     4    1   29 1
     5    2    3 1
     6    2   30 1
     7    2   31 1
     8    3    4 1
     9    4    9 ar
    10    4    5 ar
    11    5    6 ar
    12    5   25 1
    13    6    7 ar
    14    6   24 1
    15    7    8 ar
    16    7   32 1
    17    8    9 ar
    18    8   10 1
    19   10   11 2
    20   10   12 am
    21   12   13 1
    22   12   33 1
    23   13   14 1
    24   13   34 1
    25   13   35 1
    26   14   19 ar
    27   14   15 ar
    28   15   16 ar
    29   15   36 1
    30   16   17 ar
    31   16   37 1
    32   17   18 ar
    33   17   20 1
    34   18   19 ar
    35   18   38 1
    36   19   39 1
    37   20   21 2
    38   20   22 2
    39   20   23 1
    40   23   40 1
    41   23   41 1
    42   23   42 1
    43   24   43 1
    44   24   44 1
    45   25   26 3
@<TRIPOS>MOLECULE
ZINC08715545
   51    55     0     0     0
SMALL
USER_CHARGES
2-(2-anilino-4-methyl-thiazol-5-yl)-3-(o-tolyl)quinazolin-4-one
@<TRIPOS>ATOM
      1 C1         -8.1505    4.1672    2.1228 C.3       1 <0>        -0.1196
      2 C2         -7.7897    4.8823    0.8462 C.ar      1 <0>        -0.0479
      3 C3         -7.3156    6.1790    0.8904 C.ar      1 <0>        -0.1134
      4 C4         -6.9848    6.8360   -0.2803 C.ar      1 <0>        -0.0923
      5 C5         -7.1273    6.1976   -1.4990 C.ar      1 <0>        -0.1160
      6 C6         -7.5952    4.8994   -1.5495 C.ar      1 <0>        -0.0821
      7 C7         -7.9338    4.2387   -0.3756 C.ar      1 <0>         0.0908
      8 N1         -8.4141    2.9244   -0.4238 N.am      1 <0>        -0.4996
      9 C8         -9.7440    2.6972   -0.5300 C.2       1 <0>         0.5548
     10 O1        -10.5389    3.6175   -0.5851 O.2       1 <0>        -0.4961
     11 C9        -10.1932    1.2992   -0.5760 C.ar      1 <0>        -0.2065
     12 C10       -11.5423    0.9646   -0.6850 C.ar      1 <0>        -0.0371
     13 C11       -11.9095   -0.3626   -0.7243 C.ar      1 <0>        -0.1428
     14 C12       -10.9491   -1.3643   -0.6568 C.ar      1 <0>        -0.0682
     15 C13        -9.6219   -1.0598   -0.5498 C.ar      1 <0>        -0.1138
     16 C14        -9.2166    0.2784   -0.5069 C.ar      1 <0>         0.1696
     17 N2         -7.9172    0.6165   -0.4073 N.2       1 <0>        -0.5159
     18 C15        -7.5332    1.8725   -0.3626 C.2       1 <0>         0.5135
     19 C16        -6.1023    2.1635   -0.2485 C.2       1 <0>        -0.2684
     20 C17        -5.0331    1.2999   -0.1715 C.2       1 <0>         0.2132
     21 N3         -3.8320    1.8131   -0.0795 N.2       1 <0>        -0.5761
     22 C18        -3.6411    3.1231   -0.0501 C.2       1 <0>         0.3263
     23 S1         -5.2605    3.7380   -0.1717 S.3       1 <0>         0.1340
     24 N4         -2.4545    3.8229    0.0465 N.pl3     1 <0>        -0.5995
     25 C19        -1.2354    3.1405    0.0057 C.ar      1 <0>         0.1488
     26 C20        -1.1472    1.9104   -0.6337 C.ar      1 <0>        -0.1253
     27 C21         0.0574    1.2360   -0.6668 C.ar      1 <0>        -0.0949
     28 C22         1.1778    1.7890   -0.0742 C.ar      1 <0>        -0.1354
     29 C23         1.0948    3.0160    0.5584 C.ar      1 <0>        -0.0961
     30 C24        -0.1080    3.6932    0.6001 C.ar      1 <0>        -0.1483
     31 C25        -5.2386   -0.1928   -0.1982 C.3       1 <0>        -0.0947
     32 H1         -7.2757    3.6403    2.5038 H         1 <0>         0.0775
     33 H2         -8.4884    4.8928    2.8626 H         1 <0>         0.0791
     34 H3         -8.9483    3.4513    1.9251 H         1 <0>         0.0610
     35 H4         -7.2029    6.6801    1.8405 H         1 <0>         0.1350
     36 H5         -6.6140    7.8496   -0.2431 H         1 <0>         0.1333
     37 H6         -6.8677    6.7133   -2.4117 H         1 <0>         0.1350
     38 H7         -7.7020    4.3999   -2.5011 H         1 <0>         0.1289
     39 H8        -12.2930    1.7392   -0.7378 H         1 <0>         0.1371
     40 H9        -12.9532   -0.6268   -0.8087 H         1 <0>         0.1336
     41 H10       -11.2566   -2.3991   -0.6891 H         1 <0>         0.1348
     42 H11        -8.8875   -1.8500   -0.4987 H         1 <0>         0.1409
     43 H12        -2.4671    4.7880    0.1428 H         1 <0>         0.4299
     44 H13        -2.0208    1.4800   -1.1007 H         1 <0>         0.1448
     45 H14         0.1257    0.2776   -1.1600 H         1 <0>         0.1270
     46 H15         2.1198    1.2617   -0.1056 H         1 <0>         0.1246
     47 H16         1.9718    3.4453    1.0199 H         1 <0>         0.1280
     48 H17        -0.1720    4.6515    1.0939 H         1 <0>         0.1259
     49 H18        -5.2084   -0.5453   -1.2292 H         1 <0>         0.0832
     50 H19        -4.4490   -0.6786    0.3751 H         1 <0>         0.0730
     51 H20        -6.2069   -0.4342    0.2401 H         1 <0>         0.1065
@<TRIPOS>BOND
     1    1    2 1
     2    1   32 1
     3    1   33 1
     4    1   34 1
     5    2    7 ar
     6    2    3 ar
     7    3    4 ar
     8    3   35 1
     9    4    5 ar
    10    4   36 1
    11    5    6 ar
    12    5   37 1
    13    6    7 ar
    14    6   38 1
    15    7    8 1
    16    8   18 1
    17    8    9 am
    18    9   10 2
    19    9   11 1
    20   11   16 ar
    21   11   12 ar
    22   12   13 ar
    23   12   39 1
    24   13   14 ar
    25   13   40 1
    26   14   15 ar
    27   14   41 1
    28   15   16 ar
    29   15   42 1
    30   16   17 1
    31   17   18 2
    32   18   19 1
    33   19   23 1
    34   19   20 2
    35   20   21 1
    36   20   31 1
    37   21   22 2
    38   22   23 1
    39   22   24 1
    40   24   25 1
    41   24   43 1
    42   25   30 ar
    43   25   26 ar
    44   26   27 ar
    45   26   44 1
    46   27   28 ar
    47   27   45 1
    48   28   29 ar
    49   28   46 1
    50   29   30 ar
    51   29   47 1
    52   30   48 1
    53   31   49 1
    54   31   50 1
    55   31   51 1
