@<TRIPOS>MOLECULE
ZINC02043204
   48    50     0     0     0
SMALL
USER_CHARGES

@<TRIPOS>ATOM
      1 C1          2.5162    0.9496    1.4171 C.ar      1 <0>        -0.1558
      2 C2          1.8179    1.8754    0.7027 C.ar      1 <0>        -0.0089
      3 C3          0.8924    1.4496   -0.2625 C.ar      1 <0>        -0.1400
      4 C4          0.1441    2.3570   -1.0300 C.ar      1 <0>         0.1716
      5 N1         -0.7096    1.9109   -1.9214 N.ar      1 <0>        -0.4887
      6 C5         -0.9082    0.6184   -2.1416 C.ar      1 <0>         0.1175
      7 C6         -0.2327   -0.3410   -1.4505 C.ar      1 <0>        -0.1972
      8 C7          0.7007    0.0595   -0.4769 C.ar      1 <0>         0.0581
      9 C8          1.4373   -0.8645    0.2774 C.ar      1 <0>        -0.6935
     10 C9          2.3271   -0.4146    1.2059 C.ar      1 <0>         0.0350
     11 S1          1.2137   -2.5943    0.0269 S.o2      1 <0>         2.6977
     12 O1          2.1244   -3.2517    0.8974 O.2       1 <0>        -0.9448
     13 O2         -0.1865   -2.8329    0.0680 O.2       1 <0>        -0.9312
     14 N2          1.7064   -2.9332   -1.5173 N.pl3     1 <0>        -1.1162
     15 C10         3.1062   -2.7326   -1.9002 C.3       1 <0>         0.0916
     16 C11         3.3893   -3.4769   -3.2066 C.3       1 <0>        -0.0177
     17 N3          4.7929   -3.2757   -3.5905 N.4       1 <0>        -0.5066
     18 C12         5.0647   -3.9903   -4.8449 C.3       1 <0>         0.0395
     19 C13         6.5046   -3.7840   -5.2387 C.2       1 <0>        -0.2534
     20 C14         7.2882   -4.8305   -5.4586 C.2       1 <0>        -0.0124
     21 C15         8.7005   -4.6281   -5.8449 C.ar      1 <0>        -0.0865
     22 C16         9.2134   -3.3367   -5.9733 C.ar      1 <0>        -0.0932
     23 C17        10.5324   -3.1541   -6.3336 C.ar      1 <0>        -0.0930
     24 C18        11.3467   -4.2489   -6.5682 C.ar      1 <0>        -0.0711
     25 C19        10.8435   -5.5324   -6.4424 C.ar      1 <0>        -0.0912
     26 C20         9.5277   -5.7277   -6.0770 C.ar      1 <0>        -0.0822
     27 Br1        13.1533   -3.9899   -7.0630 Br        1 <0>        -0.0276
     28 H1          3.2315    1.2784    2.1565 H         1 <0>         0.1450
     29 H2          1.9750    2.9294    0.8779 H         1 <0>         0.1486
     30 H3          0.2706    3.4199   -0.8866 H         1 <0>         0.1731
     31 H4         -1.6264    0.3180   -2.8902 H         1 <0>         0.1633
     32 H5         -0.4102   -1.3883   -1.6456 H         1 <0>         0.1411
     33 H6          2.8949   -1.1263    1.7868 H         1 <0>         0.1512
     34 H7          1.0683   -3.2645   -2.1683 H         1 <0>         0.4272
     35 H8          3.2957   -1.6683   -2.0399 H         1 <0>         0.0890
     36 H9          3.7565   -3.1173   -1.1145 H         1 <0>         0.1050
     37 H10         3.1998   -4.5411   -3.0669 H         1 <0>         0.1445
     38 H11         2.7390   -3.0921   -3.9922 H         1 <0>         0.1424
     39 H12         4.9683   -2.2905   -3.7199 H         1 <0>         0.4308
     40 H13         4.8752   -5.0546   -4.7051 H         1 <0>         0.1348
     41 H14         4.4144   -3.6056   -5.6305 H         1 <0>         0.1403
     42 H15         6.8982   -2.7835   -5.3419 H         1 <0>         0.1396
     43 H16         6.8946   -5.8309   -5.3555 H         1 <0>         0.1348
     44 H17         8.5789   -2.4819   -5.7913 H         1 <0>         0.1337
     45 H18        10.9305   -2.1552   -6.4334 H         1 <0>         0.1407
     46 H19        11.4834   -6.3826   -6.6269 H         1 <0>         0.1428
     47 H20         9.1374   -6.7295   -5.9748 H         1 <0>         0.1397
     48 H21         5.3949   -3.6319   -2.8633 H         1 <0>         0.4327
@<TRIPOS>BOND
     1    1   10 ar
     2    1    2 ar
     3    1   28 1
     4    2    3 ar
     5    2   29 1
     6    3    8 ar
     7    3    4 ar
     8    4    5 ar
     9    4   30 1
    10    5    6 ar
    11    6    7 ar
    12    6   31 1
    13    7    8 ar
    14    7   32 1
    15    8    9 ar
    16    9   10 ar
    17    9   11 1
    18   10   33 1
    19   11   12 2
    20   11   13 2
    21   11   14 1
    22   14   15 1
    23   14   34 1
    24   15   16 1
    25   15   35 1
    26   15   36 1
    27   16   17 1
    28   16   37 1
    29   16   38 1
    30   17   18 1
    31   17   39 1
    32   17   48 1
    33   18   19 1
    34   18   40 1
    35   18   41 1
    36   19   20 2
    37   19   42 1
    38   20   21 1
    39   20   43 1
    40   21   26 ar
    41   21   22 ar
    42   22   23 ar
    43   22   44 1
    44   23   24 ar
    45   23   45 1
    46   24   25 ar
    47   24   27 1
    48   25   26 ar
    49   25   46 1
    50   26   47 1
@<TRIPOS>MOLECULE
ZINC12504479
   39    42     0     0     0
SMALL
USER_CHARGES
tert-butyl-fluoro-BLAHone
@<TRIPOS>ATOM
      1 C1          0.0306    7.5665   -1.3573 C.3       1 <0>        -0.1435
      2 C2         -0.0131    6.9316    0.0341 C.3       1 <0>         0.0141
      3 C3         -1.4663    6.6486    0.4201 C.3       1 <0>        -0.1303
      4 C4          0.6075    7.8907    1.0520 C.3       1 <0>        -0.1484
      5 C5          0.7640    5.6405    0.0218 C.2       1 <0>         0.2640
      6 N1          2.1200    5.5432    0.0086 N.pl3     1 <0>        -0.5660
      7 H1          2.7692    6.3038    0.0059 H         1 <0>         0.4300
      8 C6          2.4322    4.2055   -0.0004 C.ar      1 <0>         0.0707
      9 C7          3.6945    3.4726   -0.0160 C.ar      1 <0>        -0.0387
     10 C8          4.9179    4.1553   -0.0241 C.ar      1 <0>        -0.0830
     11 C9          6.0889    3.4567   -0.0382 C.ar      1 <0>        -0.1479
     12 C10         6.0877    2.0644   -0.0451 C.ar      1 <0>         0.1067
     13 C11         4.9015    1.3651   -0.0371 C.ar      1 <0>        -0.1434
     14 C12         3.6874    2.0596   -0.0226 C.ar      1 <0>         0.0348
     15 C13         2.4115    1.3424   -0.0138 C.ar      1 <0>        -0.1820
     16 C14         1.2049    2.0599    0.0016 C.ar      1 <0>         0.1180
     17 C15         1.2195    3.5214    0.0080 C.ar      1 <0>         0.0317
     18 N2          0.2386    4.4495    0.0214 N.2       1 <0>        -0.4565
     19 C16        -0.0162    1.3425    0.0094 C.2       1 <0>        -0.2034
     20 C17         0.0021   -0.0041    0.0020 C.2       1 <0>         0.1350
     21 N3          1.1742   -0.7011   -0.0125 N.am      1 <0>        -0.6142
     22 H2          1.1491   -1.6708   -0.0168 H         1 <0>         0.4195
     23 C18         2.3662   -0.0731   -0.0205 C.2       1 <0>         0.5428
     24 O1          3.3998   -0.7196   -0.0338 O.2       1 <0>        -0.5363
     25 F1          7.2604    1.3938   -0.0600 F         1 <0>        -0.1343
     26 H3         -0.4115    6.8833   -2.0824 H         1 <0>         0.0650
     27 H4         -0.5315    8.5004   -1.3483 H         1 <0>         0.0730
     28 H5          1.0659    7.7682   -1.6323 H         1 <0>         0.0547
     29 H6         -1.4974    6.1963    1.4114 H         1 <0>         0.0620
     30 H7         -2.0283    7.5824    0.4291 H         1 <0>         0.0642
     31 H8         -1.9084    5.9653   -0.3050 H         1 <0>         0.0701
     32 H9          1.6428    8.0923    0.7770 H         1 <0>         0.0535
     33 H10         0.0454    8.8245    1.0609 H         1 <0>         0.0757
     34 H11         0.5764    7.4384    2.0432 H         1 <0>         0.0638
     35 H12         4.9335    5.2351   -0.0195 H         1 <0>         0.1298
     36 H13         7.0282    3.9897   -0.0443 H         1 <0>         0.1393
     37 H14         4.9085    0.2852   -0.0418 H         1 <0>         0.1812
     38 H15        -0.9571    1.8725    0.0168 H         1 <0>         0.1577
     39 H16        -0.9330   -0.5444    0.0080 H         1 <0>         0.1706
@<TRIPOS>BOND
     1    1    2 1
     2    1   26 1
     3    1   27 1
     4    1   28 1
     5    2    3 1
     6    2    4 1
     7    2    5 1
     8    3   29 1
     9    3   30 1
    10    3   31 1
    11    4   32 1
    12    4   33 1
    13    4   34 1
    14    5   18 2
    15    5    6 1
    16    6    7 1
    17    6    8 1
    18    8   17 ar
    19    8    9 ar
    20    9   14 ar
    21    9   10 ar
    22   10   11 ar
    23   10   35 1
    24   11   12 ar
    25   11   36 1
    26   12   13 ar
    27   12   25 1
    28   13   14 ar
    29   13   37 1
    30   14   15 ar
    31   15   23 1
    32   15   16 ar
    33   16   17 ar
    34   16   19 1
    35   17   18 1
    36   19   20 2
    37   19   38 1
    38   20   21 1
    39   20   39 1
    40   21   22 1
    41   21   23 am
    42   23   24 2
