@<TRIPOS>MOLECULE
ZINC00085670
   30    32     0     0     0
SMALL
USER_CHARGES
8-benzyl-4-nitro-7-thia-8-azabicyclo[4.3.0]nona-2,4,10-trien-9-one
@<TRIPOS>ATOM
      1 C1          5.4876    5.5725   -4.0281 C.ar      1 <0>        -0.1043
      2 C2          4.4123    6.2384   -3.4703 C.ar      1 <0>        -0.1232
      3 C3          4.0294    5.9659   -2.1703 C.ar      1 <0>        -0.0955
      4 C4          4.7218    5.0275   -1.4281 C.ar      1 <0>        -0.1288
      5 C5          5.8003    4.3653   -1.9842 C.ar      1 <0>        -0.0877
      6 C6          6.1800    4.6341   -3.2860 C.ar      1 <0>        -0.1232
      7 C7          4.3047    4.7307   -0.0107 C.3       1 <0>         0.1960
      8 N1          3.3198    3.6462   -0.0084 N.am      1 <0>        -0.5990
      9 C8          3.5582    2.3248   -0.0181 C.2       1 <0>         0.5250
     10 O1          4.7005    1.8994   -0.0304 O.2       1 <0>        -0.4947
     11 C9          2.4238    1.4088   -0.0131 C.ar      1 <0>        -0.1271
     12 C10         2.4010   -0.0022   -0.0204 C.ar      1 <0>        -0.0129
     13 C11         1.2182   -0.6750   -0.0132 C.ar      1 <0>        -0.0746
     14 C12         0.0021   -0.0041    0.0020 C.ar      1 <0>         0.0075
     15 C13        -0.0166    1.3758    0.0096 C.ar      1 <0>        -0.0198
     16 C14         1.1766    2.0704    0.0019 C.ar      1 <0>        -0.0993
     17 S1          1.6182    3.7865    0.0077 S.3       1 <0>         0.2738
     18 N2         -1.2674   -0.7652    0.0105 N.pl3     1 <0>         0.0225
     19 O2         -2.3320   -0.1738    0.0243 O.2       1 <0>        -0.1429
     20 O3         -1.2473   -1.9830    0.0038 O.3       1 <0>        -0.1400
     21 H1          5.7869    5.7856   -5.0437 H         1 <0>         0.1257
     22 H2          3.8715    6.9718   -4.0500 H         1 <0>         0.1269
     23 H3          3.1895    6.4864   -1.7343 H         1 <0>         0.1238
     24 H4          6.3440    3.6353   -1.4029 H         1 <0>         0.1278
     25 H5          7.0203    4.1140   -3.7217 H         1 <0>         0.1260
     26 H6          3.8632    5.6233    0.4326 H         1 <0>         0.1066
     27 H7          5.1772    4.4304    0.5695 H         1 <0>         0.1114
     28 H8          3.3301   -0.5527   -0.0323 H         1 <0>         0.1615
     29 H9          1.2252   -1.7550   -0.0191 H         1 <0>         0.1676
     30 H10        -0.9565    1.9077    0.0170 H         1 <0>         0.1710
@<TRIPOS>BOND
     1    1    6 ar
     2    1    2 ar
     3    1   21 1
     4    2    3 ar
     5    2   22 1
     6    3    4 ar
     7    3   23 1
     8    4    5 ar
     9    4    7 1
    10    5    6 ar
    11    5   24 1
    12    6   25 1
    13    7    8 1
    14    7   26 1
    15    7   27 1
    16    8   17 1
    17    8    9 am
    18    9   10 2
    19    9   11 1
    20   11   16 ar
    21   11   12 ar
    22   12   13 ar
    23   12   28 1
    24   13   14 ar
    25   13   29 1
    26   14   15 ar
    27   14   18 1
    28   15   16 ar
    29   15   30 1
    30   16   17 1
    31   18   19 2
    32   18   20 1
@<TRIPOS>MOLECULE
ZINC01443666
   28    30     0     0     0
SMALL
USER_CHARGES
4-fluoro-8-(p-tolyl)-7-thia-8-azabicyclo[4.3.0]nona-2,4,10-trien-9-one
@<TRIPOS>ATOM
      1 C1          1.9440    7.7298    0.0209 C.3       1 <0>        -0.1158
      2 C2          1.7332    6.2376    0.0161 C.ar      1 <0>        -0.0920
      3 C3          2.7169    5.4003    0.5100 C.ar      1 <0>        -0.0937
      4 C4          2.5271    4.0325    0.5071 C.ar      1 <0>        -0.1346
      5 C5          1.3462    3.4977    0.0073 C.ar      1 <0>         0.1662
      6 C6          0.3622    4.3415   -0.4929 C.ar      1 <0>        -0.1134
      7 C7          0.5567    5.7086   -0.4825 C.ar      1 <0>        -0.0942
      8 N1          1.1510    2.1141    0.0024 N.am      1 <0>        -0.5558
      9 C8         -0.0177    1.4530    0.0100 C.2       1 <0>         0.5290
     10 O1         -1.0748    2.0599    0.0184 O.2       1 <0>        -0.4936
     11 C9          0.0021   -0.0041    0.0020 C.ar      1 <0>        -0.1909
     12 C10        -1.0701   -0.9226    0.0066 C.ar      1 <0>         0.0180
     13 C11        -0.8341   -2.2619   -0.0040 C.ar      1 <0>        -0.1663
     14 C12         0.4611   -2.7707   -0.0187 C.ar      1 <0>         0.1661
     15 C13         1.5367   -1.9015   -0.0231 C.ar      1 <0>        -0.1240
     16 C14         1.3085   -0.5412   -0.0134 C.ar      1 <0>        -0.0641
     17 S1          2.3465    0.8951   -0.0156 S.3       1 <0>         0.2672
     18 F1          0.6665   -4.1060   -0.0281 F         1 <0>        -0.1190
     19 H1          2.4163    8.0330   -0.9134 H         1 <0>         0.0735
     20 H2          0.9820    8.2323    0.1215 H         1 <0>         0.0690
     21 H3          2.5861    8.0033    0.8582 H         1 <0>         0.0689
     22 H4          3.6348    5.8167    0.8980 H         1 <0>         0.1339
     23 H5          3.2959    3.3792    0.8926 H         1 <0>         0.1308
     24 H6         -0.5550    3.9289   -0.8863 H         1 <0>         0.1422
     25 H7         -0.2094    6.3654   -0.8675 H         1 <0>         0.1335
     26 H8         -2.0868   -0.5584    0.0183 H         1 <0>         0.1496
     27 H9         -1.6701   -2.9456   -0.0006 H         1 <0>         0.1530
     28 H10         2.5465   -2.2843   -0.0341 H         1 <0>         0.1565
@<TRIPOS>BOND
     1    1    2 1
     2    1   19 1
     3    1   20 1
     4    1   21 1
     5    2    7 ar
     6    2    3 ar
     7    3    4 ar
     8    3   22 1
     9    4    5 ar
    10    4   23 1
    11    5    6 ar
    12    5    8 1
    13    6    7 ar
    14    6   24 1
    15    7   25 1
    16    8   17 1
    17    8    9 am
    18    9   10 2
    19    9   11 1
    20   11   16 ar
    21   11   12 ar
    22   12   13 ar
    23   12   26 1
    24   13   14 ar
    25   13   27 1
    26   14   15 ar
    27   14   18 1
    28   15   16 ar
    29   15   28 1
    30   16   17 1
@<TRIPOS>MOLECULE
ZINC40833987
   21    21     0     0     0
SMALL
USER_CHARGES

@<TRIPOS>ATOM
      1 C1         -0.0173    1.4248    0.0099 C.3       1 <0>         0.0325
      2 O1          0.0021   -0.0041    0.0020 O.3       1 <0>        -0.3510
      3 C2          0.5984   -0.5997   -1.0427 C.2       1 <0>         0.4700
      4 O2          1.0877    0.0699   -1.9214 O.2       1 <0>        -0.5035
      5 C3          0.6575   -2.1036   -1.1196 C.3       1 <0>        -0.1374
      6 C4          1.3848   -2.5205   -2.3995 C.3       1 <0>         0.1628
      7 N1          1.4423   -3.9825   -2.4744 N.am      1 <0>        -0.6275
      8 C5          2.3482   -4.8072   -1.9111 C.2       1 <0>         0.5078
      9 O3          3.2741   -4.3840   -1.2355 O.2       1 <0>        -0.5120
     10 C6          2.1697   -6.1602   -2.1410 C.2       1 <0>        -0.2531
     11 C7          1.0988   -6.4931   -2.9095 C.2       1 <0>        -0.1009
     12 S1          0.3952   -5.0146   -3.2723 S.3       1 <0>         0.3961
     13 Cl1         0.5782   -8.0764   -3.3951 Cl        1 <0>         0.0472
     14 H1          1.0053    1.8021    0.0021 H         1 <0>         0.0634
     15 H2         -0.5445    1.7859   -0.8732 H         1 <0>         0.0633
     16 H3         -0.5275    1.7763    0.9067 H         1 <0>         0.1054
     17 H4          1.1948   -2.4908   -0.2539 H         1 <0>         0.1189
     18 H5         -0.3550   -2.5070   -1.1292 H         1 <0>         0.1165
     19 H6          0.8476   -2.1333   -3.2653 H         1 <0>         0.1078
     20 H7          2.3973   -2.1171   -2.3900 H         1 <0>         0.1142
     21 H8          2.8391   -6.9045   -1.7357 H         1 <0>         0.1795
@<TRIPOS>BOND
     1    1    2 1
     2    1   14 1
     3    1   15 1
     4    1   16 1
     5    2    3 1
     6    3    4 2
     7    3    5 1
     8    5    6 1
     9    5   17 1
    10    5   18 1
    11    6    7 1
    12    6   19 1
    13    6   20 1
    14    7   12 1
    15    7    8 am
    16    8    9 2
    17    8   10 1
    18   10   11 2
    19   10   21 1
    20   11   12 1
    21   11   13 1
@<TRIPOS>MOLECULE
ZINC44404798
   18    18     0     0     0
SMALL
USER_CHARGES

@<TRIPOS>ATOM
      1 C1         -0.0173    1.4248    0.0099 C.3       1 <0>         0.0338
      2 O1          0.0021   -0.0041    0.0020 O.3       1 <0>        -0.3488
      3 C2          0.6181   -0.6108    1.0287 C.2       1 <0>         0.4395
      4 O2          1.1242    0.0494    1.9050 O.2       1 <0>        -0.4861
      5 C3          0.6786   -2.1154    1.0883 C.3       1 <0>         0.1626
      6 N1          1.3982   -2.5277    2.2960 N.am      1 <0>        -0.6215
      7 C4          2.7300   -2.6519    2.4668 C.2       1 <0>         0.5162
      8 O3          3.5210   -2.4150    1.5662 O.2       1 <0>        -0.5088
      9 C5          3.1503   -3.0622    3.7198 C.2       1 <0>        -0.2506
     10 C6          2.1651   -3.2907    4.6284 C.2       1 <0>        -0.0981
     11 S1          0.7578   -2.9462    3.7837 S.3       1 <0>         0.4075
     12 Cl1         2.3263   -3.8101    6.2771 Cl        1 <0>         0.0490
     13 H1          1.0053    1.8021    0.0021 H         1 <0>         0.0633
     14 H2         -0.5445    1.7859   -0.8732 H         1 <0>         0.1078
     15 H3         -0.5275    1.7763    0.9067 H         1 <0>         0.0635
     16 H4         -0.3336   -2.5190    1.1129 H         1 <0>         0.1418
     17 H5          1.1992   -2.4933    0.2084 H         1 <0>         0.1475
     18 H6          4.1949   -3.1930    3.9606 H         1 <0>         0.1812
@<TRIPOS>BOND
     1    1    2 1
     2    1   13 1
     3    1   14 1
     4    1   15 1
     5    2    3 1
     6    3    4 2
     7    3    5 1
     8    5    6 1
     9    5   16 1
    10    5   17 1
    11    6   11 1
    12    6    7 am
    13    7    8 2
    14    7    9 1
    15    9   10 2
    16    9   18 1
    17   10   11 1
    18   10   12 1
@<TRIPOS>MOLECULE
ZINC12367068
   19    20     0     0     0
SMALL
USER_CHARGES
2-(3-chloro-2-fluoro-phenyl)isothiazol-3-one
@<TRIPOS>ATOM
      1 C1         -0.0126    1.0758    0.0080 C.ar      1 <0>        -0.1062
      2 C2         -1.2191    1.7490    0.0173 C.ar      1 <0>        -0.0617
      3 C3         -1.2388    3.1371    0.0294 C.ar      1 <0>         0.1332
      4 C4         -0.0424    3.8466    0.0217 C.ar      1 <0>         0.1297
      5 C5          1.1623    3.1660    0.0075 C.ar      1 <0>        -0.0714
      6 C6          1.1759    1.7819    0.0004 C.ar      1 <0>        -0.0633
      7 Cl1         2.6573    4.0484   -0.0020 Cl        1 <0>        -0.0321
      8 F1         -0.0565    5.1975    0.0287 F         1 <0>        -0.1126
      9 N1         -2.4594    3.8210    0.0437 N.am      1 <0>        -0.5750
     10 C7         -3.2273    4.1396    1.1068 C.2       1 <0>         0.5085
     11 O1         -2.8946    3.8330    2.2416 O.2       1 <0>        -0.5108
     12 C8         -4.4017    4.8287    0.8669 C.2       1 <0>        -0.2558
     13 C9         -4.6886    5.1189   -0.4300 C.2       1 <0>        -0.1033
     14 S1         -3.3386    4.4463   -1.2810 S.3       1 <0>         0.2787
     15 H1          0.0021   -0.0041    0.0020 H         1 <0>         0.1540
     16 H2         -2.1465    1.1955    0.0187 H         1 <0>         0.1478
     17 H3          2.1171    1.2524   -0.0107 H         1 <0>         0.1546
     18 H4         -5.0616    5.1192    1.6710 H         1 <0>         0.1767
     19 H5         -5.5458    5.6398   -0.8302 H         1 <0>         0.2091
@<TRIPOS>BOND
     1    1    6 ar
     2    1    2 ar
     3    1   15 1
     4    2    3 ar
     5    2   16 1
     6    3    4 ar
     7    3    9 1
     8    4    5 ar
     9    4    8 1
    10    5    6 ar
    11    5    7 1
    12    6   17 1
    13    9   14 1
    14    9   10 am
    15   10   11 2
    16   10   12 1
    17   12   13 2
    18   12   18 1
    19   13   14 1
    20   13   19 1
@<TRIPOS>MOLECULE
ZINC04098424
   94    96     0     0     0
SMALL
USER_CHARGES
3-(3,4-dihydroxybenzoyl)-2-hydroxy-1-(2-isopropenyl-5-methyl-hex-4-enyl)-6,6-dimethyl-5,7-bis(3-methylbut-2-enyl)bicyclo[3.3.1]non-2-ene-4,9-dione
@<TRIPOS>ATOM
      1 C1         -2.9757   10.0474    0.8737 C.3       1 <0>        -0.1160
      2 C2         -1.5605    9.5304    0.9048 C.2       1 <0>        -0.1146
      3 C3         -1.3168    8.2719    0.6348 C.2       1 <0>        -0.1737
      4 C4         -2.4584    7.3024    0.4675 C.3       1 <0>        -0.1212
      5 C5         -2.5121    6.8234   -0.9845 C.3       1 <0>        -0.0895
      6 H1         -1.8458    7.4363   -1.5915 H         1 <0>         0.0968
      7 C6         -3.9436    6.9582   -1.5099 C.3       1 <0>        -0.1041
      8 C7         -4.8759    6.1582   -0.5790 C.3       1 <0>        -0.0578
      9 C8         -4.6429    6.6630    0.8257 C.2       1 <0>         0.2376
     10 C9         -3.7086    6.0970    1.6558 C.2       1 <0>        -0.3998
     11 C10        -2.9050    4.9437    1.2496 C.2       1 <0>         0.4403
     12 O1         -2.2018    4.3655    2.0522 O.2       1 <0>        -0.4425
     13 C11        -2.9690    4.4856   -0.1931 C.3       1 <0>        -0.1265
     14 C12        -4.4067    4.7122   -0.6430 C.2       1 <0>         0.3855
     15 O2         -5.1187    3.8134   -1.0219 O.2       1 <0>        -0.3907
     16 C13        -2.0446    5.3557   -1.0469 C.3       1 <0>        -0.0358
     17 C14        -0.6141    5.2477   -0.5150 C.3       1 <0>        -0.1509
     18 C15        -2.0804    4.8627   -2.4948 C.3       1 <0>        -0.1521
     19 C16        -2.5875    3.0087   -0.3121 C.3       1 <0>        -0.0678
     20 C17        -3.5420    2.1761    0.5045 C.2       1 <0>        -0.1769
     21 C18        -4.1969    1.1904   -0.0574 C.2       1 <0>        -0.1024
     22 C19        -3.9960    0.8893   -1.5202 C.3       1 <0>        -0.1192
     23 C20        -5.1514    0.3577    0.7592 C.3       1 <0>        -0.1177
     24 C21        -3.5080    6.6681    2.9965 C.2       1 <0>         0.4514
     25 O3         -3.0500    7.7887    3.1182 O.2       1 <0>        -0.4263
     26 C22        -3.8624    5.8814    4.1944 C.ar      1 <0>        -0.1557
     27 C23        -4.2789    4.5540    4.0625 C.ar      1 <0>        -0.0331
     28 C24        -4.6093    3.8213    5.1815 C.ar      1 <0>        -0.1472
     29 C25        -4.5292    4.3984    6.4418 C.ar      1 <0>         0.1210
     30 C26        -4.1144    5.7223    6.5806 C.ar      1 <0>         0.0647
     31 C27        -3.7766    6.4609    5.4634 C.ar      1 <0>        -0.0712
     32 O4         -4.0365    6.2845    7.8165 O.3       1 <0>        -0.4840
     33 O5         -4.8551    3.6717    7.5417 O.3       1 <0>        -0.4863
     34 O6         -5.3716    7.6953    1.2750 O.3       1 <0>        -0.4272
     35 C28        -6.3465    6.2864   -0.9810 C.3       1 <0>        -0.0920
     36 C29        -7.1987    5.3754   -0.0952 C.3       1 <0>        -0.0614
     37 H2         -6.7772    4.3703   -0.0957 H         1 <0>         0.0973
     38 C30        -8.6286    5.3291   -0.6375 C.3       1 <0>        -0.0817
     39 C31        -9.4366    4.3382    0.1602 C.2       1 <0>        -0.1572
     40 C32       -10.5340    4.7225    0.7634 C.2       1 <0>        -0.1316
     41 C33       -11.0675    6.1145    0.5424 C.3       1 <0>        -0.1212
     42 C34       -11.2631    3.7727    1.6785 C.3       1 <0>        -0.1165
     43 C35        -7.2126    5.9136    1.3124 C.2       1 <0>        -0.0929
     44 C36        -6.6405    5.2376    2.2777 C.2       1 <0>        -0.2129
     45 C37        -7.8847    7.2293    1.6095 C.3       1 <0>        -0.1135
     46 C38        -0.4256   10.4611    1.2464 C.3       1 <0>        -0.1172
     47 H3         -3.5774    9.5032    1.6017 H         1 <0>         0.0693
     48 H4         -2.9801   11.1092    1.1199 H         1 <0>         0.0562
     49 H5         -3.3932    9.9037   -0.1228 H         1 <0>         0.0598
     50 H6         -0.2978    7.9291    0.5320 H         1 <0>         0.1030
     51 H7         -3.3957    7.7974    0.7217 H         1 <0>         0.0938
     52 H8         -2.3086    6.4475    1.1269 H         1 <0>         0.1197
     53 H9         -4.0030    6.5581   -2.5221 H         1 <0>         0.0908
     54 H10        -4.2380    8.0077   -1.5116 H         1 <0>         0.0920
     55 H11        -0.2883    4.2083   -0.5570 H         1 <0>         0.0674
     56 H12         0.0481    5.8610   -1.1261 H         1 <0>         0.0680
     57 H13        -0.5829    5.5967    0.5171 H         1 <0>         0.0615
     58 H14        -3.0993    4.9296   -2.8763 H         1 <0>         0.0584
     59 H15        -1.4225    5.4810   -3.1056 H         1 <0>         0.0705
     60 H16        -1.7450    3.8263   -2.5342 H         1 <0>         0.0689
     61 H17        -1.5722    2.8648    0.0574 H         1 <0>         0.0893
     62 H18        -2.6408    2.7028   -1.3569 H         1 <0>         0.0894
     63 H19        -3.6860    2.3919    1.5528 H         1 <0>         0.1028
     64 H20        -4.6199    0.0424   -1.8059 H         1 <0>         0.0576
     65 H21        -2.9488    0.6462   -1.7006 H         1 <0>         0.0616
     66 H22        -4.2738    1.7613   -2.1122 H         1 <0>         0.0734
     67 H23        -4.6165   -0.4868    1.1937 H         1 <0>         0.0656
     68 H24        -5.5756    0.9681    1.5564 H         1 <0>         0.0586
     69 H25        -5.9523   -0.0104    0.1181 H         1 <0>         0.0630
     70 H26        -4.3421    4.1027    3.0834 H         1 <0>         0.1321
     71 H27        -4.9310    2.7955    5.0781 H         1 <0>         0.1390
     72 H28        -3.4508    7.4851    5.5698 H         1 <0>         0.1445
     73 H29        -3.1758    6.1771    8.2440 H         1 <0>         0.3890
     74 H30        -4.1112    3.1915    7.9305 H         1 <0>         0.3940
     75 H31        -5.1024    7.9097    2.2139 H         1 <0>         0.3986
     76 H32        -6.6687    7.3201   -0.8555 H         1 <0>         0.0883
     77 H33        -6.4649    5.9930   -2.0241 H         1 <0>         0.0840
     78 H34        -9.0809    6.3173   -0.5545 H         1 <0>         0.0734
     79 H35        -8.6106    5.0245   -1.6840 H         1 <0>         0.0702
     80 H36        -9.1108    3.3111    0.2345 H         1 <0>         0.1045
     81 H37       -11.2008    6.2872   -0.5256 H         1 <0>         0.0635
     82 H38       -12.0261    6.2211    1.0501 H         1 <0>         0.0574
     83 H39       -10.3614    6.8420    0.9427 H         1 <0>         0.0687
     84 H40       -10.7318    2.8216    1.7129 H         1 <0>         0.0584
     85 H41       -11.3110    4.1986    2.6807 H         1 <0>         0.0645
     86 H42       -12.2738    3.6109    1.3038 H         1 <0>         0.0616
     87 H43        -6.1588    4.2947    2.0648 H         1 <0>         0.0900
     88 H44        -6.6504    5.6233    3.2865 H         1 <0>         0.0954
     89 H45        -8.2135    7.6880    0.6770 H         1 <0>         0.0617
     90 H46        -8.7467    7.0594    2.2546 H         1 <0>         0.0618
     91 H47        -7.1799    7.8920    2.1118 H         1 <0>         0.0679
     92 H48        -0.0446   10.9198    0.3339 H         1 <0>         0.0627
     93 H49        -0.7837   11.2383    1.9215 H         1 <0>         0.0622
     94 H50         0.3725    9.8985    1.7309 H         1 <0>         0.0596
@<TRIPOS>BOND
     1    1    2 1
     2    1   47 1
     3    1   48 1
     4    1   49 1
     5    2    3 2
     6    2   46 1
     7    3    4 1
     8    3   50 1
     9    4    5 1
    10    4   51 1
    11    4   52 1
    12    5    6 1
    13    5   16 1
    14    5    7 1
    15    7    8 1
    16    7   53 1
    17    7   54 1
    18    8   14 1
    19    8    9 1
    20    8   35 1
    21    9   10 2
    22    9   34 1
    23   10   11 1
    24   10   24 1
    25   11   12 2
    26   11   13 1
    27   13   14 1
    28   13   16 1
    29   13   19 1
    30   14   15 2
    31   16   17 1
    32   16   18 1
    33   17   55 1
    34   17   56 1
    35   17   57 1
    36   18   58 1
    37   18   59 1
    38   18   60 1
    39   19   20 1
    40   19   61 1
    41   19   62 1
    42   20   21 2
    43   20   63 1
    44   21   22 1
    45   21   23 1
    46   22   64 1
    47   22   65 1
    48   22   66 1
    49   23   67 1
    50   23   68 1
    51   23   69 1
    52   24   25 2
    53   24   26 1
    54   26   31 ar
    55   26   27 ar
    56   27   28 ar
    57   27   70 1
    58   28   29 ar
    59   28   71 1
    60   29   30 ar
    61   29   33 1
    62   30   31 ar
    63   30   32 1
    64   31   72 1
    65   32   73 1
    66   33   74 1
    67   34   75 1
    68   35   36 1
    69   35   76 1
    70   35   77 1
    71   36   37 1
    72   36   38 1
    73   36   43 1
    74   38   39 1
    75   38   78 1
    76   38   79 1
    77   39   40 2
    78   39   80 1
    79   40   41 1
    80   40   42 1
    81   41   81 1
    82   41   82 1
    83   41   83 1
    84   42   84 1
    85   42   85 1
    86   42   86 1
    87   43   44 2
    88   43   45 1
    89   44   87 1
    90   44   88 1
    91   45   89 1
    92   45   90 1
    93   45   91 1
    94   46   92 1
    95   46   93 1
    96   46   94 1
@<TRIPOS>MOLECULE
ZINC12367067
   19    20     0     0     0
SMALL
USER_CHARGES
2-(3-chloro-4-fluoro-phenyl)isothiazol-3-one
@<TRIPOS>ATOM
      1 C1         -0.0503    4.5028    0.0263 C.ar      1 <0>        -0.1084
      2 C2          1.1533    3.8250    0.0111 C.ar      1 <0>        -0.1121
      3 C3          1.1696    2.4408    0.0040 C.ar      1 <0>         0.1028
      4 C4         -0.0215    1.7317    0.0116 C.ar      1 <0>        -0.0498
      5 C5         -1.2275    2.4060    0.0210 C.ar      1 <0>        -0.0846
      6 C6         -1.2451    3.7949    0.0343 C.ar      1 <0>         0.1796
      7 N1         -2.4650    4.4799    0.0502 N.am      1 <0>        -0.5654
      8 C7         -3.6686    4.0549   -0.3877 C.2       1 <0>         0.5017
      9 O1         -3.8076    2.9435   -0.8755 O.2       1 <0>        -0.5048
     10 C8         -4.7391    4.9213   -0.2645 C.2       1 <0>        -0.2542
     11 C9         -4.4844    6.1356    0.2914 C.2       1 <0>        -0.1040
     12 S1         -2.7892    6.0519    0.6354 S.3       1 <0>         0.2910
     13 Cl1         0.0021   -0.0041    0.0020 Cl        1 <0>        -0.0310
     14 F1          2.3480    1.7802   -0.0108 F         1 <0>        -0.1201
     15 H1         -0.0622    5.5827    0.0315 H         1 <0>         0.1481
     16 H2          2.0824    4.3755    0.0045 H         1 <0>         0.1585
     17 H3         -2.1556    1.8537    0.0223 H         1 <0>         0.1630
     18 H4         -5.7303    4.6465   -0.5938 H         1 <0>         0.1786
     19 H5         -5.1702    6.9491    0.4768 H         1 <0>         0.2112
@<TRIPOS>BOND
     1    1    6 ar
     2    1    2 ar
     3    1   15 1
     4    2    3 ar
     5    2   16 1
     6    3    4 ar
     7    3   14 1
     8    4    5 ar
     9    4   13 1
    10    5    6 ar
    11    5   17 1
    12    6    7 1
    13    7   12 1
    14    7    8 am
    15    8    9 2
    16    8   10 1
    17   10   11 2
    18   10   18 1
    19   11   12 1
    20   11   19 1
