@<TRIPOS>MOLECULE
ZINC40979326
   58    61     0     0     0
SMALL
USER_CHARGES

@<TRIPOS>ATOM
      1 C1          0.0313    0.4233    0.2594 C.3       1 <0>        -0.1531
      2 C2          0.2943   -1.0706    0.0598 C.3       1 <0>        -0.1280
      3 C3          1.0135   -1.2883   -1.2730 C.3       1 <0>         0.1684
      4 H1          0.4319   -0.8381   -2.0774 H         1 <0>         0.1039
      5 C4          1.1655   -2.7886   -1.5315 C.3       1 <0>         0.0631
      6 O1          1.8265   -3.3987   -0.4211 O.3       1 <0>        -0.5696
      7 N1          2.3383   -0.6651   -1.2204 N.pl3     1 <0>        -0.6797
      8 C5          2.9626   -0.2653   -2.3906 C.ar      1 <0>         0.6268
      9 N2          2.3380   -0.4527   -3.5463 N.ar      1 <0>        -0.6111
     10 C6          2.8951   -0.0864   -4.6951 C.ar      1 <0>         0.5347
     11 C7          4.1686    0.5082   -4.6654 C.ar      1 <0>        -0.1491
     12 C8          4.7913    0.6864   -3.4190 C.ar      1 <0>         0.3505
     13 N3          4.1589    0.2950   -2.3171 N.ar      1 <0>        -0.6084
     14 N4          6.0011    1.2778   -3.6812 N.pl3     1 <0>        -0.4705
     15 C9          6.0909    1.4434   -5.0326 C.2       1 <0>         0.2398
     16 N5          5.0151    0.9913   -5.6077 N.2       1 <0>        -0.4562
     17 C10         7.0111    1.6616   -2.6918 C.3       1 <0>         0.1342
     18 C11         8.3154    0.9151   -2.9785 C.3       1 <0>        -0.1631
     19 C12         7.2579    3.1694   -2.7734 C.3       1 <0>        -0.1628
     20 N6          2.2359   -0.2864   -5.8962 N.pl3     1 <0>        -0.6367
     21 C13         0.9236   -0.7682   -5.9015 C.ar      1 <0>         0.1541
     22 C14         0.0267   -0.3535   -4.9238 C.ar      1 <0>        -0.0986
     23 C15        -1.2712   -0.8272   -4.9261 C.ar      1 <0>        -0.1046
     24 C16        -1.6849   -1.7151   -5.8994 C.ar      1 <0>        -0.1149
     25 C17        -0.7925   -2.1364   -6.8837 C.ar      1 <0>        -0.0326
     26 C18         0.5144   -1.6556   -6.8855 C.ar      1 <0>        -0.1040
     27 C19        -1.2354   -3.0907   -7.9298 C.ar      1 <0>         0.1695
     28 C20        -2.5724   -3.4781   -7.9903 C.ar      1 <0>        -0.1627
     29 C21        -2.9706   -4.3690   -8.9717 C.ar      1 <0>        -0.0719
     30 C22        -2.0173   -4.8439   -9.8616 C.ar      1 <0>        -0.1760
     31 C23        -0.7076   -4.4172   -9.7437 C.ar      1 <0>         0.1055
     32 N7         -0.3562   -3.5639   -8.8031 N.ar      1 <0>        -0.4790
     33 H2          0.9792    0.9614    0.2659 H         1 <0>         0.0551
     34 H3         -0.5916    0.7945   -0.5544 H         1 <0>         0.0540
     35 H4         -0.4811    0.5783    1.2089 H         1 <0>         0.0566
     36 H5          0.9172   -1.4418    0.8736 H         1 <0>         0.0770
     37 H6         -0.6536   -1.6088    0.0532 H         1 <0>         0.0779
     38 H7          0.1802   -3.2370   -1.6589 H         1 <0>         0.0526
     39 H8          1.7550   -2.9437   -2.4351 H         1 <0>         0.0503
     40 H9          1.9570   -4.3521   -0.5164 H         1 <0>         0.3778
     41 H10         2.7784   -0.5324   -0.3662 H         1 <0>         0.4153
     42 H11         6.9307    1.8848   -5.5485 H         1 <0>         0.2161
     43 H12         6.6574    1.4048   -1.6933 H         1 <0>         0.1068
     44 H13         8.6691    1.1718   -3.9771 H         1 <0>         0.0658
     45 H14         9.0669    1.2006   -2.2424 H         1 <0>         0.0800
     46 H15         8.1396   -0.1591   -2.9204 H         1 <0>         0.0632
     47 H16         7.6115    3.4261   -3.7720 H         1 <0>         0.0658
     48 H17         6.3286    3.7012   -2.5692 H         1 <0>         0.0632
     49 H18         8.0093    3.4549   -2.0373 H         1 <0>         0.0800
     50 H19         2.6846   -0.0922   -6.7339 H         1 <0>         0.4288
     51 H20         0.3454    0.3405   -4.1601 H         1 <0>         0.1325
     52 H21        -1.9643   -0.5023   -4.1642 H         1 <0>         0.1293
     53 H22        -2.7001   -2.0834   -5.8978 H         1 <0>         0.1268
     54 H23         1.2084   -1.9760   -7.6485 H         1 <0>         0.1368
     55 H24        -3.2879   -3.0888   -7.2811 H         1 <0>         0.1385
     56 H25        -4.0000   -4.6877   -9.0433 H         1 <0>         0.1371
     57 H26        -2.2959   -5.5404  -10.6386 H         1 <0>         0.1365
     58 H27         0.0367   -4.7848  -10.4345 H         1 <0>         0.1583
@<TRIPOS>BOND
     1    1    2 1
     2    1   33 1
     3    1   34 1
     4    1   35 1
     5    2    3 1
     6    2   36 1
     7    2   37 1
     8    3    4 1
     9    3    5 1
    10    3    7 1
    11    5    6 1
    12    5   38 1
    13    5   39 1
    14    6   40 1
    15    7    8 1
    16    7   41 1
    17    8   13 ar
    18    8    9 ar
    19    9   10 ar
    20   10   11 ar
    21   10   20 1
    22   11   16 1
    23   11   12 ar
    24   12   13 ar
    25   12   14 1
    26   14   15 1
    27   14   17 1
    28   15   16 2
    29   15   42 1
    30   17   18 1
    31   17   19 1
    32   17   43 1
    33   18   44 1
    34   18   45 1
    35   18   46 1
    36   19   47 1
    37   19   48 1
    38   19   49 1
    39   20   21 1
    40   20   50 1
    41   21   26 ar
    42   21   22 ar
    43   22   23 ar
    44   22   51 1
    45   23   24 ar
    46   23   52 1
    47   24   25 ar
    48   24   53 1
    49   25   26 ar
    50   25   27 1
    51   26   54 1
    52   27   32 ar
    53   27   28 ar
    54   28   29 ar
    55   28   55 1
    56   29   30 ar
    57   29   56 1
    58   30   31 ar
    59   30   57 1
    60   31   32 ar
    61   31   58 1
@<TRIPOS>MOLECULE
ZINC49033750
   58    61     0     0     0
SMALL
USER_CHARGES

@<TRIPOS>ATOM
      1 C1         -0.3258    0.6123    0.0085 C.3       1 <0>        -0.1534
      2 C2         -0.1194   -0.8977   -0.1256 C.3       1 <0>        -0.1280
      3 C3          0.6808   -1.1923   -1.3960 C.3       1 <0>         0.1679
      4 H1          1.6121   -0.6262   -1.3783 H         1 <0>         0.1037
      5 C4          0.9944   -2.6882   -1.4658 C.3       1 <0>         0.0630
      6 O1         -0.2205   -3.4345   -1.3717 O.3       1 <0>        -0.5696
      7 N1         -0.1052   -0.8029   -2.5694 N.pl3     1 <0>        -0.6797
      8 C5          0.5342   -0.4782   -3.7546 C.ar      1 <0>         0.6263
      9 N2          1.8591   -0.5326   -3.8035 N.ar      1 <0>        -0.6112
     10 C6          2.5180   -0.2307   -4.9167 C.ar      1 <0>         0.5337
     11 C7          1.7813    0.1507   -6.0517 C.ar      1 <0>        -0.1486
     12 C8          0.3809    0.1940   -5.9528 C.ar      1 <0>         0.3505
     13 N3         -0.1975   -0.1296   -4.8003 N.ar      1 <0>        -0.6078
     14 N4         -0.0737    0.5901   -7.1851 N.pl3     1 <0>        -0.4704
     15 C9          1.0173    0.7743   -7.9835 C.2       1 <0>         0.2402
     16 N5          2.1041    0.5161   -7.3166 N.2       1 <0>        -0.4563
     17 C10        -1.4736    0.7800   -7.5729 C.3       1 <0>         0.1341
     18 C11        -1.6895    2.2301   -8.0104 C.3       1 <0>        -0.1629
     19 C12        -1.8135   -0.1585   -8.7324 C.3       1 <0>        -0.1631
     20 N6          3.9007   -0.2899   -4.9582 N.pl3     1 <0>        -0.6346
     21 C13         4.6242   -0.5570   -3.7922 C.ar      1 <0>         0.1542
     22 C14         4.1533   -0.1085   -2.5637 C.ar      1 <0>        -0.1027
     23 C15         4.8654   -0.3710   -1.4091 C.ar      1 <0>        -0.1043
     24 C16         6.0487   -1.0802   -1.4689 C.ar      1 <0>        -0.1166
     25 C17         6.5286   -1.5339   -2.6963 C.ar      1 <0>        -0.0318
     26 C18         5.8090   -1.2745   -3.8601 C.ar      1 <0>        -0.1067
     27 C19         7.7999   -2.2956   -2.7622 C.ar      1 <0>         0.1696
     28 C20         8.4546   -2.6505   -1.5846 C.ar      1 <0>        -0.1627
     29 C21         9.6398   -3.3610   -1.6620 C.ar      1 <0>        -0.0719
     30 C22        10.1320   -3.6938   -2.9162 C.ar      1 <0>        -0.1761
     31 C23         9.4304   -3.3094   -4.0437 C.ar      1 <0>         0.1055
     32 N7          8.3013   -2.6379   -3.9417 N.ar      1 <0>        -0.4791
     33 H2          0.6434    1.1078    0.0664 H         1 <0>         0.0540
     34 H3         -0.8720    0.9828   -0.8590 H         1 <0>         0.0552
     35 H4         -0.8958    0.8222    0.9136 H         1 <0>         0.0567
     36 H5          0.4268   -1.2682    0.7419 H         1 <0>         0.0781
     37 H6         -1.0885   -1.3932   -0.1835 H         1 <0>         0.0771
     38 H7          1.4863   -2.9125   -2.4123 H         1 <0>         0.0505
     39 H8          1.6528   -2.9602   -0.6408 H         1 <0>         0.0527
     40 H9         -0.0973   -4.3929   -1.4091 H         1 <0>         0.3778
     41 H10        -1.0732   -0.7724   -2.5164 H         1 <0>         0.4155
     42 H11         0.9836    1.0879   -9.0164 H         1 <0>         0.2163
     43 H12        -2.1194    0.5568   -6.7235 H         1 <0>         0.1068
     44 H13        -1.0438    2.4533   -8.8597 H         1 <0>         0.0659
     45 H14        -2.7311    2.3714   -8.2988 H         1 <0>         0.0800
     46 H15        -1.4474    2.8987   -7.1843 H         1 <0>         0.0633
     47 H16        -1.1678    0.0647   -9.5817 H         1 <0>         0.0659
     48 H17        -1.6597   -1.1916   -8.4207 H         1 <0>         0.0632
     49 H18        -2.8551   -0.0173   -9.0209 H         1 <0>         0.0801
     50 H19         4.3674   -0.1461   -5.7963 H         1 <0>         0.4291
     51 H20         3.2286    0.4470   -2.5115 H         1 <0>         0.1380
     52 H21         4.4957   -0.0201   -0.4570 H         1 <0>         0.1291
     53 H22         6.6027   -1.2832   -0.5643 H         1 <0>         0.1265
     54 H23         6.1747   -1.6275   -4.8130 H         1 <0>         0.1367
     55 H24         8.0432   -2.3747   -0.6249 H         1 <0>         0.1384
     56 H25        10.1699   -3.6498   -0.7664 H         1 <0>         0.1371
     57 H26        11.0544   -4.2475   -3.0105 H         1 <0>         0.1364
     58 H27         9.8106   -3.5668   -5.0212 H         1 <0>         0.1584
@<TRIPOS>BOND
     1    1    2 1
     2    1   33 1
     3    1   34 1
     4    1   35 1
     5    2    3 1
     6    2   36 1
     7    2   37 1
     8    3    4 1
     9    3    5 1
    10    3    7 1
    11    5    6 1
    12    5   38 1
    13    5   39 1
    14    6   40 1
    15    7    8 1
    16    7   41 1
    17    8   13 ar
    18    8    9 ar
    19    9   10 ar
    20   10   11 ar
    21   10   20 1
    22   11   16 1
    23   11   12 ar
    24   12   13 ar
    25   12   14 1
    26   14   15 1
    27   14   17 1
    28   15   16 2
    29   15   42 1
    30   17   18 1
    31   17   19 1
    32   17   43 1
    33   18   44 1
    34   18   45 1
    35   18   46 1
    36   19   47 1
    37   19   48 1
    38   19   49 1
    39   20   21 1
    40   20   50 1
    41   21   26 ar
    42   21   22 ar
    43   22   23 ar
    44   22   51 1
    45   23   24 ar
    46   23   52 1
    47   24   25 ar
    48   24   53 1
    49   25   26 ar
    50   25   27 1
    51   26   54 1
    52   27   32 ar
    53   27   28 ar
    54   28   29 ar
    55   28   55 1
    56   29   30 ar
    57   29   56 1
    58   30   31 ar
    59   30   57 1
    60   31   32 ar
    61   31   58 1
@<TRIPOS>MOLECULE
ZINC13677843
   40    43     0     0     0
SMALL
USER_CHARGES

@<TRIPOS>ATOM
      1 C1         -0.4972    1.2152   -0.2273 C.3       1 <0>         0.0236
      2 O1          0.2492    0.0508    0.1321 O.3       1 <0>        -0.3016
      3 C2          1.0792   -0.4664   -0.8127 C.ar      1 <0>         0.1188
      4 C3          1.1765    0.1382   -2.0569 C.ar      1 <0>        -0.1587
      5 C4          2.0179   -0.3853   -3.0165 C.ar      1 <0>        -0.0646
      6 C5          2.7744   -1.5219   -2.7446 C.ar      1 <0>        -0.0211
      7 C6          2.6764   -2.1301   -1.4915 C.ar      1 <0>        -0.1369
      8 C7          1.8363   -1.6002   -0.5298 C.ar      1 <0>         0.0987
      9 O2          1.7453   -2.1901    0.6922 O.3       1 <0>        -0.3036
     10 C8          2.5502   -3.3498    0.9142 C.3       1 <0>         0.0239
     11 C9          3.5874   -1.8732   -3.9364 C.2       1 <0>         0.1308
     12 C10         3.3328   -0.9438   -4.9607 C.2       1 <0>        -0.3055
     13 C11         4.0858   -1.2858   -6.0373 C.2       1 <0>         0.3755
     14 N1          4.7955   -2.3970   -5.7063 N.pl3     1 <0>        -0.4880
     15 H1          5.4199   -2.8666   -6.2811 H         1 <0>         0.4434
     16 N2          4.4675   -2.7446   -4.3901 N.2       1 <0>        -0.2659
     17 N3          4.1239   -0.6194   -7.2594 N.pl3     1 <0>        -0.6554
     18 C12         4.8518   -1.1551   -8.3248 C.ar      1 <0>         0.1980
     19 C13         4.9430   -2.5328   -8.4827 C.ar      1 <0>        -0.1958
     20 C14         5.6626   -3.0602   -9.5366 C.ar      1 <0>        -0.0481
     21 C15         6.2933   -2.2197  -10.4353 C.ar      1 <0>        -0.1801
     22 C16         6.2052   -0.8460  -10.2819 C.ar      1 <0>         0.1402
     23 C17         5.4809   -0.3118   -9.2312 C.ar      1 <0>        -0.1933
     24 F1          6.8226   -0.0273  -11.1616 F         1 <0>        -0.1319
     25 C18         2.3257    0.0459   -4.4300 C.3       1 <0>         0.0158
     26 H2          0.1893    2.0210   -0.4870 H         1 <0>         0.0572
     27 H3         -1.1328    0.9893   -1.0835 H         1 <0>         0.0572
     28 H4         -1.1174    1.5233    0.6144 H         1 <0>         0.1025
     29 H5          0.5923    1.0200   -2.2751 H         1 <0>         0.1425
     30 H6          3.2595   -3.0123   -1.2723 H         1 <0>         0.1407
     31 H7          2.2797   -4.1229    0.1950 H         1 <0>         0.0564
     32 H8          3.6019   -3.0912    0.7915 H         1 <0>         0.0565
     33 H9          2.3827   -3.7200    1.9257 H         1 <0>         0.1025
     34 H10         3.6450    0.2167   -7.3711 H         1 <0>         0.4302
     35 H11         4.4515   -3.1906   -7.7812 H         1 <0>         0.1322
     36 H12         5.7332   -4.1310   -9.6589 H         1 <0>         0.1413
     37 H13         6.8560   -2.6351  -11.2582 H         1 <0>         0.1408
     38 H14         5.4082    0.7593   -9.1138 H         1 <0>         0.1425
     39 H15         1.4198    0.0201   -5.0355 H         1 <0>         0.0899
     40 H16         2.7500    1.0499   -4.4317 H         1 <0>         0.0894
@<TRIPOS>BOND
     1    1    2 1
     2    1   26 1
     3    1   27 1
     4    1   28 1
     5    2    3 1
     6    3    8 ar
     7    3    4 ar
     8    4    5 ar
     9    4   29 1
    10    5   25 1
    11    5    6 ar
    12    6    7 ar
    13    6   11 1
    14    7    8 ar
    15    7   30 1
    16    8    9 1
    17    9   10 1
    18   10   31 1
    19   10   32 1
    20   10   33 1
    21   11   16 2
    22   11   12 1
    23   12   13 2
    24   12   25 1
    25   13   14 1
    26   13   17 1
    27   14   15 1
    28   14   16 1
    29   17   18 1
    30   17   34 1
    31   18   23 ar
    32   18   19 ar
    33   19   20 ar
    34   19   35 1
    35   20   21 ar
    36   20   36 1
    37   21   22 ar
    38   21   37 1
    39   22   23 ar
    40   22   24 1
    41   23   38 1
    42   25   39 1
    43   25   40 1
@<TRIPOS>MOLECULE
ZINC58655676
   55    57     0     0     0
SMALL
USER_CHARGES

@<TRIPOS>ATOM
      1 C1          0.5488    1.6611   -0.2219 C.3       1 <0>        -0.1411
      2 C2          0.4334    0.1368   -0.1575 C.3       1 <0>        -0.0014
      3 C3          1.1752   -0.3791    1.0772 C.3       1 <0>        -0.1412
      4 C4         -1.0195   -0.2538   -0.0701 C.2       1 <0>        -0.2596
      5 C5         -1.9098    0.1168    0.9294 C.2       1 <0>         0.1117
      6 N1         -3.0838   -0.4099    0.6710 N.2       1 <0>        -0.3361
      7 N2         -2.9973   -1.1475   -0.5153 N.pl3     1 <0>        -0.3639
      8 C6         -1.7117   -1.0440   -0.9772 C.2       1 <0>         0.3466
      9 N3         -1.3417   -1.6548   -2.1127 N.2       1 <0>        -0.5767
     10 C7         -2.2072   -2.3671   -2.8134 C.2       1 <0>         0.4953
     11 C8         -3.5350   -2.4948   -2.3753 C.2       1 <0>        -0.3671
     12 C9         -3.9182   -1.8828   -1.2175 C.2       1 <0>         0.5060
     13 N4         -5.2172   -1.9910   -0.7665 N.pl3     1 <0>        -0.7101
     14 C10        -6.1925   -2.7789   -1.5242 C.3       1 <0>         0.1679
     15 C11        -7.5259   -2.7365   -0.8233 C.ar      1 <0>        -0.1184
     16 C12        -7.8360   -3.6880    0.1303 C.ar      1 <0>        -0.0961
     17 C13        -9.0591   -3.6491    0.7733 C.ar      1 <0>        -0.1212
     18 C14        -9.9719   -2.6584    0.4630 C.ar      1 <0>        -0.1053
     19 C15        -9.6614   -1.7064   -0.4899 C.ar      1 <0>        -0.1214
     20 C16        -8.4366   -1.7427   -1.1298 C.ar      1 <0>        -0.0963
     21 N5         -1.8032   -2.9889   -3.9834 N.pl3     1 <0>        -0.6918
     22 C17        -0.4184   -2.8566   -4.4427 C.3       1 <0>         0.1320
     23 H1         -0.0468   -1.8624   -4.1947 H         1 <0>         0.1085
     24 C18         0.4500   -3.9119   -3.7549 C.3       1 <0>         0.0700
     25 O1          0.0275   -5.2151   -4.1614 O.3       1 <0>        -0.5699
     26 C19        -0.3623   -3.0587   -5.9582 C.3       1 <0>         0.1075
     27 H2         -0.7661   -4.0395   -6.2092 H         1 <0>         0.1172
     28 C20        -1.1915   -1.9738   -6.6485 C.3       1 <0>         0.0440
     29 O2         -1.2351   -2.2295   -8.0537 O.3       1 <0>        -0.5625
     30 O3          0.9941   -2.9748   -6.4001 O.3       1 <0>        -0.5390
     31 H3          1.5996    1.9436   -0.2851 H         1 <0>         0.0538
     32 H4          0.0202    2.0286   -1.1015 H         1 <0>         0.0506
     33 H5          0.1086    2.0970    0.6749 H         1 <0>         0.0520
     34 H6          0.8736   -0.2992   -1.0543 H         1 <0>         0.0769
     35 H7          2.2261   -0.0966    1.0141 H         1 <0>         0.0538
     36 H8          0.7351    0.0569    1.9741 H         1 <0>         0.0520
     37 H9          1.0931   -1.4650    1.1232 H         1 <0>         0.0506
     38 H10        -1.6741    0.7374    1.7813 H         1 <0>         0.1890
     39 H11        -4.2442   -3.0761   -2.9458 H         1 <0>         0.1543
     40 H12        -5.4849   -1.5453    0.0524 H         1 <0>         0.4169
     41 H13        -6.2955   -2.3630   -2.5265 H         1 <0>         0.0824
     42 H14        -5.8507   -3.8116   -1.5927 H         1 <0>         0.0828
     43 H15        -7.1229   -4.4620    0.3727 H         1 <0>         0.1248
     44 H16        -9.3017   -4.3929    1.5178 H         1 <0>         0.1267
     45 H17       -10.9277   -2.6285    0.9648 H         1 <0>         0.1260
     46 H18       -10.3746   -0.9326   -0.7326 H         1 <0>         0.1266
     47 H19        -8.1925   -0.9967   -1.8716 H         1 <0>         0.1246
     48 H20        -2.4372   -3.5119   -4.4985 H         1 <0>         0.4145
     49 H21         1.4927   -3.7638   -4.0361 H         1 <0>         0.0598
     50 H22         0.3484   -3.8178   -2.6738 H         1 <0>         0.0555
     51 H23         0.5354   -5.9352   -3.7633 H         1 <0>         0.3813
     52 H24        -2.2046   -1.9800   -6.2464 H         1 <0>         0.0549
     53 H25        -0.7358   -0.9998   -6.4704 H         1 <0>         0.0491
     54 H26        -1.7454   -1.5796   -8.5561 H         1 <0>         0.3802
     55 H27         1.4409   -2.1559   -6.1452 H         1 <0>         0.3731
@<TRIPOS>BOND
     1    1    2 1
     2    1   31 1
     3    1   32 1
     4    1   33 1
     5    2    3 1
     6    2    4 1
     7    2   34 1
     8    3   35 1
     9    3   36 1
    10    3   37 1
    11    4    8 2
    12    4    5 1
    13    5    6 2
    14    5   38 1
    15    6    7 1
    16    7   12 1
    17    7    8 1
    18    8    9 1
    19    9   10 2
    20   10   11 1
    21   10   21 1
    22   11   12 2
    23   11   39 1
    24   12   13 1
    25   13   14 1
    26   13   40 1
    27   14   15 1
    28   14   41 1
    29   14   42 1
    30   15   20 ar
    31   15   16 ar
    32   16   17 ar
    33   16   43 1
    34   17   18 ar
    35   17   44 1
    36   18   19 ar
    37   18   45 1
    38   19   20 ar
    39   19   46 1
    40   20   47 1
    41   21   22 1
    42   21   48 1
    43   22   23 1
    44   22   24 1
    45   22   26 1
    46   24   25 1
    47   24   49 1
    48   24   50 1
    49   25   51 1
    50   26   27 1
    51   26   28 1
    52   26   30 1
    53   28   29 1
    54   28   52 1
    55   28   53 1
    56   29   54 1
    57   30   55 1
@<TRIPOS>MOLECULE
ZINC01493878
   48    50     0     0     0
SMALL
USER_CHARGES

@<TRIPOS>ATOM
      1 C1         -1.0955   -5.0083   -6.9234 C.3       1 <0>         0.0847
      2 N1         -1.5520   -4.3038   -5.7228 N.am      1 <0>        -0.7137
      3 C2         -1.8827   -5.0004   -4.6175 C.2       1 <0>         0.5696
      4 O1         -1.8023   -6.2129   -4.6168 O.2       1 <0>        -0.5284
      5 C3         -2.3445   -4.2878   -3.4031 C.ar      1 <0>         0.1129
      6 C4         -2.6788   -5.0128   -2.2640 C.ar      1 <0>        -0.1883
      7 C5         -3.1110   -4.3279   -1.1310 C.ar      1 <0>         0.1595
      8 C6         -3.1903   -2.9389   -1.1877 C.ar      1 <0>        -0.1766
      9 C7         -2.8404   -2.2885   -2.3571 C.ar      1 <0>         0.1349
     10 N2         -2.4302   -2.9626   -3.4105 N.ar      1 <0>        -0.4815
     11 O2         -3.4471   -4.9979    0.0005 O.3       1 <0>        -0.2437
     12 C8         -3.4462   -6.3570   -0.0383 C.ar      1 <0>         0.0568
     13 C9         -2.2447   -7.0505   -0.0178 C.ar      1 <0>        -0.1074
     14 C10        -2.2431   -8.4307   -0.0577 C.ar      1 <0>        -0.1009
     15 C11        -3.4442   -9.1246   -0.1179 C.ar      1 <0>         0.1671
     16 C12        -4.6464   -8.4301   -0.1379 C.ar      1 <0>        -0.1272
     17 C13        -4.6469   -7.0500   -0.0928 C.ar      1 <0>        -0.0940
     18 N3         -3.4432  -10.5252   -0.1588 N.am      1 <0>        -0.6776
     19 C14        -2.5108  -11.2187    0.5239 C.2       1 <0>         0.7077
     20 O3         -1.6217  -10.6297    1.1080 O.2       1 <0>        -0.5493
     21 N4         -2.5639  -12.5649    0.5593 N.am      1 <0>        -0.6795
     22 C15        -1.6655  -13.2800    1.3600 C.ar      1 <0>         0.1700
     23 C16        -1.2529  -12.7583    2.5792 C.ar      1 <0>        -0.0742
     24 C17        -0.3670  -13.4659    3.3674 C.ar      1 <0>        -0.0871
     25 C18         0.1097  -14.6941    2.9434 C.ar      1 <0>        -0.0077
     26 C19        -0.2993  -15.2159    1.7290 C.ar      1 <0>        -0.1564
     27 C20        -1.1898  -14.5147    0.9394 C.ar      1 <0>        -0.0879
     28 C21         0.2222  -16.5533    1.2702 C.3       1 <0>         0.5112
     29 F1         -0.3299  -16.8663    0.0234 F         1 <0>        -0.1743
     30 F2          1.6160  -16.4983    1.1626 F         1 <0>        -0.1671
     31 F3         -0.1354  -17.5367    2.1987 F         1 <0>        -0.1677
     32 Cl1         1.2234  -15.5812    3.9366 Cl        1 <0>        -0.0394
     33 H1         -0.8760   -4.2843   -7.7081 H         1 <0>         0.0803
     34 H2         -0.1948   -5.5764   -6.6909 H         1 <0>         0.0631
     35 H3         -1.8761   -5.6883   -7.2645 H         1 <0>         0.0629
     36 H4         -1.6162   -3.3359   -5.7233 H         1 <0>         0.4141
     37 H5         -2.6047   -6.0902   -2.2584 H         1 <0>         0.1546
     38 H6         -3.5217   -2.3755   -0.3280 H         1 <0>         0.1523
     39 H7         -2.9005   -1.2112   -2.4052 H         1 <0>         0.1747
     40 H8         -1.3104   -6.5106    0.0290 H         1 <0>         0.1364
     41 H9         -1.3078   -8.9704   -0.0424 H         1 <0>         0.1514
     42 H10        -5.5809   -8.9693   -0.1851 H         1 <0>         0.1386
     43 H11        -5.5820   -6.5098   -0.1039 H         1 <0>         0.1400
     44 H12        -4.1137  -10.9957   -0.6785 H         1 <0>         0.4131
     45 H13        -3.2246  -13.0383    0.0299 H         1 <0>         0.4146
     46 H14        -1.6244  -11.7997    2.9103 H         1 <0>         0.1546
     47 H15        -0.0456  -13.0604    4.3154 H         1 <0>         0.1524
     48 H16        -1.5123  -14.9245   -0.0064 H         1 <0>         0.1525
@<TRIPOS>BOND
     1    1    2 1
     2    1   33 1
     3    1   34 1
     4    1   35 1
     5    2    3 am
     6    2   36 1
     7    3    4 2
     8    3    5 1
     9    5   10 ar
    10    5    6 ar
    11    6    7 ar
    12    6   37 1
    13    7    8 ar
    14    7   11 1
    15    8    9 ar
    16    8   38 1
    17    9   10 ar
    18    9   39 1
    19   11   12 1
    20   12   17 ar
    21   12   13 ar
    22   13   14 ar
    23   13   40 1
    24   14   15 ar
    25   14   41 1
    26   15   16 ar
    27   15   18 1
    28   16   17 ar
    29   16   42 1
    30   17   43 1
    31   18   19 am
    32   18   44 1
    33   19   20 2
    34   19   21 am
    35   21   22 1
    36   21   45 1
    37   22   27 ar
    38   22   23 ar
    39   23   24 ar
    40   23   46 1
    41   24   25 ar
    42   24   47 1
    43   25   26 ar
    44   25   32 1
    45   26   27 ar
    46   26   28 1
    47   27   48 1
    48   28   29 1
    49   28   30 1
    50   28   31 1
@<TRIPOS>MOLECULE
ZINC21982951
   60    63     0     0     0
SMALL
USER_CHARGES

@<TRIPOS>ATOM
      1 C1         -2.0700    1.6928    0.2333 C.3       1 <0>        -0.1170
      2 C2         -1.6482    0.2604    0.0301 C.ar      1 <0>        -0.0813
      3 C3         -1.8479   -0.3525   -1.1919 C.ar      1 <0>        -0.1034
      4 C4         -1.4615   -1.6665   -1.3798 C.ar      1 <0>        -0.0990
      5 C5         -0.8738   -2.3725   -0.3459 C.ar      1 <0>        -0.1046
      6 C6         -0.6714   -1.7660    0.8791 C.ar      1 <0>        -0.0220
      7 C7         -1.0534   -0.4428    1.0688 C.ar      1 <0>         0.1347
      8 N1         -0.8441    0.1769    2.3055 N.am      1 <0>        -0.6659
      9 C8         -1.2819   -0.4110    3.4365 C.2       1 <0>         0.6018
     10 O1         -1.7689   -1.5261    3.3939 O.2       1 <0>        -0.4722
     11 C9         -1.1720    0.2905    4.7149 C.2       1 <0>        -0.2635
     12 C10        -1.5472   -0.1201    5.9866 C.2       1 <0>         0.1512
     13 N2         -1.3262    0.7270    6.9599 N.2       1 <0>        -0.5510
     14 C11        -0.7756    1.9070    6.7361 C.2       1 <0>         0.2513
     15 S1         -0.5107    1.9100    5.0742 S.3       1 <0>         0.2445
     16 N3         -0.4817    2.8997    7.6498 N.pl3     1 <0>        -0.5870
     17 C12        -0.6908    2.6801    9.0050 C.ar      1 <0>         0.4543
     18 C13        -1.0534    1.4192    9.4679 C.ar      1 <0>        -0.2926
     19 C14        -1.2512    1.2508   10.8352 C.ar      1 <0>         0.4935
     20 N4         -1.0875    2.2952   11.6453 N.ar      1 <0>        -0.5328
     21 C15        -0.7435    3.4737   11.1677 C.ar      1 <0>         0.4541
     22 N5         -0.5417    3.6719    9.8809 N.ar      1 <0>        -0.5672
     23 C16        -0.5694    4.6273   12.1217 C.3       1 <0>        -0.1251
     24 N6         -1.6138    0.0143   11.3464 N.pl3     1 <0>        -0.5370
     25 C17        -2.0559   -0.1253   12.7422 C.3       1 <0>         0.1090
     26 C18        -3.3866   -0.8852   12.7576 C.3       1 <0>         0.0383
     27 N7         -3.2335   -2.1493   12.0251 N.3       1 <0>        -0.5289
     28 C19        -2.9165   -1.9105   10.6107 C.3       1 <0>         0.0343
     29 C20        -1.5725   -1.1917   10.5056 C.3       1 <0>         0.1057
     30 C21        -4.4334   -2.9856   12.1619 C.3       1 <0>         0.0545
     31 C22        -4.1483   -4.3816   11.6043 C.3       1 <0>         0.0776
     32 O2         -3.1500   -5.0191   12.4038 O.3       1 <0>        -0.5606
     33 Cl1         0.0658   -2.6526    2.1768 Cl        1 <0>        -0.0453
     34 H1         -1.2464    2.3553   -0.0328 H         1 <0>         0.0773
     35 H2         -2.9308    1.9112   -0.3987 H         1 <0>         0.0785
     36 H3         -2.3379    1.8478    1.2784 H         1 <0>         0.0640
     37 H4         -2.3069    0.1956   -2.0014 H         1 <0>         0.1372
     38 H5         -1.6193   -2.1430   -2.3361 H         1 <0>         0.1391
     39 H6         -0.5731   -3.3989   -0.4959 H         1 <0>         0.1403
     40 H7         -0.3838    1.0296    2.3489 H         1 <0>         0.4083
     41 H8         -1.9972   -1.0858    6.1634 H         1 <0>         0.2027
     42 H9         -0.1293    3.7505    7.3451 H         1 <0>         0.4460
     43 H10        -1.1784    0.5927    8.7841 H         1 <0>         0.2218
     44 H11         0.4644    4.6619   12.4652 H         1 <0>         0.1245
     45 H12        -0.8146    5.5596   11.6130 H         1 <0>         0.1071
     46 H13        -1.2322    4.4948   12.9768 H         1 <0>         0.1273
     47 H14        -1.3096   -0.6823   13.3087 H         1 <0>         0.0989
     48 H15        -2.1929    0.8619   13.1834 H         1 <0>         0.1094
     49 H16        -3.6740   -1.0944   13.7880 H         1 <0>         0.1036
     50 H17        -4.1569   -0.2794   12.2806 H         1 <0>         0.0428
     51 H18        -2.8631   -2.8634   10.0841 H         1 <0>         0.1043
     52 H19        -3.6935   -1.2904   10.1636 H         1 <0>         0.0450
     53 H20        -1.3900   -0.9091    9.4688 H         1 <0>         0.1029
     54 H21        -0.7788   -1.8532   10.8529 H         1 <0>         0.1042
     55 H22        -4.7041   -3.0633   13.2149 H         1 <0>         0.0912
     56 H23        -5.2561   -2.5340   11.6075 H         1 <0>         0.0533
     57 H24        -5.0627   -4.9745   11.6240 H         1 <0>         0.0547
     58 H25        -3.7921   -4.2970   10.5776 H         1 <0>         0.0454
     59 H26        -2.9188   -5.9101   12.1076 H         1 <0>         0.3805
     60 H27        -0.2852    4.5531    9.5669 H         1 <0>         0.4414
@<TRIPOS>BOND
     1    1    2 1
     2    1   34 1
     3    1   35 1
     4    1   36 1
     5    2    7 ar
     6    2    3 ar
     7    3    4 ar
     8    3   37 1
     9    4    5 ar
    10    4   38 1
    11    5    6 ar
    12    5   39 1
    13    6    7 ar
    14    6   33 1
    15    7    8 1
    16    8    9 am
    17    8   40 1
    18    9   10 2
    19    9   11 1
    20   11   15 1
    21   11   12 2
    22   12   13 1
    23   12   41 1
    24   13   14 2
    25   14   15 1
    26   14   16 1
    27   16   17 1
    28   16   42 1
    29   17   22 ar
    30   17   18 ar
    31   18   19 ar
    32   18   43 1
    33   19   20 ar
    34   19   24 1
    35   20   21 ar
    36   21   22 ar
    37   21   23 1
    38   22   60 1
    39   23   44 1
    40   23   45 1
    41   23   46 1
    42   24   29 1
    43   24   25 1
    44   25   26 1
    45   25   47 1
    46   25   48 1
    47   26   27 1
    48   26   49 1
    49   26   50 1
    50   27   28 1
    51   27   30 1
    52   28   29 1
    53   28   51 1
    54   28   52 1
    55   29   53 1
    56   29   54 1
    57   30   31 1
    58   30   55 1
    59   30   56 1
    60   31   32 1
    61   31   57 1
    62   31   58 1
    63   32   59 1
@<TRIPOS>MOLECULE
ZINC21982951
   60    63     0     0     0
SMALL
USER_CHARGES

@<TRIPOS>ATOM
      1 C1          3.2739    6.6585    1.8418 C.3       1 <0>        -0.1168
      2 C2          2.5810    7.9910    1.9663 C.ar      1 <0>        -0.0823
      3 C3          2.8983    9.0189    1.0995 C.ar      1 <0>        -0.1038
      4 C4          2.2635   10.2419    1.2126 C.ar      1 <0>        -0.1008
      5 C5          1.3088   10.4411    2.1933 C.ar      1 <0>        -0.1049
      6 C6          0.9869    9.4175    3.0639 C.ar      1 <0>        -0.0226
      7 C7          1.6192    8.1849    2.9486 C.ar      1 <0>         0.1373
      8 N1          1.2913    7.1440    3.8238 N.am      1 <0>        -0.6678
      9 C8          1.3128    7.3511    5.1554 C.2       1 <0>         0.6036
     10 O1          1.5184    8.4680    5.5945 O.2       1 <0>        -0.4759
     11 C9          1.0891    6.2346    6.0728 C.2       1 <0>        -0.2694
     12 C10         1.0619    6.2190    7.4604 C.2       1 <0>         0.1522
     13 N2          0.8357    5.0596    8.0247 N.2       1 <0>        -0.5060
     14 C11         0.6446    3.9678    7.3056 C.2       1 <0>         0.2464
     15 S1          0.7674    4.5141    5.7185 S.3       1 <0>         0.2029
     16 N3          0.3973    2.6842    7.7505 N.pl3     1 <0>        -0.5650
     17 C12         0.2197    2.4414    9.1063 C.ar      1 <0>         0.4999
     18 C13        -0.1342    1.1736    9.5555 C.ar      1 <0>        -0.3181
     19 C14        -0.3003    0.9817   10.9244 C.ar      1 <0>         0.4940
     20 N4         -0.1157    2.0114   11.7481 N.ar      1 <0>        -0.5712
     21 C15         0.2193    3.1978   11.2829 C.ar      1 <0>         0.4509
     22 N5          0.3911    3.4178    9.9956 N.ar      1 <0>        -0.4879
     23 C16         0.4179    4.3344   12.2523 C.3       1 <0>        -0.1253
     24 N6         -0.6531   -0.2629   11.4224 N.pl3     1 <0>        -0.5744
     25 C17        -0.9639   -0.4449   12.8484 C.3       1 <0>         0.1013
     26 C18        -2.3114   -1.1652   12.9649 C.3       1 <0>         0.0387
     27 N7         -2.2712   -2.4031   12.1749 N.3       1 <0>        -0.5277
     28 C19        -2.0835   -2.1176   10.7462 C.3       1 <0>         0.0305
     29 C20        -0.7325   -1.4351   10.5377 C.3       1 <0>         0.1149
     30 C21        -3.4796   -3.2085   12.3965 C.3       1 <0>         0.0543
     31 C22        -3.2958   -4.5889   11.7629 C.3       1 <0>         0.0774
     32 O2         -2.2472   -5.2869   12.4378 O.3       1 <0>        -0.5615
     33 Cl1        -0.2110    9.6681    4.2952 Cl        1 <0>        -0.0453
     34 H1          2.7121    6.0191    1.1609 H         1 <0>         0.0767
     35 H2          4.2810    6.8077    1.4524 H         1 <0>         0.0779
     36 H3          3.3298    6.1850    2.8220 H         1 <0>         0.0648
     37 H4          3.6435    8.8670    0.3327 H         1 <0>         0.1365
     38 H5          2.5139   11.0437    0.5337 H         1 <0>         0.1383
     39 H6          0.8148   11.3976    2.2790 H         1 <0>         0.1396
     40 H7          1.0484    6.2731    3.4723 H         1 <0>         0.4083
     41 H8          1.2191    7.1147    8.0430 H         1 <0>         0.1979
     42 H9          0.3477    1.9521    7.1161 H         1 <0>         0.4525
     43 H10        -0.2767    0.3593    8.8606 H         1 <0>         0.1835
     44 H11         1.4596    4.3615   12.5720 H         1 <0>         0.1250
     45 H12         0.1626    5.2758   11.7656 H         1 <0>         0.1301
     46 H13        -0.2249    4.1881   13.1203 H         1 <0>         0.1049
     47 H14        -0.1857   -1.0458   13.3190 H         1 <0>         0.1119
     48 H15        -1.0251    0.5276   13.3369 H         1 <0>         0.0843
     49 H16        -2.5057   -1.4068   14.0099 H         1 <0>         0.1076
     50 H17        -3.1034   -0.5184   12.5874 H         1 <0>         0.0465
     51 H18        -2.1124   -3.0499   10.1822 H         1 <0>         0.1076
     52 H19        -2.8786   -1.4576   10.3996 H         1 <0>         0.0467
     53 H20        -0.6409   -1.1170    9.4992 H         1 <0>         0.1034
     54 H21         0.0684   -2.1330   10.7819 H         1 <0>         0.1075
     55 H22        -3.6507   -3.3200   13.4672 H         1 <0>         0.0925
     56 H23        -4.3362   -2.7111   11.9416 H         1 <0>         0.0553
     57 H24        -4.2233   -5.1548   11.8494 H         1 <0>         0.0565
     58 H25        -3.0370   -4.4741   10.7103 H         1 <0>         0.0456
     59 H26        -2.0752   -6.1719   12.0881 H         1 <0>         0.3821
     60 H27        -0.2297    1.8867   12.7033 H         1 <0>         0.4392
@<TRIPOS>BOND
     1    1    2 1
     2    1   34 1
     3    1   35 1
     4    1   36 1
     5    2    7 ar
     6    2    3 ar
     7    3    4 ar
     8    3   37 1
     9    4    5 ar
    10    4   38 1
    11    5    6 ar
    12    5   39 1
    13    6    7 ar
    14    6   33 1
    15    7    8 1
    16    8    9 am
    17    8   40 1
    18    9   10 2
    19    9   11 1
    20   11   15 1
    21   11   12 2
    22   12   13 1
    23   12   41 1
    24   13   14 2
    25   14   15 1
    26   14   16 1
    27   16   17 1
    28   16   42 1
    29   17   18 ar
    30   17   22 ar
    31   18   43 1
    32   18   19 ar
    33   19   24 1
    34   19   20 ar
    35   20   60 1
    36   20   21 ar
    37   21   23 1
    38   21   22 ar
    39   23   44 1
    40   23   45 1
    41   23   46 1
    42   24   29 1
    43   24   25 1
    44   25   26 1
    45   25   47 1
    46   25   48 1
    47   26   27 1
    48   26   49 1
    49   26   50 1
    50   27   28 1
    51   27   30 1
    52   28   29 1
    53   28   51 1
    54   28   52 1
    55   29   53 1
    56   29   54 1
    57   30   31 1
    58   30   55 1
    59   30   56 1
    60   31   32 1
    61   31   57 1
    62   31   58 1
    63   32   59 1
@<TRIPOS>MOLECULE
ZINC21982951
   59    62     0     0     0
SMALL
USER_CHARGES

@<TRIPOS>ATOM
      1 C1          3.4106    6.6420    1.8847 C.3       1 <0>        -0.1165
      2 C2          2.6976    7.9659    1.9845 C.ar      1 <0>        -0.0852
      3 C3          3.0204    8.9921    1.1176 C.ar      1 <0>        -0.1055
      4 C4          2.3672   10.2073    1.2080 C.ar      1 <0>        -0.1070
      5 C5          1.3885   10.4004    2.1660 C.ar      1 <0>        -0.1064
      6 C6          1.0609    9.3785    3.0365 C.ar      1 <0>        -0.0243
      7 C7          1.7118    8.1536    2.9438 C.ar      1 <0>         0.1460
      8 N1          1.3783    7.1144    3.8189 N.am      1 <0>        -0.6734
      9 C8          1.3676    7.3308    5.1492 C.2       1 <0>         0.6131
     10 O1          1.5489    8.4533    5.5848 O.2       1 <0>        -0.4899
     11 C9          1.1384    6.2176    6.0693 C.2       1 <0>        -0.3092
     12 C10         1.0807    6.2111    7.4561 C.2       1 <0>         0.1722
     13 N2          0.8573    5.0526    8.0233 N.2       1 <0>        -0.5180
     14 C11         0.6966    3.9535    7.3079 C.2       1 <0>         0.3121
     15 S1          0.8472    4.4907    5.7202 S.3       1 <0>         0.1340
     16 N3          0.4564    2.6698    7.7563 N.pl3     1 <0>        -0.5904
     17 C12         0.2490    2.4343    9.1091 C.ar      1 <0>         0.4412
     18 C13        -0.1036    1.1661    9.5586 C.ar      1 <0>        -0.3412
     19 C14        -0.3003    0.9817   10.9244 C.ar      1 <0>         0.4686
     20 N4         -0.1450    2.0186   11.7452 N.ar      1 <0>        -0.5923
     21 C15         0.1898    3.2050   11.2799 C.ar      1 <0>         0.3946
     22 N5          0.3901    3.4182    9.9956 N.ar      1 <0>        -0.5459
     23 C16         0.3546    4.3498   12.2460 C.3       1 <0>        -0.0834
     24 N6         -0.6531   -0.2629   11.4224 N.pl3     1 <0>        -0.5966
     25 C17        -1.0693   -0.4249   12.8237 C.3       1 <0>         0.1300
     26 C18        -2.3993   -1.1856   12.8517 C.3       1 <0>         0.0401
     27 N7         -2.2595   -2.4378   12.0965 N.3       1 <0>        -0.5276
     28 C19        -1.9688   -2.1765   10.6804 C.3       1 <0>         0.0363
     29 C20        -0.6270   -1.4554   10.5619 C.3       1 <0>         0.1269
     30 C21        -3.4565   -3.2768   12.2420 C.3       1 <0>         0.0537
     31 C22        -3.1814   -4.6636   11.6572 C.3       1 <0>         0.0792
     32 O2         -2.1684   -5.3132   12.4279 O.3       1 <0>        -0.5589
     33 Cl1        -0.1672    9.6214    4.2392 Cl        1 <0>        -0.0433
     34 H1          2.8725    5.9906    1.1961 H         1 <0>         0.0754
     35 H2          4.4240    6.8020    1.5166 H         1 <0>         0.0754
     36 H3          3.4510    6.1760    2.8692 H         1 <0>         0.0676
     37 H4          3.7844    8.8450    0.3685 H         1 <0>         0.1337
     38 H5          2.6220   11.0077    0.5292 H         1 <0>         0.1350
     39 H6          0.8801   11.3508    2.2339 H         1 <0>         0.1371
     40 H7          1.1547    6.2381    3.4683 H         1 <0>         0.4085
     41 H8          1.2132    7.1127    8.0357 H         1 <0>         0.1884
     42 H9          0.4325    1.9325    7.1264 H         1 <0>         0.4387
     43 H10        -0.2220    0.3459    8.8660 H         1 <0>         0.1413
     44 H11         1.3882    4.3890   12.5900 H         1 <0>         0.0870
     45 H12         0.1021    5.2855   11.7470 H         1 <0>         0.0890
     46 H13        -0.3072    4.2031   13.0995 H         1 <0>         0.0846
     47 H14        -0.3126   -0.9904   13.3674 H         1 <0>         0.0744
     48 H15        -1.1984    0.5551   13.2831 H         1 <0>         0.1008
     49 H16        -2.6676   -1.4113   13.8837 H         1 <0>         0.0903
     50 H17        -3.1785   -0.5727   12.3986 H         1 <0>         0.0372
     51 H18        -1.9249   -3.1208   10.1378 H         1 <0>         0.0905
     52 H19        -2.7540   -1.5497   10.2576 H         1 <0>         0.0380
     53 H20        -0.4638   -1.1563    9.5265 H         1 <0>         0.0877
     54 H21         0.1731   -2.1219   10.8840 H         1 <0>         0.0802
     55 H22        -3.7077   -3.3713   13.2985 H         1 <0>         0.0861
     56 H23        -4.2894   -2.8169   11.7102 H         1 <0>         0.0487
     57 H24        -4.0952   -5.2572   11.6843 H         1 <0>         0.0498
     58 H25        -2.8443   -4.5626   10.6256 H         1 <0>         0.0451
     59 H26        -1.9426   -6.1994   12.1134 H         1 <0>         0.3762
@<TRIPOS>BOND
     1    1    2 1
     2    1   34 1
     3    1   35 1
     4    1   36 1
     5    2    7 ar
     6    2    3 ar
     7    3    4 ar
     8    3   37 1
     9    4    5 ar
    10    4   38 1
    11    5    6 ar
    12    5   39 1
    13    6    7 ar
    14    6   33 1
    15    7    8 1
    16    8    9 am
    17    8   40 1
    18    9   10 2
    19    9   11 1
    20   11   15 1
    21   11   12 2
    22   12   13 1
    23   12   41 1
    24   13   14 2
    25   14   15 1
    26   14   16 1
    27   16   17 1
    28   16   42 1
    29   17   18 ar
    30   17   22 ar
    31   18   43 1
    32   18   19 ar
    33   19   24 1
    34   19   20 ar
    35   20   21 ar
    36   21   23 1
    37   21   22 ar
    38   23   44 1
    39   23   45 1
    40   23   46 1
    41   24   29 1
    42   24   25 1
    43   25   26 1
    44   25   47 1
    45   25   48 1
    46   26   27 1
    47   26   49 1
    48   26   50 1
    49   27   28 1
    50   27   30 1
    51   28   29 1
    52   28   51 1
    53   28   52 1
    54   29   53 1
    55   29   54 1
    56   30   31 1
    57   30   55 1
    58   30   56 1
    59   31   32 1
    60   31   57 1
    61   31   58 1
    62   32   59 1
@<TRIPOS>MOLECULE
ZINC21982951
   61    64     0     0     0
SMALL
USER_CHARGES

@<TRIPOS>ATOM
      1 C1          3.2770    6.6581    1.8427 C.3       1 <0>        -0.1166
      2 C2          2.5837    7.9904    1.9667 C.ar      1 <0>        -0.0814
      3 C3          2.9012    9.0183    1.0999 C.ar      1 <0>        -0.1028
      4 C4          2.2660   10.2411    1.2125 C.ar      1 <0>        -0.0975
      5 C5          1.3108   10.4402    2.1928 C.ar      1 <0>        -0.1039
      6 C6          0.9888    9.4167    3.0634 C.ar      1 <0>        -0.0218
      7 C7          1.6215    8.1842    2.9485 C.ar      1 <0>         0.1327
      8 N1          1.2933    7.1433    3.8237 N.am      1 <0>        -0.6648
      9 C8          1.3141    7.3507    5.1552 C.2       1 <0>         0.5983
     10 O1          1.5193    8.4677    5.5943 O.2       1 <0>        -0.4690
     11 C9          1.0903    6.2342    6.0727 C.2       1 <0>        -0.2500
     12 C10         1.0624    6.2188    7.4604 C.2       1 <0>         0.1439
     13 N2          0.8362    5.0594    8.0246 N.2       1 <0>        -0.4984
     14 C11         0.6458    3.9675    7.3056 C.2       1 <0>         0.2172
     15 S1          0.7692    4.5136    5.7185 S.3       1 <0>         0.2242
     16 N3          0.3986    2.6839    7.7506 N.pl3     1 <0>        -0.5513
     17 C12         0.2203    2.4413    9.1063 C.ar      1 <0>         0.5098
     18 C13        -0.1335    1.1734    9.5556 C.ar      1 <0>        -0.3097
     19 C14        -0.3003    0.9817   10.9244 C.ar      1 <0>         0.4927
     20 N4         -0.1163    2.0116   11.7481 N.ar      1 <0>        -0.5695
     21 C15         0.2187    3.1980   11.2828 C.ar      1 <0>         0.4589
     22 N5          0.3911    3.4178    9.9956 N.ar      1 <0>        -0.4762
     23 C16         0.4165    4.3348   12.2521 C.3       1 <0>        -0.1303
     24 N6         -0.6531   -0.2629   11.4224 N.pl3     1 <0>        -0.6123
     25 C17        -0.9643   -0.4465   12.8484 C.3       1 <0>         0.0782
     26 C18        -2.3027   -1.1838   12.9625 C.3       1 <0>        -0.0204
     27 N7         -2.2406   -2.4311   12.1903 N.4       1 <0>        -0.3852
     28 C19        -2.0770   -2.1279   10.7629 C.3       1 <0>        -0.0304
     29 C20        -0.7330   -1.4363   10.5388 C.3       1 <0>         0.0932
     30 C21        -3.4827   -3.1900   12.3886 C.3       1 <0>        -0.0061
     31 C22        -3.3702   -4.5448   11.6865 C.3       1 <0>         0.0434
     32 O2         -2.3479   -5.3224   12.3128 O.3       1 <0>        -0.5819
     33 Cl1        -0.2098    9.6671    4.2940 Cl        1 <0>        -0.0466
     34 H1          2.7157    6.0184    1.1617 H         1 <0>         0.0770
     35 H2          4.2843    6.8074    1.4538 H         1 <0>         0.0791
     36 H3          3.3325    6.1847    2.8230 H         1 <0>         0.0631
     37 H4          3.6468    8.8665    0.3335 H         1 <0>         0.1380
     38 H5          2.5166   11.0428    0.5336 H         1 <0>         0.1401
     39 H6          0.8165   11.3966    2.2780 H         1 <0>         0.1410
     40 H7          1.0508    6.2723    3.4722 H         1 <0>         0.4077
     41 H8          1.2191    7.1146    8.0429 H         1 <0>         0.2016
     42 H9          0.3494    1.9517    7.1163 H         1 <0>         0.4545
     43 H10        -0.2756    0.3590    8.8607 H         1 <0>         0.1860
     44 H11         1.4581    4.3621   12.5724 H         1 <0>         0.1309
     45 H12         0.1613    5.2760   11.7653 H         1 <0>         0.1358
     46 H13        -0.2267    4.1885   13.1199 H         1 <0>         0.1083
     47 H14        -0.1795   -1.0367   13.3215 H         1 <0>         0.1249
     48 H15        -1.0392    0.5259   13.3352 H         1 <0>         0.1232
     49 H16        -2.5028   -1.4138   14.0090 H         1 <0>         0.1602
     50 H17        -3.0999   -0.5526   12.5701 H         1 <0>         0.1410
     51 H18        -2.1110   -3.0537   10.1885 H         1 <0>         0.1585
     52 H19        -2.8811   -1.4682   10.4370 H         1 <0>         0.1418
     53 H20        -0.6550   -1.1179    9.4992 H         1 <0>         0.1416
     54 H21         0.0756   -2.1281   10.7747 H         1 <0>         0.1211
     55 H22        -3.6469   -3.3459   13.4548 H         1 <0>         0.1465
     56 H23        -4.3202   -2.6321   11.9697 H         1 <0>         0.1464
     57 H24        -4.3221   -5.0710   11.7578 H         1 <0>         0.1026
     58 H25        -3.1180   -4.3904   10.6374 H         1 <0>         0.0719
     59 H26        -2.2211   -6.1961   11.9183 H         1 <0>         0.4154
     60 H27        -0.2308    1.8869   12.7032 H         1 <0>         0.4393
     61 H28        -1.4578   -2.9831   12.5075 H         1 <0>         0.4359
@<TRIPOS>BOND
     1    1    2 1
     2    1   34 1
     3    1   35 1
     4    1   36 1
     5    2    7 ar
     6    2    3 ar
     7    3    4 ar
     8    3   37 1
     9    4    5 ar
    10    4   38 1
    11    5    6 ar
    12    5   39 1
    13    6    7 ar
    14    6   33 1
    15    7    8 1
    16    8    9 am
    17    8   40 1
    18    9   10 2
    19    9   11 1
    20   11   15 1
    21   11   12 2
    22   12   13 1
    23   12   41 1
    24   13   14 2
    25   14   15 1
    26   14   16 1
    27   16   17 1
    28   16   42 1
    29   17   18 ar
    30   17   22 ar
    31   18   43 1
    32   18   19 ar
    33   19   24 1
    34   19   20 ar
    35   20   60 1
    36   20   21 ar
    37   21   23 1
    38   21   22 ar
    39   23   44 1
    40   23   45 1
    41   23   46 1
    42   24   29 1
    43   24   25 1
    44   25   26 1
    45   25   47 1
    46   25   48 1
    47   26   27 1
    48   26   49 1
    49   26   50 1
    50   27   28 1
    51   27   30 1
    52   27   61 1
    53   28   29 1
    54   28   51 1
    55   28   52 1
    56   29   53 1
    57   29   54 1
    58   30   31 1
    59   30   55 1
    60   30   56 1
    61   31   32 1
    62   31   57 1
    63   31   58 1
    64   32   59 1
@<TRIPOS>MOLECULE
ZINC03814434
   62    69     0     0     0
SMALL
USER_CHARGES

@<TRIPOS>ATOM
      1 C1         -0.1295    1.5952   -0.2973 C.3       1 <0>        -0.1687
      2 C2         -0.0862    0.0696   -0.1900 C.3       1 <0>         0.3342
      3 C3          0.5692   -0.4501   -1.4637 C.3       1 <0>         0.0405
      4 H1          1.4796    0.1159   -1.6612 H         1 <0>         0.1372
      5 C4          0.9167   -1.9328   -1.2889 C.3       1 <0>        -0.0061
      6 H2          1.3963   -2.3075   -2.1932 H         1 <0>         0.1555
      7 C5          1.8785   -2.0596   -0.1021 C.3       1 <0>        -0.1827
      8 C6          1.2061   -1.5198    1.1541 C.3       1 <0>         0.2999
      9 H3          1.9797   -1.4243    1.9161 H         1 <0>         0.1550
     10 O1          0.6555   -0.2442    0.9666 O.3       1 <0>        -0.3234
     11 N1          0.2189   -2.4746    1.6600 N.pl3     1 <0>        -0.5366
     12 C7          0.4705   -3.5508    2.4739 C.ar      1 <0>         0.1469
     13 C8          1.6649   -4.0152    3.0240 C.ar      1 <0>        -0.1522
     14 C9          1.5948   -5.1456    3.8201 C.ar      1 <0>        -0.0582
     15 C10         0.4006   -5.7997    4.0696 C.ar      1 <0>        -0.1457
     16 C11        -0.7984   -5.3597    3.5358 C.ar      1 <0>        -0.0280
     17 C12        -0.7487   -4.2198    2.7307 C.ar      1 <0>        -0.1131
     18 C13        -1.7893   -3.4830    2.0197 C.ar      1 <0>         0.0276
     19 C14        -1.1442   -2.4197    1.3841 C.ar      1 <0>         0.0376
     20 C15        -1.8806   -1.5095    0.6175 C.ar      1 <0>         0.0894
     21 N2         -1.4718   -0.3951   -0.1095 N.pl3     1 <0>        -0.5183
     22 C16        -2.5611    0.1913   -0.7090 C.ar      1 <0>         0.1618
     23 C17        -2.6521    1.3277   -1.5118 C.ar      1 <0>        -0.1305
     24 C18        -3.9109    1.6745   -1.9733 C.ar      1 <0>        -0.0737
     25 C19        -5.0393    0.9368   -1.6616 C.ar      1 <0>        -0.1358
     26 C20        -4.9745   -0.1955   -0.8662 C.ar      1 <0>        -0.0503
     27 C21        -3.7147   -0.5596   -0.3919 C.ar      1 <0>        -0.1042
     28 C22        -3.2693   -1.6660    0.4845 C.ar      1 <0>        -0.0360
     29 C23        -3.9084   -2.7313    1.1102 C.ar      1 <0>        -0.0288
     30 C24        -3.1873   -3.6421    1.8754 C.ar      1 <0>        -0.1255
     31 C25        -4.1221   -4.6480    2.4030 C.2       1 <0>         0.5632
     32 O2         -3.8062   -5.5851    3.1110 O.2       1 <0>        -0.5106
     33 N3         -5.3744   -4.3851    1.9926 N.am      1 <0>        -0.7162
     34 C26        -5.3495   -3.1771    1.1601 C.3       1 <0>         0.1358
     35 N4         -0.3067   -2.7008   -1.0216 N.4       1 <0>        -0.5252
     36 C27         0.0145   -4.1336   -0.9773 C.3       1 <0>        -0.0497
     37 O3         -0.3340   -0.2979   -2.5607 O.3       1 <0>        -0.3614
     38 C28         0.3101   -0.0933   -3.8198 C.3       1 <0>         0.0162
     39 H4          0.8261    2.0094    0.0240 H         1 <0>         0.0984
     40 H5         -0.3202    1.8814   -1.3317 H         1 <0>         0.1036
     41 H6         -0.9255    1.9818    0.3392 H         1 <0>         0.0921
     42 H7          2.1370   -3.1081    0.0458 H         1 <0>         0.1233
     43 H8          2.7835   -1.4869   -0.3048 H         1 <0>         0.1455
     44 H9          2.6036   -3.5149    2.8368 H         1 <0>         0.1365
     45 H10         2.5026   -5.5304    4.2610 H         1 <0>         0.1359
     46 H11         0.4045   -6.6780    4.6980 H         1 <0>         0.1352
     47 H12        -1.7278   -5.8736    3.7323 H         1 <0>         0.1600
     48 H13        -1.7792    1.9122   -1.7624 H         1 <0>         0.1440
     49 H14        -4.0153    2.5500   -2.5970 H         1 <0>         0.1336
     50 H15        -5.9967    1.2527   -2.0488 H         1 <0>         0.1332
     51 H16        -5.8575   -0.7687   -0.6249 H         1 <0>         0.1415
     52 H17        -6.1628   -4.9065    2.2103 H         1 <0>         0.4348
     53 H18        -5.9671   -2.3994    1.6094 H         1 <0>         0.1115
     54 H19        -5.7060   -3.4063    0.1559 H         1 <0>         0.1103
     55 H20        -0.6958   -2.4158   -0.1353 H         1 <0>         0.4186
     56 H21         0.4349   -4.4415   -1.9347 H         1 <0>         0.1256
     57 H22         0.7403   -4.3189   -0.1854 H         1 <0>         0.1191
     58 H23        -0.8932   -4.7035   -0.7789 H         1 <0>         0.1256
     59 H24         0.9168    0.8112   -3.7748 H         1 <0>         0.0633
     60 H25         0.9482   -0.9479   -4.0446 H         1 <0>         0.0514
     61 H26        -0.4433    0.0130   -4.6003 H         1 <0>         0.1100
     62 H27        -0.9785   -2.5293   -1.7546 H         1 <0>         0.4274
@<TRIPOS>BOND
     1    1    2 1
     2    1   39 1
     3    1   40 1
     4    1   41 1
     5    2   10 1
     6    2   21 1
     7    2    3 1
     8    3    4 1
     9    3    5 1
    10    3   37 1
    11    5    6 1
    12    5    7 1
    13    5   35 1
    14    7    8 1
    15    7   42 1
    16    7   43 1
    17    8    9 1
    18    8   10 1
    19    8   11 1
    20   11   19 1
    21   11   12 1
    22   12   17 ar
    23   12   13 ar
    24   13   14 ar
    25   13   44 1
    26   14   15 ar
    27   14   45 1
    28   15   16 ar
    29   15   46 1
    30   16   17 ar
    31   16   47 1
    32   17   18 1
    33   18   30 ar
    34   18   19 ar
    35   19   20 ar
    36   20   28 ar
    37   20   21 1
    38   21   22 1
    39   22   27 ar
    40   22   23 ar
    41   23   24 ar
    42   23   48 1
    43   24   25 ar
    44   24   49 1
    45   25   26 ar
    46   25   50 1
    47   26   27 ar
    48   26   51 1
    49   27   28 1
    50   28   29 ar
    51   29   34 1
    52   29   30 ar
    53   30   31 1
    54   31   32 2
    55   31   33 am
    56   33   34 1
    57   33   52 1
    58   34   53 1
    59   34   54 1
    60   35   36 1
    61   35   55 1
    62   35   62 1
    63   36   56 1
    64   36   57 1
    65   36   58 1
    66   37   38 1
    67   38   59 1
    68   38   60 1
    69   38   61 1
@<TRIPOS>MOLECULE
ZINC12355112
   41    43     0     0     0
SMALL
USER_CHARGES

@<TRIPOS>ATOM
      1 C1         -0.1028    1.0961   -0.3671 C.ar      1 <0>        -0.0514
      2 C2          0.1939    0.2453    0.6818 C.ar      1 <0>        -0.1484
      3 C3          1.4264   -0.3800    0.7402 C.ar      1 <0>         0.1639
      4 C4          2.3673   -0.1521   -0.2572 C.ar      1 <0>         0.0453
      5 C5          2.0653    0.7038   -1.3099 C.ar      1 <0>         0.1303
      6 C6          0.8305    1.3253   -1.3612 C.ar      1 <0>        -0.1508
      7 F1          2.9766    0.9287   -2.2816 F         1 <0>        -0.1242
      8 N1          3.6170   -0.7832   -0.2014 N.pl3     1 <0>        -0.5829
      9 C7          3.7027   -2.0774    0.1649 C.2       1 <0>         0.5287
     10 S1          2.2783   -2.9758    0.4732 S.2       1 <0>        -0.4610
     11 N2          4.9096   -2.6643    0.2886 N.pl3     1 <0>        -0.3704
     12 C8          5.1565   -3.9777    0.5555 C.2       1 <0>         0.6130
     13 N3          6.4609   -4.1414    0.5939 N.2       1 <0>        -0.5881
     14 C9          7.0702   -2.9726    0.3596 C.2       1 <0>         0.5344
     15 N4          6.1641   -2.0459    0.1621 N.2       1 <0>        -0.3900
     16 N5          8.4494   -2.7737    0.3248 N.pl3     1 <0>        -0.6253
     17 C10         9.3156   -3.8654    0.4276 C.ar      1 <0>         0.2308
     18 C11         8.9430   -5.1006   -0.0877 C.ar      1 <0>        -0.1475
     19 C12         9.8015   -6.1774    0.0157 C.ar      1 <0>         0.0049
     20 C13        11.0306   -6.0273    0.6313 C.ar      1 <0>        -0.6997
     21 C14        11.4044   -4.7993    1.1458 C.ar      1 <0>         0.0107
     22 C15        10.5534   -3.7167    1.0403 C.ar      1 <0>        -0.1718
     23 S2         12.1228   -7.4039    0.7609 S.o2      1 <0>         2.7036
     24 O1         12.9813   -7.1389    1.8619 O.2       1 <0>        -0.9640
     25 O2         11.3155   -8.5710    0.6881 O.2       1 <0>        -0.9611
     26 N6         13.0757   -7.4022   -0.5934 N.pl3     1 <0>        -1.2489
     27 N7          4.2074   -4.9604    0.7511 N.pl3     1 <0>        -0.7789
     28 F2          1.7155   -1.2107    1.7657 F         1 <0>        -0.0889
     29 H1         -1.0676    1.5793   -0.4122 H         1 <0>         0.1524
     30 H2         -0.5376    0.0691    1.4566 H         1 <0>         0.1538
     31 H3          0.5950    1.9905   -2.1789 H         1 <0>         0.1534
     32 H4          4.4206   -0.2887   -0.4264 H         1 <0>         0.4283
     33 H5          8.8079   -1.8774    0.2293 H         1 <0>         0.4322
     34 H6          7.9831   -5.2186   -0.5683 H         1 <0>         0.1467
     35 H7          9.5123   -7.1380   -0.3844 H         1 <0>         0.1464
     36 H8         12.3649   -4.6855    1.6262 H         1 <0>         0.1476
     37 H9         10.8481   -2.7567    1.4378 H         1 <0>         0.1386
     38 H10        13.9781   -7.7554   -0.5519 H         1 <0>         0.4215
     39 H11        12.7314   -7.0480   -1.4282 H         1 <0>         0.4170
     40 H12         3.2665   -4.7264    0.7830 H         1 <0>         0.4323
     41 H13         4.4811   -5.8849    0.8567 H         1 <0>         0.4174
@<TRIPOS>BOND
     1    1    6 ar
     2    1    2 ar
     3    1   29 1
     4    2    3 ar
     5    2   30 1
     6    3    4 ar
     7    3   28 1
     8    4    5 ar
     9    4    8 1
    10    5    6 ar
    11    5    7 1
    12    6   31 1
    13    8    9 1
    14    8   32 1
    15    9   10 2
    16    9   11 1
    17   11   15 1
    18   11   12 1
    19   12   13 2
    20   12   27 1
    21   13   14 1
    22   14   15 2
    23   14   16 1
    24   16   17 1
    25   16   33 1
    26   17   22 ar
    27   17   18 ar
    28   18   19 ar
    29   18   34 1
    30   19   20 ar
    31   19   35 1
    32   20   21 ar
    33   20   23 1
    34   21   22 ar
    35   21   36 1
    36   22   37 1
    37   23   24 2
    38   23   25 2
    39   23   26 1
    40   26   38 1
    41   26   39 1
    42   27   40 1
    43   27   41 1
@<TRIPOS>MOLECULE
ZINC00136945
   40    42     0     0     0
SMALL
USER_CHARGES

@<TRIPOS>ATOM
      1 C1         -0.1859    1.2832    0.0346 C.3       1 <0>         0.0238
      2 O1          0.0715   -0.1206    0.1048 O.3       1 <0>        -0.3075
      3 C2          0.6573   -0.6944   -0.9765 C.ar      1 <0>         0.2232
      4 C3          0.9821    0.0851   -2.0802 C.ar      1 <0>        -0.3384
      5 C4          1.5792   -0.4893   -3.1859 C.ar      1 <0>         0.2301
      6 C5          1.8587   -1.8698   -3.1917 C.ar      1 <0>        -0.1927
      7 C6          1.5255   -2.6509   -2.0680 C.ar      1 <0>         0.2337
      8 C7          0.9337   -2.0562   -0.9702 C.ar      1 <0>        -0.2849
      9 O2          1.7893   -3.9816   -2.0617 O.3       1 <0>        -0.2919
     10 C8          1.4237   -4.7099   -0.8878 C.3       1 <0>         0.0233
     11 C9          2.4704   -2.4688   -4.3206 C.2       1 <0>         0.0661
     12 C10         1.8161   -3.4671   -5.0106 C.2       1 <0>        -0.1617
     13 C11         0.4253   -3.9349   -4.8145 C.ar      1 <0>        -0.0861
     14 C12        -0.5939   -3.5583   -3.9462 C.ar      1 <0>        -0.0627
     15 C13        -1.8149   -4.1992   -4.0052 C.ar      1 <0>        -0.1438
     16 C14        -2.0232   -5.2131   -4.9256 C.ar      1 <0>        -0.0855
     17 C15        -1.0183   -5.5944   -5.7910 C.ar      1 <0>        -0.1387
     18 C16         0.2185   -4.9601   -5.7470 C.ar      1 <0>         0.1416
     19 N1          1.3793   -5.1437   -6.4883 N.am      1 <0>        -0.6555
     20 C17         2.3460   -4.2930   -6.1040 C.2       1 <0>         0.5622
     21 O3          3.4660   -4.2209   -6.5775 O.2       1 <0>        -0.5062
     22 O4          1.8949    0.2736   -4.2623 O.3       1 <0>        -0.3009
     23 C18         1.5815    1.6657   -4.1851 C.3       1 <0>         0.0245
     24 H1          0.7532    1.8181   -0.1079 H         1 <0>         0.0593
     25 H2         -0.8520    1.4891   -0.8032 H         1 <0>         0.0595
     26 H3         -0.6549    1.6134    0.9615 H         1 <0>         0.1056
     27 H4          0.7666    1.1434   -2.0738 H         1 <0>         0.1417
     28 H5          0.6815   -2.6526   -0.1058 H         1 <0>         0.1445
     29 H6          1.9541   -4.3021   -0.0273 H         1 <0>         0.0614
     30 H7          0.3491   -4.6235   -0.7265 H         1 <0>         0.0623
     31 H8          1.6889   -5.7595   -1.0141 H         1 <0>         0.1048
     32 H9          3.4492   -2.1433   -4.6407 H         1 <0>         0.1404
     33 H10        -0.4305   -2.7679   -3.2286 H         1 <0>         0.1228
     34 H11        -2.6088   -3.9100   -3.3325 H         1 <0>         0.1260
     35 H12        -2.9812   -5.7102   -4.9660 H         1 <0>         0.1295
     36 H13        -1.1927   -6.3869   -6.5038 H         1 <0>         0.1263
     37 H14         1.4782   -5.8000   -7.1957 H         1 <0>         0.4167
     38 H15         0.5078    1.7891   -4.0434 H         1 <0>         0.0597
     39 H16         2.1126    2.1116   -3.3442 H         1 <0>         0.0601
     40 H17         1.8850    2.1582   -5.1089 H         1 <0>         0.1073
@<TRIPOS>BOND
     1    1    2 1
     2    1   24 1
     3    1   25 1
     4    1   26 1
     5    2    3 1
     6    3    8 ar
     7    3    4 ar
     8    4    5 ar
     9    4   27 1
    10    5    6 ar
    11    5   22 1
    12    6    7 ar
    13    6   11 1
    14    7    8 ar
    15    7    9 1
    16    8   28 1
    17    9   10 1
    18   10   29 1
    19   10   30 1
    20   10   31 1
    21   11   12 2
    22   11   32 1
    23   12   20 1
    24   12   13 1
    25   13   18 ar
    26   13   14 ar
    27   14   15 ar
    28   14   33 1
    29   15   16 ar
    30   15   34 1
    31   16   17 ar
    32   16   35 1
    33   17   18 ar
    34   17   36 1
    35   18   19 1
    36   19   20 am
    37   19   37 1
    38   20   21 2
    39   22   23 1
    40   23   38 1
    41   23   39 1
    42   23   40 1
@<TRIPOS>MOLECULE
ZINC00136945
   40    42     0     0     0
SMALL
USER_CHARGES

@<TRIPOS>ATOM
      1 C1         -0.2951    1.5018   -0.2354 C.3       1 <0>         0.0235
      2 O1         -0.0589    0.0995   -0.0945 O.3       1 <0>        -0.3068
      3 C2          0.5587   -0.5278   -1.1269 C.ar      1 <0>         0.2267
      4 C3          0.9339    0.1988   -2.2508 C.ar      1 <0>        -0.3412
      5 C4          1.5632   -0.4300   -3.3075 C.ar      1 <0>         0.2389
      6 C5          1.8247   -1.8137   -3.2430 C.ar      1 <0>        -0.2020
      7 C6          1.4400   -2.5410   -2.0985 C.ar      1 <0>         0.2325
      8 C7          0.8169   -1.8914   -1.0507 C.ar      1 <0>        -0.2840
      9 O2          1.6858   -3.8728   -2.0240 O.3       1 <0>        -0.3005
     10 C8          1.2678   -4.5440   -0.8337 C.3       1 <0>         0.0231
     11 C9          2.4681   -2.4677   -4.3195 C.2       1 <0>         0.0845
     12 C10         3.7381   -2.0804   -4.7038 C.2       1 <0>        -0.1224
     13 C11         4.6348   -1.1164   -4.0319 C.ar      1 <0>        -0.1055
     14 C12         4.5288   -0.3345   -2.8889 C.ar      1 <0>        -0.0726
     15 C13         5.5759    0.4860   -2.5218 C.ar      1 <0>        -0.1351
     16 C14         6.7306    0.5315   -3.2893 C.ar      1 <0>        -0.1049
     17 C15         6.8534   -0.2364   -4.4252 C.ar      1 <0>        -0.0953
     18 C16         5.8050   -1.0768   -4.8187 C.ar      1 <0>         0.0993
     19 N1          5.6627   -1.9218   -5.8701 N.2       1 <0>        -0.5446
     20 C17         4.5063   -2.5380   -5.8696 C.2       1 <0>         0.3732
     21 O3          4.0883   -3.4410   -6.7900 O.3       1 <0>        -0.4399
     22 O4          1.9279    0.2812   -4.4033 O.3       1 <0>        -0.2928
     23 C18         1.6302    1.6789   -4.3982 C.3       1 <0>         0.0249
     24 H1          0.6554    2.0191   -0.3660 H         1 <0>         0.0600
     25 H2         -0.9273    1.6781   -1.1056 H         1 <0>         0.0598
     26 H3         -0.7937    1.8778    0.6580 H         1 <0>         0.1062
     27 H4          0.7322    1.2588   -2.2982 H         1 <0>         0.1428
     28 H5          0.5252   -2.4459   -0.1710 H         1 <0>         0.1449
     29 H6          1.5237   -5.6012   -0.9038 H         1 <0>         0.1074
     30 H7          1.7716   -4.1046    0.0273 H         1 <0>         0.0626
     31 H8          0.1893   -4.4383   -0.7166 H         1 <0>         0.0632
     32 H9          1.9671   -3.2698   -4.8411 H         1 <0>         0.1426
     33 H10         3.6306   -0.3681   -2.2902 H         1 <0>         0.1166
     34 H11         5.4960    1.0953   -1.6337 H         1 <0>         0.1233
     35 H12         7.5433    1.1777   -2.9922 H         1 <0>         0.1271
     36 H13         7.7583   -0.1903   -5.0131 H         1 <0>         0.1261
     37 H14         4.7331   -3.6177   -7.4886 H         1 <0>         0.4131
     38 H15         0.5538    1.8208   -4.3018 H         1 <0>         0.0594
     39 H16         2.1361    2.1550   -3.5582 H         1 <0>         0.0603
     40 H17         1.9737    2.1269   -5.3306 H         1 <0>         0.1059
@<TRIPOS>BOND
     1    1    2 1
     2    1   24 1
     3    1   25 1
     4    1   26 1
     5    2    3 1
     6    3    8 ar
     7    3    4 ar
     8    4    5 ar
     9    4   27 1
    10    5    6 ar
    11    5   22 1
    12    6    7 ar
    13    6   11 1
    14    7    8 ar
    15    7    9 1
    16    8   28 1
    17    9   10 1
    18   10   29 1
    19   10   30 1
    20   10   31 1
    21   11   12 2
    22   11   32 1
    23   12   20 1
    24   12   13 1
    25   13   18 ar
    26   13   14 ar
    27   14   15 ar
    28   14   33 1
    29   15   16 ar
    30   15   34 1
    31   16   17 ar
    32   16   35 1
    33   17   18 ar
    34   17   36 1
    35   18   19 1
    36   19   20 2
    37   20   21 1
    38   21   37 1
    39   22   23 1
    40   23   38 1
    41   23   39 1
    42   23   40 1
@<TRIPOS>MOLECULE
ZINC03964325
   57    59     0     0     0
SMALL
USER_CHARGES

@<TRIPOS>ATOM
      1 C1          0.1489    2.0884    0.1150 C.3       1 <0>        -0.1876
      2 C2          0.1348    0.5603    0.1888 C.3       1 <0>        -0.0191
      3 N1         -1.2520    0.0881    0.2979 N.4       1 <0>        -0.3822
      4 C3         -1.9779    0.4111   -0.9377 C.3       1 <0>        -0.0142
      5 C4         -3.4549    0.0484   -0.7712 C.3       1 <0>        -0.1895
      6 C5         -1.2593   -1.3663    0.5041 C.3       1 <0>        -0.0265
      7 C6         -0.6131   -1.6936    1.8518 C.3       1 <0>         0.0952
      8 N2         -0.6203   -3.1440    2.0575 N.am      1 <0>        -0.7289
      9 C7         -0.0988   -3.6675    3.1846 C.2       1 <0>         0.6111
     10 O1          0.3779   -2.9358    4.0309 O.2       1 <0>        -0.5184
     11 C8         -0.1061   -5.1270    3.3915 C.2       1 <0>        -0.2420
     12 C9          0.9071   -6.0320    3.0089 C.2       1 <0>        -0.0577
     13 C10         0.4868   -7.2892    3.3960 C.2       1 <0>        -0.0075
     14 N3         -0.7476   -7.1595    3.9982 N.pl3     1 <0>        -0.4910
     15 H1         -1.2731   -7.8879    4.3645 H         1 <0>         0.4270
     16 C11        -1.1044   -5.8642    4.0022 C.2       1 <0>         0.1158
     17 C12        -2.3825   -5.3072    4.5743 C.3       1 <0>        -0.0999
     18 C13         1.1957   -8.4957    3.2079 C.2       1 <0>         0.0729
     19 C14         0.5100   -9.6674    2.9570 C.2       1 <0>        -0.1889
     20 C15         1.0648  -11.0377    2.8871 C.ar      1 <0>        -0.0736
     21 C16         2.3472  -11.5557    3.0375 C.ar      1 <0>        -0.1000
     22 C17         2.5553  -12.9162    2.9116 C.ar      1 <0>         0.0861
     23 C18         1.4888  -13.7593    2.6366 C.ar      1 <0>        -0.1139
     24 C19         0.2139  -13.2531    2.4856 C.ar      1 <0>        -0.1021
     25 C20        -0.0144  -11.8871    2.6092 C.ar      1 <0>         0.1282
     26 N4         -1.1765  -11.1301    2.5069 N.am      1 <0>        -0.6466
     27 C21        -0.9294   -9.8245    2.7079 C.2       1 <0>         0.5595
     28 O2         -1.7538   -8.9280    2.6842 O.2       1 <0>        -0.5156
     29 F1          3.7984  -13.4252    3.0561 F         1 <0>        -0.1318
     30 C22         2.1990   -5.6919    2.3116 C.3       1 <0>        -0.0931
     31 H2          1.1793    2.4435    0.1331 H         1 <0>         0.1076
     32 H3         -0.3308    2.4121   -0.8087 H         1 <0>         0.0811
     33 H4         -0.3916    2.4984    0.9682 H         1 <0>         0.0809
     34 H5          0.5888    0.1488   -0.7126 H         1 <0>         0.1317
     35 H6          0.6996    0.2334    1.0619 H         1 <0>         0.1337
     36 H7         -1.8867    1.4775   -1.1444 H         1 <0>         0.1351
     37 H8         -1.5554   -0.1571   -1.7664 H         1 <0>         0.1307
     38 H9         -3.5537   -1.0316   -0.6617 H         1 <0>         0.0802
     39 H10        -3.8523    0.5414    0.1160 H         1 <0>         0.0808
     40 H11        -4.0109    0.3769   -1.6492 H         1 <0>         0.1074
     41 H12        -2.2871   -1.7292    0.4963 H         1 <0>         0.1397
     42 H13        -0.6973   -1.8494   -0.2952 H         1 <0>         0.1376
     43 H14         0.4147   -1.3306    1.8596 H         1 <0>         0.0893
     44 H15        -1.1751   -1.2105    2.6511 H         1 <0>         0.0890
     45 H16        -1.0005   -3.7277    1.3824 H         1 <0>         0.4099
     46 H17        -3.1529   -5.3000    3.8032 H         1 <0>         0.0840
     47 H18        -2.7087   -5.9289    5.4080 H         1 <0>         0.0782
     48 H19        -2.2103   -4.2898    4.9254 H         1 <0>         0.0840
     49 H20         2.2744   -8.5020    3.2604 H         1 <0>         0.1589
     50 H21         3.1765  -10.8977    3.2512 H         1 <0>         0.1436
     51 H22         1.6578  -14.8215    2.5394 H         1 <0>         0.1485
     52 H23        -0.6084  -13.9196    2.2712 H         1 <0>         0.1415
     53 H24        -2.0541  -11.4980    2.3189 H         1 <0>         0.4217
     54 H25         2.9686   -5.4822    3.0545 H         1 <0>         0.0785
     55 H26         2.5107   -6.5337    1.6932 H         1 <0>         0.0726
     56 H27         2.0522   -4.8138    1.6827 H         1 <0>         0.0634
     57 H28        -1.7009    0.5410    1.0799 H         1 <0>         0.4247
@<TRIPOS>BOND
     1    1    2 1
     2    1   31 1
     3    1   32 1
     4    1   33 1
     5    2    3 1
     6    2   34 1
     7    2   35 1
     8    3    4 1
     9    3    6 1
    10    3   57 1
    11    4    5 1
    12    4   36 1
    13    4   37 1
    14    5   38 1
    15    5   39 1
    16    5   40 1
    17    6    7 1
    18    6   41 1
    19    6   42 1
    20    7    8 1
    21    7   43 1
    22    7   44 1
    23    8    9 am
    24    8   45 1
    25    9   10 2
    26    9   11 1
    27   11   16 2
    28   11   12 1
    29   12   13 2
    30   12   30 1
    31   13   14 1
    32   13   18 1
    33   14   15 1
    34   14   16 1
    35   16   17 1
    36   17   46 1
    37   17   47 1
    38   17   48 1
    39   18   19 2
    40   18   49 1
    41   19   27 1
    42   19   20 1
    43   20   25 ar
    44   20   21 ar
    45   21   22 ar
    46   21   50 1
    47   22   23 ar
    48   22   29 1
    49   23   24 ar
    50   23   51 1
    51   24   25 ar
    52   24   52 1
    53   25   26 1
    54   26   27 am
    55   26   53 1
    56   27   28 2
    57   30   54 1
    58   30   55 1
    59   30   56 1
@<TRIPOS>MOLECULE
ZINC03902902
   28    30     0     0     0
SMALL
USER_CHARGES

@<TRIPOS>ATOM
      1 C1          0.2301    1.0220    2.2243 C.ar      1 <0>        -0.1012
      2 C2          1.4146    1.7367    2.2153 C.ar      1 <0>        -0.1012
      3 C3          2.5844    1.1482    1.7706 C.ar      1 <0>        -0.0722
      4 C4          2.5725   -0.1721    1.3286 C.ar      1 <0>        -0.1154
      5 C5          1.3687   -0.8986    1.3379 C.ar      1 <0>        -0.1153
      6 C6          0.2002   -0.2904    1.7889 C.ar      1 <0>        -0.0722
      7 C7          1.3471   -2.3006    0.8710 C.2       1 <0>         0.4426
      8 O1          0.3060   -2.9293    0.8786 O.2       1 <0>        -0.4549
      9 C8          2.5869   -2.9340    0.3968 C.ar      1 <0>        -0.1748
     10 C9          2.5792   -4.2601   -0.0483 C.ar      1 <0>         0.2283
     11 C10         3.7643   -4.8502   -0.4969 C.ar      1 <0>        -0.1184
     12 C11         4.9322   -4.1453   -0.5057 C.ar      1 <0>        -0.1184
     13 C12         4.9672   -2.8188   -0.0663 C.ar      1 <0>         0.2283
     14 C13         3.7951   -2.2048    0.3876 C.ar      1 <0>        -0.1749
     15 C14         3.8174   -0.8091    0.8507 C.2       1 <0>         0.4426
     16 O2          4.8588   -0.1810    0.8423 O.2       1 <0>        -0.4549
     17 N1          6.1607   -2.1135   -0.0799 N.pl3     1 <0>        -0.8598
     18 N2          1.3989   -4.9877   -0.0440 N.pl3     1 <0>        -0.8599
     19 H1         -0.6764    1.4906    2.5780 H         1 <0>         0.1369
     20 H2          1.4257    2.7611    2.5573 H         1 <0>         0.1369
     21 H3          3.5056    1.7119    1.7658 H         1 <0>         0.1423
     22 H4         -0.7280   -0.8424    1.7983 H         1 <0>         0.1423
     23 H5          3.7553   -5.8743   -0.8396 H         1 <0>         0.1370
     24 H6          5.8387   -4.6169   -0.8553 H         1 <0>         0.1370
     25 H7          6.8694   -2.3710   -0.6902 H         1 <0>         0.3974
     26 H8          6.2872   -1.3625    0.5209 H         1 <0>         0.4122
     27 H9          1.2902   -5.7391   -0.6477 H         1 <0>         0.3974
     28 H10         0.6820   -4.7454    0.5628 H         1 <0>         0.4122
@<TRIPOS>BOND
     1    1    6 ar
     2    1    2 ar
     3    1   19 1
     4    2    3 ar
     5    2   20 1
     6    3    4 ar
     7    3   21 1
     8    4   15 1
     9    4    5 ar
    10    5    6 ar
    11    5    7 1
    12    6   22 1
    13    7    8 2
    14    7    9 1
    15    9   14 ar
    16    9   10 ar
    17   10   11 ar
    18   10   18 1
    19   11   12 ar
    20   11   23 1
    21   12   13 ar
    22   12   24 1
    23   13   14 ar
    24   13   17 1
    25   14   15 1
    26   15   16 2
    27   17   25 1
    28   17   26 1
    29   18   27 1
    30   18   28 1
@<TRIPOS>MOLECULE
ZINC03860170
   27    29     0     0     0
SMALL
USER_CHARGES

@<TRIPOS>ATOM
      1 C1         -0.0169    1.3791   -0.0194 C.ar      1 <0>        -0.1005
      2 C2          1.1660    2.0962   -0.0268 C.ar      1 <0>        -0.0984
      3 C3          2.3832    1.4393   -0.0363 C.ar      1 <0>        -0.0708
      4 C4          2.4205    0.0475   -0.0384 C.ar      1 <0>        -0.1172
      5 C5          1.2182   -0.6813   -0.0309 C.ar      1 <0>        -0.1185
      6 C6          0.0019   -0.0040   -0.0214 C.ar      1 <0>        -0.0700
      7 C7          1.2486   -2.1590   -0.0342 C.2       1 <0>         0.4459
      8 O1          0.2088   -2.7895   -0.0279 O.2       1 <0>        -0.4518
      9 C8          2.5389   -2.8660   -0.0455 C.ar      1 <0>        -0.1995
     10 C9          2.5779   -4.2647   -0.0494 C.ar      1 <0>         0.2630
     11 C10         3.8088   -4.9254   -0.0606 C.ar      1 <0>        -0.1534
     12 C11         4.9838   -4.2108   -0.0674 C.ar      1 <0>        -0.0774
     13 C12         4.9649   -2.8160   -0.0632 C.ar      1 <0>         0.1092
     14 C13         3.7453   -2.1356   -0.0530 C.ar      1 <0>        -0.1061
     15 C14         3.7162   -0.6631   -0.0490 C.2       1 <0>         0.4304
     16 O2          4.7563   -0.0333   -0.0553 O.2       1 <0>        -0.4132
     17 O3          6.1295   -2.1213   -0.0691 O.3       1 <0>        -0.4755
     18 N1          1.3980   -4.9930   -0.0417 N.pl3     1 <0>        -0.8543
     19 H1         -0.9615    1.9027   -0.0075 H         1 <0>         0.1380
     20 H2          1.1390    3.1758   -0.0255 H         1 <0>         0.1384
     21 H3          3.3032    2.0051   -0.0423 H         1 <0>         0.1438
     22 H4         -0.9255   -0.5575   -0.0153 H         1 <0>         0.1430
     23 H5          3.8379   -6.0050   -0.0636 H         1 <0>         0.1415
     24 H6          5.9288   -4.7336   -0.0757 H         1 <0>         0.1448
     25 H7          6.4613   -1.9173   -0.9542 H         1 <0>         0.3926
     26 H8          0.5817   -4.5976   -0.3855 H         1 <0>         0.4147
     27 H9          1.3889   -5.8979    0.3075 H         1 <0>         0.4013
@<TRIPOS>BOND
     1    1    6 ar
     2    1    2 ar
     3    1   19 1
     4    2    3 ar
     5    2   20 1
     6    3    4 ar
     7    3   21 1
     8    4   15 1
     9    4    5 ar
    10    5    6 ar
    11    5    7 1
    12    6   22 1
    13    7    8 2
    14    7    9 1
    15    9   14 ar
    16    9   10 ar
    17   10   11 ar
    18   10   18 1
    19   11   12 ar
    20   11   23 1
    21   12   13 ar
    22   12   24 1
    23   13   14 ar
    24   13   17 1
    25   14   15 1
    26   15   16 2
    27   17   25 1
    28   18   26 1
    29   18   27 1
