@<TRIPOS>MOLECULE
ZINC03814434
   62    69     0     0     0
SMALL
USER_CHARGES

@<TRIPOS>ATOM
      1 C1         -0.1295    1.5952   -0.2973 C.3       1 <0>        -0.1687
      2 C2         -0.0862    0.0696   -0.1900 C.3       1 <0>         0.3342
      3 C3          0.5692   -0.4501   -1.4637 C.3       1 <0>         0.0405
      4 H1          1.4796    0.1159   -1.6612 H         1 <0>         0.1372
      5 C4          0.9167   -1.9328   -1.2889 C.3       1 <0>        -0.0061
      6 H2          1.3963   -2.3075   -2.1932 H         1 <0>         0.1555
      7 C5          1.8785   -2.0596   -0.1021 C.3       1 <0>        -0.1827
      8 C6          1.2061   -1.5198    1.1541 C.3       1 <0>         0.2999
      9 H3          1.9797   -1.4243    1.9161 H         1 <0>         0.1550
     10 O1          0.6555   -0.2442    0.9666 O.3       1 <0>        -0.3234
     11 N1          0.2189   -2.4746    1.6600 N.pl3     1 <0>        -0.5366
     12 C7          0.4705   -3.5508    2.4739 C.ar      1 <0>         0.1469
     13 C8          1.6649   -4.0152    3.0240 C.ar      1 <0>        -0.1522
     14 C9          1.5948   -5.1456    3.8201 C.ar      1 <0>        -0.0582
     15 C10         0.4006   -5.7997    4.0696 C.ar      1 <0>        -0.1457
     16 C11        -0.7984   -5.3597    3.5358 C.ar      1 <0>        -0.0280
     17 C12        -0.7487   -4.2198    2.7307 C.ar      1 <0>        -0.1131
     18 C13        -1.7893   -3.4830    2.0197 C.ar      1 <0>         0.0276
     19 C14        -1.1442   -2.4197    1.3841 C.ar      1 <0>         0.0376
     20 C15        -1.8806   -1.5095    0.6175 C.ar      1 <0>         0.0894
     21 N2         -1.4718   -0.3951   -0.1095 N.pl3     1 <0>        -0.5183
     22 C16        -2.5611    0.1913   -0.7090 C.ar      1 <0>         0.1618
     23 C17        -2.6521    1.3277   -1.5118 C.ar      1 <0>        -0.1305
     24 C18        -3.9109    1.6745   -1.9733 C.ar      1 <0>        -0.0737
     25 C19        -5.0393    0.9368   -1.6616 C.ar      1 <0>        -0.1358
     26 C20        -4.9745   -0.1955   -0.8662 C.ar      1 <0>        -0.0503
     27 C21        -3.7147   -0.5596   -0.3919 C.ar      1 <0>        -0.1042
     28 C22        -3.2693   -1.6660    0.4845 C.ar      1 <0>        -0.0360
     29 C23        -3.9084   -2.7313    1.1102 C.ar      1 <0>        -0.0288
     30 C24        -3.1873   -3.6421    1.8754 C.ar      1 <0>        -0.1255
     31 C25        -4.1221   -4.6480    2.4030 C.2       1 <0>         0.5632
     32 O2         -3.8062   -5.5851    3.1110 O.2       1 <0>        -0.5106
     33 N3         -5.3744   -4.3851    1.9926 N.am      1 <0>        -0.7162
     34 C26        -5.3495   -3.1771    1.1601 C.3       1 <0>         0.1358
     35 N4         -0.3067   -2.7008   -1.0216 N.4       1 <0>        -0.5252
     36 C27         0.0145   -4.1336   -0.9773 C.3       1 <0>        -0.0497
     37 O3         -0.3340   -0.2979   -2.5607 O.3       1 <0>        -0.3614
     38 C28         0.3101   -0.0933   -3.8198 C.3       1 <0>         0.0162
     39 H4          0.8261    2.0094    0.0240 H         1 <0>         0.0984
     40 H5         -0.3202    1.8814   -1.3317 H         1 <0>         0.1036
     41 H6         -0.9255    1.9818    0.3392 H         1 <0>         0.0921
     42 H7          2.1370   -3.1081    0.0458 H         1 <0>         0.1233
     43 H8          2.7835   -1.4869   -0.3048 H         1 <0>         0.1455
     44 H9          2.6036   -3.5149    2.8368 H         1 <0>         0.1365
     45 H10         2.5026   -5.5304    4.2610 H         1 <0>         0.1359
     46 H11         0.4045   -6.6780    4.6980 H         1 <0>         0.1352
     47 H12        -1.7278   -5.8736    3.7323 H         1 <0>         0.1600
     48 H13        -1.7792    1.9122   -1.7624 H         1 <0>         0.1440
     49 H14        -4.0153    2.5500   -2.5970 H         1 <0>         0.1336
     50 H15        -5.9967    1.2527   -2.0488 H         1 <0>         0.1332
     51 H16        -5.8575   -0.7687   -0.6249 H         1 <0>         0.1415
     52 H17        -6.1628   -4.9065    2.2103 H         1 <0>         0.4348
     53 H18        -5.9671   -2.3994    1.6094 H         1 <0>         0.1115
     54 H19        -5.7060   -3.4063    0.1559 H         1 <0>         0.1103
     55 H20        -0.6958   -2.4158   -0.1353 H         1 <0>         0.4186
     56 H21         0.4349   -4.4415   -1.9347 H         1 <0>         0.1256
     57 H22         0.7403   -4.3189   -0.1854 H         1 <0>         0.1191
     58 H23        -0.8932   -4.7035   -0.7789 H         1 <0>         0.1256
     59 H24         0.9168    0.8112   -3.7748 H         1 <0>         0.0633
     60 H25         0.9482   -0.9479   -4.0446 H         1 <0>         0.0514
     61 H26        -0.4433    0.0130   -4.6003 H         1 <0>         0.1100
     62 H27        -0.9785   -2.5293   -1.7546 H         1 <0>         0.4274
@<TRIPOS>BOND
     1    1    2 1
     2    1   39 1
     3    1   40 1
     4    1   41 1
     5    2   10 1
     6    2   21 1
     7    2    3 1
     8    3    4 1
     9    3    5 1
    10    3   37 1
    11    5    6 1
    12    5    7 1
    13    5   35 1
    14    7    8 1
    15    7   42 1
    16    7   43 1
    17    8    9 1
    18    8   10 1
    19    8   11 1
    20   11   19 1
    21   11   12 1
    22   12   17 ar
    23   12   13 ar
    24   13   14 ar
    25   13   44 1
    26   14   15 ar
    27   14   45 1
    28   15   16 ar
    29   15   46 1
    30   16   17 ar
    31   16   47 1
    32   17   18 1
    33   18   30 ar
    34   18   19 ar
    35   19   20 ar
    36   20   28 ar
    37   20   21 1
    38   21   22 1
    39   22   27 ar
    40   22   23 ar
    41   23   24 ar
    42   23   48 1
    43   24   25 ar
    44   24   49 1
    45   25   26 ar
    46   25   50 1
    47   26   27 ar
    48   26   51 1
    49   27   28 1
    50   28   29 ar
    51   29   34 1
    52   29   30 ar
    53   30   31 1
    54   31   32 2
    55   31   33 am
    56   33   34 1
    57   33   52 1
    58   34   53 1
    59   34   54 1
    60   35   36 1
    61   35   55 1
    62   35   62 1
    63   36   56 1
    64   36   57 1
    65   36   58 1
    66   37   38 1
    67   38   59 1
    68   38   60 1
    69   38   61 1
@<TRIPOS>MOLECULE
ZINC27646798
   37    40     0     0     0
SMALL
USER_CHARGES
3-(4-morpholinothieno[3,2-d]pyrimidin-2-yl)phenol
@<TRIPOS>ATOM
      1 C1         -1.2199    1.7485    0.0173 C.ar      1 <0>        -0.0892
      2 C2         -1.2454    3.1288    0.0298 C.ar      1 <0>        -0.1126
      3 C3         -0.0514    3.8476    0.0223 C.ar      1 <0>        -0.0081
      4 C4          1.1652    3.1691    0.0075 C.ar      1 <0>        -0.1131
      5 C5          1.1814    1.7842    0.0004 C.ar      1 <0>         0.1468
      6 C6         -0.0126    1.0758    0.0080 C.ar      1 <0>        -0.1927
      7 O1          2.3662    1.1187   -0.0145 O.3       1 <0>        -0.5085
      8 C7         -0.0760    5.3307    0.0295 C.ar      1 <0>         0.3925
      9 N1          1.0716    5.9741    0.0216 N.ar      1 <0>        -0.5030
     10 C8          1.1211    7.3278    0.0275 C.ar      1 <0>         0.1897
     11 C9          2.2454    8.1729    0.0212 C.2       1 <0>        -0.1560
     12 C10         2.0874    9.5099    0.0298 C.2       1 <0>        -0.1082
     13 S1          0.3128    9.7024    0.0473 S.3       1 <0>         0.0987
     14 C11        -0.1289    7.9855    0.0425 C.ar      1 <0>        -0.2646
     15 C12        -1.3162    7.2724    0.0507 C.ar      1 <0>         0.4224
     16 N2         -1.2564    5.9419    0.0383 N.ar      1 <0>        -0.5299
     17 N3         -2.5370    7.9274    0.0650 N.pl3     1 <0>        -0.4689
     18 C13        -2.6310    8.8416    1.2125 C.3       1 <0>         0.0169
     19 C14        -3.9673    9.5866    1.1565 C.3       1 <0>         0.0634
     20 O2         -5.0362    8.6368    1.1320 O.3       1 <0>        -0.3790
     21 C15        -4.9762    7.7309    0.0269 C.3       1 <0>         0.0577
     22 C16        -3.6502    6.9671    0.0715 C.3       1 <0>         0.0252
     23 H1         -2.1460    1.1927    0.0191 H         1 <0>         0.1309
     24 H2         -2.1904    3.6515    0.0409 H         1 <0>         0.1364
     25 H3          2.0932    3.7215    0.0012 H         1 <0>         0.1426
     26 H4          0.0021   -0.0041    0.0020 H         1 <0>         0.1300
     27 H5          2.3792    0.0188   -0.0201 H         1 <0>         0.4347
     28 H6          3.2383    7.7480    0.0097 H         1 <0>         0.1535
     29 H7          2.8474   10.2773    0.0272 H         1 <0>         0.2047
     30 H8         -2.5696    8.2646    2.1470 H         1 <0>         0.0647
     31 H9         -1.8036    9.5654    1.1735 H         1 <0>         0.0973
     32 H10        -4.0660   10.2298    2.0434 H         1 <0>         0.1117
     33 H11        -4.0039   10.2062    0.2484 H         1 <0>         0.0678
     34 H12        -5.8133    7.0201    0.0897 H         1 <0>         0.1102
     35 H13        -5.0447    8.2958   -0.9145 H         1 <0>         0.0643
     36 H14        -3.5732    6.3106   -0.8077 H         1 <0>         0.1032
     37 H15        -3.6053    6.3598    0.9876 H         1 <0>         0.0685
@<TRIPOS>BOND
     1    1    6 ar
     2    1    2 ar
     3    1   23 1
     4    2    3 ar
     5    2   24 1
     6    3    4 ar
     7    3    8 1
     8    4    5 ar
     9    4   25 1
    10    5    6 ar
    11    5    7 1
    12    6   26 1
    13    7   27 1
    14    8   16 ar
    15    8    9 ar
    16    9   10 ar
    17   10   14 ar
    18   10   11 1
    19   11   12 2
    20   11   28 1
    21   12   13 1
    22   12   29 1
    23   13   14 1
    24   14   15 ar
    25   15   16 ar
    26   15   17 1
    27   17   22 1
    28   17   18 1
    29   18   19 1
    30   18   30 1
    31   18   31 1
    32   19   20 1
    33   19   32 1
    34   19   33 1
    35   20   21 1
    36   21   22 1
    37   21   34 1
    38   21   35 1
    39   22   36 1
    40   22   37 1
