@<TRIPOS>MOLECULE
ZINC17655310
   53    55     0     0     0
SMALL
USER_CHARGES
[[(1S,2S,5R)-2-isopropyl-5-methyl-cyclohexyl]-phenyl-phosphoryl]benzene
@<TRIPOS>ATOM
      1 C1          2.7462    3.3051    1.1473 C.3       1 <0>        -0.1519
      2 C2          1.6069    3.7150    0.2119 C.3       1 <0>        -0.0854
      3 H1          1.6395    4.7924    0.0501 H         1 <0>         0.0716
      4 C3          0.2664    3.3344    0.8437 C.3       1 <0>        -0.2120
      5 C4          0.2207    1.8221    1.0709 C.3       1 <0>        -0.1040
      6 C5          0.3762    1.1002   -0.2691 C.3       1 <0>        -0.0642
      7 H2          0.3437    0.0227   -0.1072 H         1 <0>         0.0706
      8 C6          1.7167    1.4807   -0.9009 C.3       1 <0>        -0.7193
      9 H3          2.5284    1.1887   -0.2345 H         1 <0>         0.0995
     10 C7          1.7624    2.9930   -1.1280 C.3       1 <0>        -0.1254
     11 P1          1.9020    0.6205   -2.4974 P.3       1 <0>         2.6253
     12 O1          0.9031    1.1414   -3.4573 O.2       1 <0>        -0.9985
     13 C8          3.5713    0.9055   -3.1477 C.ar      1 <0>        -0.7368
     14 C9          4.6267    1.1076   -2.2780 C.ar      1 <0>        -0.0710
     15 C10         5.8995    1.3204   -2.7734 C.ar      1 <0>        -0.1370
     16 C11         6.1154    1.3401   -4.1387 C.ar      1 <0>        -0.0839
     17 C12         5.0592    1.1433   -5.0084 C.ar      1 <0>        -0.1358
     18 C13         3.7871    0.9261   -4.5129 C.ar      1 <0>        -0.0394
     19 C14         1.6414   -1.1588   -2.2595 C.ar      1 <0>        -0.7349
     20 C15         1.9676   -1.7499   -1.0532 C.ar      1 <0>        -0.0701
     21 C16         1.7650   -3.1050   -0.8703 C.ar      1 <0>        -0.1369
     22 C17         1.2445   -3.8708   -1.8969 C.ar      1 <0>        -0.0837
     23 C18         0.9232   -3.2806   -3.1049 C.ar      1 <0>        -0.1354
     24 C19         1.1218   -1.9247   -3.2863 C.ar      1 <0>        -0.0389
     25 C20        -0.7631    1.5100   -1.2044 C.3       1 <0>        -0.1338
     26 C21        -2.0586    0.8288   -0.7591 C.3       1 <0>        -0.1474
     27 C22        -0.9423    3.0287   -1.1549 C.3       1 <0>        -0.2063
     28 H4          3.7012    3.5762    0.6972 H         1 <0>         0.0492
     29 H5          2.6354    3.8194    2.1019 H         1 <0>         0.0520
     30 H6          2.7137    2.2277    1.3091 H         1 <0>         0.0567
     31 H7          0.1557    3.8488    1.7983 H         1 <0>         0.0491
     32 H8         -0.5452    3.6264    0.1773 H         1 <0>         0.1559
     33 H9         -0.7343    1.5510    1.5210 H         1 <0>         0.0616
     34 H10         1.0324    1.5301    1.7373 H         1 <0>         0.0535
     35 H11         2.7174    3.2642   -1.5781 H         1 <0>         0.0625
     36 H12         0.9508    3.2850   -1.7944 H         1 <0>         0.1217
     37 H13         4.4573    1.0959   -1.2114 H         1 <0>         0.1210
     38 H14         6.7248    1.4739   -2.0939 H         1 <0>         0.1260
     39 H15         7.1094    1.5091   -4.5258 H         1 <0>         0.1272
     40 H16         5.2279    1.1587   -6.0751 H         1 <0>         0.1312
     41 H17         2.9619    0.7723   -5.1924 H         1 <0>         0.1422
     42 H18         2.3777   -1.1524   -0.2525 H         1 <0>         0.1208
     43 H19         2.0157   -3.5660    0.0736 H         1 <0>         0.1256
     44 H20         1.0886   -4.9300   -1.7549 H         1 <0>         0.1267
     45 H21         0.5166   -3.8789   -3.9069 H         1 <0>         0.1307
     46 H22         0.8707   -1.4636   -4.2301 H         1 <0>         0.1417
     47 H23        -0.5240    1.2054   -2.2234 H         1 <0>         0.1286
     48 H24        -2.3452    1.2009    0.2245 H         1 <0>         0.0495
     49 H25        -2.8499    1.0492   -1.4757 H         1 <0>         0.0590
     50 H26        -1.9038   -0.2490   -0.7090 H         1 <0>         0.0497
     51 H27         0.0313    3.5060   -1.0436 H         1 <0>         0.1218
     52 H28        -1.4106    3.3696   -2.0782 H         1 <0>         0.0549
     53 H29        -1.5752    3.2924   -0.3076 H         1 <0>         0.0664
@<TRIPOS>BOND
     1    1    2 1
     2    1   28 1
     3    1   29 1
     4    1   30 1
     5    2    3 1
     6    2   10 1
     7    2    4 1
     8    4    5 1
     9    4   31 1
    10    4   32 1
    11    5    6 1
    12    5   33 1
    13    5   34 1
    14    6    7 1
    15    6    8 1
    16    6   25 1
    17    8    9 1
    18    8   10 1
    19    8   11 1
    20   10   35 1
    21   10   36 1
    22   11   12 2
    23   11   13 1
    24   11   19 1
    25   13   18 ar
    26   13   14 ar
    27   14   15 ar
    28   14   37 1
    29   15   16 ar
    30   15   38 1
    31   16   17 ar
    32   16   39 1
    33   17   18 ar
    34   17   40 1
    35   18   41 1
    36   19   24 ar
    37   19   20 ar
    38   20   21 ar
    39   20   42 1
    40   21   22 ar
    41   21   43 1
    42   22   23 ar
    43   22   44 1
    44   23   24 ar
    45   23   45 1
    46   24   46 1
    47   25   26 1
    48   25   27 1
    49   25   47 1
    50   26   48 1
    51   26   49 1
    52   26   50 1
    53   27   51 1
    54   27   52 1
    55   27   53 1
@<TRIPOS>MOLECULE
ZINC19594578
   42    43     0     0     0
SMALL
USER_CHARGES

@<TRIPOS>ATOM
      1 C1          2.2963   -1.7884   -0.7145 C.3       1 <0>        -0.0923
      2 C2          1.4718   -3.0131   -0.4122 C.2       1 <0>         0.3012
      3 C3          0.0896   -2.9174   -0.4479 C.2       1 <0>        -0.3659
      4 C4         -0.7042   -4.1738   -0.1379 C.3       1 <0>         0.1078
      5 H1         -1.3383   -4.3964   -0.9961 H         1 <0>         0.0608
      6 C5          0.1142   -5.4119    0.1811 C.2       1 <0>        -0.3854
      7 C6         -0.4961   -6.6246    0.4812 C.2       1 <0>         0.4775
      8 O1         -1.8126   -6.7635    0.3291 O.3       1 <0>        -0.6205
      9 O2          0.2441   -7.6599    0.9261 O.3       1 <0>        -0.3341
     10 C7         -0.4487   -8.8759    1.2150 C.3       1 <0>         0.0364
     11 C8          1.4942   -5.2852    0.1607 C.2       1 <0>         0.2892
     12 N1          2.0880   -4.1435   -0.1272 N.2       1 <0>        -0.6421
     13 C9          2.3427   -6.4910    0.4723 C.3       1 <0>        -0.1054
     14 C10        -1.5971   -3.8874    1.0419 C.ar      1 <0>         0.0222
     15 C11        -1.0432   -3.6451    2.2853 C.ar      1 <0>        -0.1052
     16 C12        -1.8620   -3.3825    3.3673 C.ar      1 <0>        -0.0902
     17 C13        -3.2350   -3.3617    3.2062 C.ar      1 <0>        -0.1344
     18 C14        -3.7887   -3.6031    1.9630 C.ar      1 <0>        -0.0786
     19 C15        -2.9694   -3.8615    0.8798 C.ar      1 <0>        -0.0045
     20 N2         -3.5622   -4.1150   -0.4527 N.pl3     1 <0>         0.0414
     21 O3         -4.4639   -4.9114   -0.5715 O.2       1 <0>        -0.1804
     22 O4         -3.1445   -3.5256   -1.4221 O.3       1 <0>        -0.1243
     23 C16        -0.5445   -1.7188   -0.7549 C.2       1 <0>         0.4850
     24 O5          0.1786   -0.6320   -1.0224 O.2       1 <0>        -0.6277
     25 O6         -1.8910   -1.6562   -0.7820 O.3       1 <0>        -0.3126
     26 C17        -2.4753   -0.3927   -1.1050 C.3       1 <0>         0.0441
     27 H2          3.3553   -2.0378   -0.6477 H         1 <0>         0.0511
     28 H3          2.0687   -1.4364   -1.7207 H         1 <0>         0.0825
     29 H4          2.0613   -1.0052    0.0062 H         1 <0>         0.0805
     30 H5         -1.1939   -8.6944    1.9895 H         1 <0>         0.0514
     31 H6         -0.9429   -9.2357    0.3125 H         1 <0>         0.0531
     32 H7          0.2622   -9.6252    1.5632 H         1 <0>         0.0877
     33 H8          2.0952   -7.2976   -0.2177 H         1 <0>         0.0761
     34 H9          3.3960   -6.2316    0.3652 H         1 <0>         0.0659
     35 H10         2.1507   -6.8159    1.4949 H         1 <0>         0.0804
     36 H11         0.0294   -3.6613    2.4111 H         1 <0>         0.1319
     37 H12        -1.4294   -3.1939    4.3387 H         1 <0>         0.1296
     38 H13        -3.8749   -3.1572    4.0519 H         1 <0>         0.1333
     39 H14        -4.8612   -3.5872    1.8373 H         1 <0>         0.1319
     40 H15        -3.5617   -0.4808   -1.0919 H         1 <0>         0.0816
     41 H16        -2.1623    0.3504   -0.3716 H         1 <0>         0.0468
     42 H17        -2.1477   -0.0840   -2.0977 H         1 <0>         0.0541
@<TRIPOS>BOND
     1    1    2 1
     2    1   27 1
     3    1   28 1
     4    1   29 1
     5    2   12 1
     6    2    3 2
     7    3    4 1
     8    3   23 1
     9    4    5 1
    10    4    6 1
    11    4   14 1
    12    6    7 2
    13    6   11 1
    14    7    8 1
    15    7    9 1
    16    9   10 1
    17   10   30 1
    18   10   31 1
    19   10   32 1
    20   11   12 2
    21   11   13 1
    22   13   33 1
    23   13   34 1
    24   13   35 1
    25   14   19 ar
    26   14   15 ar
    27   15   16 ar
    28   15   36 1
    29   16   17 ar
    30   16   37 1
    31   17   18 ar
    32   17   38 1
    33   18   19 ar
    34   18   39 1
    35   19   20 1
    36   20   21 2
    37   20   22 1
    38   23   24 2
    39   23   25 1
    40   25   26 1
    41   26   40 1
    42   26   41 1
    43   26   42 1
@<TRIPOS>MOLECULE
ZINC05101601
   40    42     0     0     0
SMALL
USER_CHARGES
1-(6-hydroxy-4,7-dimethoxy-benzofuran-5-yl)-3-phenyl-prop-2-en-1-one
@<TRIPOS>ATOM
      1 C1          3.2133    4.6041   -1.1864 C.3       1 <0>         0.0320
      2 O1          2.5427    4.5742    0.0751 O.3       1 <0>        -0.3279
      3 C2          1.1888    4.4914    0.0511 C.ar      1 <0>         0.1923
      4 C3          0.5602    3.2449    0.0492 C.ar      1 <0>        -0.1475
      5 C4          1.0422    1.8573    0.0689 C.2       1 <0>        -0.1927
      6 C5         -0.0500    1.0828    0.0547 C.2       1 <0>         0.0127
      7 O2         -1.1582    1.8446    0.0224 O.3       1 <0>        -0.1789
      8 C6         -0.8415    3.1554    0.0239 C.ar      1 <0>         0.0757
      9 C7         -1.6081    4.3207    0.0007 C.ar      1 <0>         0.0772
     10 C8         -0.9927    5.5580    0.0025 C.ar      1 <0>         0.1595
     11 C9          0.4112    5.6552    0.0277 C.ar      1 <0>        -0.1962
     12 C10         1.0599    6.9767    0.0290 C.2       1 <0>         0.4566
     13 O3          1.4041    7.4871   -1.0221 O.2       1 <0>        -0.4496
     14 C11         1.2913    7.6774    1.2936 C.2       1 <0>        -0.2244
     15 C12         1.7849    8.9331    1.2885 C.2       1 <0>        -0.0078
     16 C13         2.0174    9.6374    2.5596 C.ar      1 <0>        -0.0838
     17 C14         1.7227    9.0106    3.7747 C.ar      1 <0>        -0.0959
     18 C15         1.9492    9.6749    4.9615 C.ar      1 <0>        -0.1227
     19 C16         2.4553   10.9631    4.9521 C.ar      1 <0>        -0.1045
     20 C17         2.7441   11.5923    3.7536 C.ar      1 <0>        -0.1240
     21 C18         2.5290   10.9392    2.5585 C.ar      1 <0>        -0.0924
     22 O4         -1.7474    6.6875   -0.0207 O.3       1 <0>        -0.4694
     23 O5         -2.9670    4.2386   -0.0238 O.3       1 <0>        -0.3141
     24 C19        -3.5909    4.1896   -1.3085 C.3       1 <0>         0.0302
     25 H1          2.8769    5.4703   -1.7562 H         1 <0>         0.0566
     26 H2          4.2891    4.6712   -1.0245 H         1 <0>         0.1023
     27 H3          2.9853    3.6937   -1.7408 H         1 <0>         0.0526
     28 H4          2.0706    1.5281    0.0908 H         1 <0>         0.1661
     29 H5         -0.0423    0.0028    0.0633 H         1 <0>         0.2164
     30 H6          1.0668    7.1892    2.2304 H         1 <0>         0.1356
     31 H7          2.0093    9.4213    0.3517 H         1 <0>         0.1351
     32 H8          1.3229    8.0074    3.7835 H         1 <0>         0.1289
     33 H9          1.7270    9.1904    5.9008 H         1 <0>         0.1273
     34 H10         2.6260   11.4800    5.8849 H         1 <0>         0.1256
     35 H11         3.1388   12.5976    3.7545 H         1 <0>         0.1273
     36 H12         2.7552   11.4313    1.6241 H         1 <0>         0.1284
     37 H13        -1.9495    7.0072   -0.9107 H         1 <0>         0.3960
     38 H14        -3.3418    5.0913   -1.8680 H         1 <0>         0.0465
     39 H15        -3.2348    3.3146   -1.8522 H         1 <0>         0.0488
     40 H16        -4.6720    4.1256   -1.1852 H         1 <0>         0.1020
@<TRIPOS>BOND
     1    1    2 1
     2    1   25 1
     3    1   26 1
     4    1   27 1
     5    2    3 1
     6    3   11 ar
     7    3    4 ar
     8    4    8 ar
     9    4    5 1
    10    5    6 2
    11    5   28 1
    12    6    7 1
    13    6   29 1
    14    7    8 1
    15    8    9 ar
    16    9   10 ar
    17    9   23 1
    18   10   11 ar
    19   10   22 1
    20   11   12 1
    21   12   13 2
    22   12   14 1
    23   14   15 2
    24   14   30 1
    25   15   16 1
    26   15   31 1
    27   16   21 ar
    28   16   17 ar
    29   17   18 ar
    30   17   32 1
    31   18   19 ar
    32   18   33 1
    33   19   20 ar
    34   19   34 1
    35   20   21 ar
    36   20   35 1
    37   21   36 1
    38   22   37 1
    39   23   24 1
    40   24   38 1
    41   24   39 1
    42   24   40 1
@<TRIPOS>MOLECULE
ZINC05882219
   50    52     0     0     0
SMALL
USER_CHARGES

@<TRIPOS>ATOM
      1 C1         -0.3997    1.3834    0.3135 C.3       1 <0>        -0.1262
      2 C2         -0.2901   -0.1179    0.2430 C.ar      1 <0>        -0.0245
      3 C3         -0.2751   -0.7529   -0.9848 C.ar      1 <0>        -0.1427
      4 C4         -0.1745   -2.1301   -1.0495 C.ar      1 <0>        -0.0083
      5 C5         -0.0885   -2.8722    0.1136 C.ar      1 <0>        -0.6823
      6 C6         -0.1026   -2.2371    1.3414 C.ar      1 <0>        -0.0125
      7 C7         -0.1989   -0.8596    1.4059 C.ar      1 <0>        -0.1426
      8 S1          0.0385   -4.6277    0.0312 S.o2      1 <0>         2.6880
      9 O1         -0.4438   -5.1284    1.2705 O.2       1 <0>        -0.9495
     10 O2         -0.5191   -5.0171   -1.2165 O.2       1 <0>        -0.9440
     11 N1          1.6509   -4.9994   -0.0343 N.pl3     1 <0>        -1.0399
     12 C8          2.4925   -4.6248    1.0049 C.ar      1 <0>         0.2242
     13 C9          2.0332   -4.6412    2.3162 C.ar      1 <0>        -0.1893
     14 C10         2.8714   -4.2691    3.3468 C.ar      1 <0>        -0.0560
     15 C11         4.1748   -3.8769    3.0847 C.ar      1 <0>        -0.1440
     16 C12         4.6481   -3.8543    1.7913 C.ar      1 <0>        -0.0611
     17 C13         3.8133   -4.2333    0.7368 C.ar      1 <0>        -0.1674
     18 C14         4.3154   -4.2172   -0.6494 C.2       1 <0>         0.5651
     19 O3          3.5844   -4.5438   -1.5646 O.2       1 <0>        -0.5361
     20 N2          5.5845   -3.8405   -0.9021 N.am      1 <0>        -0.7256
     21 C15         6.0834   -3.8245   -2.2795 C.3       1 <0>         0.1241
     22 C16         7.5419   -3.3625   -2.2883 C.3       1 <0>        -0.0916
     23 C17         8.0551   -3.3460   -3.7051 C.ar      1 <0>        -0.0855
     24 C18         8.6458   -4.4758   -4.2395 C.ar      1 <0>        -0.1134
     25 C19         9.1165   -4.4607   -5.5391 C.ar      1 <0>        -0.1176
     26 C20         8.9961   -3.3160   -6.3046 C.ar      1 <0>        -0.1197
     27 C21         8.4046   -2.1865   -5.7705 C.ar      1 <0>        -0.1179
     28 C22         7.9300   -2.2029   -4.4723 C.ar      1 <0>        -0.1137
     29 H1          0.5982    1.8217    0.2988 H         1 <0>         0.0800
     30 H2         -0.9688    1.7468   -0.5422 H         1 <0>         0.0739
     31 H3         -0.9079    1.6678    1.2349 H         1 <0>         0.0741
     32 H4         -0.3423   -0.1731   -1.8935 H         1 <0>         0.1340
     33 H5         -0.1635   -2.6263   -2.0087 H         1 <0>         0.1412
     34 H6         -0.0358   -2.8170    2.2500 H         1 <0>         0.1404
     35 H7         -0.2061   -0.3632    2.3650 H         1 <0>         0.1342
     36 H8          2.0075   -5.4788   -0.7984 H         1 <0>         0.4402
     37 H9          1.0189   -4.9452    2.5288 H         1 <0>         0.1691
     38 H10         2.5097   -4.2832    4.3644 H         1 <0>         0.1376
     39 H11         4.8226   -3.5872    3.8989 H         1 <0>         0.1337
     40 H12         5.6644   -3.5475    1.5929 H         1 <0>         0.1300
     41 H13         6.1676   -3.5800   -0.1720 H         1 <0>         0.4012
     42 H14         6.0173   -4.8273   -2.7015 H         1 <0>         0.0734
     43 H15         5.4814   -3.1389   -2.8759 H         1 <0>         0.0726
     44 H16         7.6079   -2.3597   -1.8663 H         1 <0>         0.0803
     45 H17         8.1438   -4.0480   -1.6918 H         1 <0>         0.0808
     46 H18         8.7398   -5.3702   -3.6414 H         1 <0>         0.1223
     47 H19         9.5786   -5.3432   -5.9563 H         1 <0>         0.1234
     48 H20         9.3645   -3.3040   -7.3197 H         1 <0>         0.1226
     49 H21         8.3108   -1.2920   -6.3685 H         1 <0>         0.1231
     50 H22         7.4645   -1.3216   -4.0563 H         1 <0>         0.1218
@<TRIPOS>BOND
     1    1    2 1
     2    1   29 1
     3    1   30 1
     4    1   31 1
     5    2    7 ar
     6    2    3 ar
     7    3    4 ar
     8    3   32 1
     9    4    5 ar
    10    4   33 1
    11    5    6 ar
    12    5    8 1
    13    6    7 ar
    14    6   34 1
    15    7   35 1
    16    8    9 2
    17    8   10 2
    18    8   11 1
    19   11   12 1
    20   11   36 1
    21   12   17 ar
    22   12   13 ar
    23   13   14 ar
    24   13   37 1
    25   14   15 ar
    26   14   38 1
    27   15   16 ar
    28   15   39 1
    29   16   17 ar
    30   16   40 1
    31   17   18 1
    32   18   19 2
    33   18   20 am
    34   20   21 1
    35   20   41 1
    36   21   22 1
    37   21   42 1
    38   21   43 1
    39   22   23 1
    40   22   44 1
    41   22   45 1
    42   23   28 ar
    43   23   24 ar
    44   24   25 ar
    45   24   46 1
    46   25   26 ar
    47   25   47 1
    48   26   27 ar
    49   26   48 1
    50   27   28 ar
    51   27   49 1
    52   28   50 1
@<TRIPOS>MOLECULE
ZINC05882219
   49    51     0     0     0
SMALL
USER_CHARGES

@<TRIPOS>ATOM
      1 C1         -0.0184    1.5028    0.0103 C.3       1 <0>        -0.1150
      2 C2          0.0021   -0.0041    0.0020 C.ar      1 <0>        -0.0541
      3 C3          0.0057   -0.6887   -1.1989 C.ar      1 <0>        -0.1478
      4 C4          0.0245   -2.0709   -1.2065 C.ar      1 <0>        -0.0187
      5 C5          0.0400   -2.7685   -0.0132 C.ar      1 <0>        -0.6137
      6 C6          0.0373   -2.0839    1.1877 C.ar      1 <0>        -0.0187
      7 C7          0.0229   -0.7016    1.1953 C.ar      1 <0>        -0.1478
      8 S1          0.0628   -4.5303   -0.0229 S.o2      1 <0>         2.5922
      9 O1         -0.4759   -4.9503    1.2232 O.2       1 <0>        -1.0309
     10 O2         -0.4897   -4.9367   -1.2674 O.2       1 <0>        -1.0310
     11 N1          1.6509   -4.9994   -0.0343 N.2       1 <0>        -1.0286
     12 C8          1.9760   -6.3495   -0.0434 C.ar      1 <0>         0.3276
     13 C9          0.9717   -7.3098   -0.0488 C.ar      1 <0>        -0.2679
     14 C10         1.2973   -8.6503   -0.0584 C.ar      1 <0>        -0.0423
     15 C11         2.6245   -9.0503   -0.0626 C.ar      1 <0>        -0.2392
     16 C12         3.6339   -8.1130   -0.0573 C.ar      1 <0>        -0.0407
     17 C13         3.3208   -6.7512   -0.0530 C.ar      1 <0>        -0.2204
     18 C14         4.3962   -5.7427   -0.0535 C.2       1 <0>         0.5627
     19 O3          4.1194   -4.5587   -0.0455 O.2       1 <0>        -0.4987
     20 N2          5.6862   -6.1332   -0.0628 N.am      1 <0>        -0.7523
     21 C15         6.7548   -5.1311   -0.0632 C.3       1 <0>         0.1331
     22 C16         8.1135   -5.8344   -0.0746 C.3       1 <0>        -0.0928
     23 C17         9.2128   -4.8036   -0.0750 C.ar      1 <0>        -0.0751
     24 C18         9.7064   -4.3201   -1.2723 C.ar      1 <0>        -0.1142
     25 C19        10.7148   -3.3745   -1.2727 C.ar      1 <0>        -0.1198
     26 C20        11.2292   -2.9121   -0.0759 C.ar      1 <0>        -0.1268
     27 C21        10.7349   -3.3949    1.1214 C.ar      1 <0>        -0.1199
     28 C22         9.7236   -4.3373    1.1219 C.ar      1 <0>        -0.1142
     29 H1          1.0042    1.8801    0.0026 H         1 <0>         0.0724
     30 H2         -0.5455    1.8639   -0.8728 H         1 <0>         0.0663
     31 H3         -0.5286    1.8543    0.9071 H         1 <0>         0.0662
     32 H4         -0.0064   -0.1436   -2.1312 H         1 <0>         0.1243
     33 H5          0.0266   -2.6057   -2.1448 H         1 <0>         0.1349
     34 H6          0.0491   -2.6289    2.1200 H         1 <0>         0.1349
     35 H7          0.0245   -0.1667    2.1335 H         1 <0>         0.1243
     36 H8         -0.0648   -7.0064   -0.0452 H         1 <0>         0.1024
     37 H9          0.5132   -9.3930   -0.0623 H         1 <0>         0.1054
     38 H10         2.8684  -10.1023   -0.0697 H         1 <0>         0.1058
     39 H11         4.6663   -8.4303   -0.0603 H         1 <0>         0.1058
     40 H12         5.9070   -7.0777   -0.0691 H         1 <0>         0.3902
     41 H13         6.6634   -4.5029   -0.9493 H         1 <0>         0.0611
     42 H14         6.6733   -4.5126    0.8306 H         1 <0>         0.0611
     43 H15         8.2049   -6.4626    0.8115 H         1 <0>         0.0778
     44 H16         8.1950   -6.4529   -0.9684 H         1 <0>         0.0779
     45 H17         9.3045   -4.6814   -2.2074 H         1 <0>         0.1226
     46 H18        11.1009   -2.9973   -2.2082 H         1 <0>         0.1203
     47 H19        12.0175   -2.1739   -0.0762 H         1 <0>         0.1187
     48 H20        11.1371   -3.0339    2.0564 H         1 <0>         0.1202
     49 H21         9.3349   -4.7118    2.0573 H         1 <0>         0.1226
@<TRIPOS>BOND
     1    1    2 1
     2    1   29 1
     3    1   30 1
     4    1   31 1
     5    2    7 ar
     6    2    3 ar
     7    3    4 ar
     8    3   32 1
     9    4    5 ar
    10    4   33 1
    11    5    6 ar
    12    5    8 1
    13    6    7 ar
    14    6   34 1
    15    7   35 1
    16    8    9 2
    17    8   10 2
    18    8   11 1
    19   11   12 1
    20   12   17 ar
    21   12   13 ar
    22   13   14 ar
    23   13   36 1
    24   14   15 ar
    25   14   37 1
    26   15   16 ar
    27   15   38 1
    28   16   17 ar
    29   16   39 1
    30   17   18 1
    31   18   19 2
    32   18   20 am
    33   20   21 1
    34   20   40 1
    35   21   22 1
    36   21   41 1
    37   21   42 1
    38   22   23 1
    39   22   43 1
    40   22   44 1
    41   23   28 ar
    42   23   24 ar
    43   24   25 ar
    44   24   45 1
    45   25   26 ar
    46   25   46 1
    47   26   27 ar
    48   26   47 1
    49   27   28 ar
    50   27   48 1
    51   28   49 1
@<TRIPOS>MOLECULE
ZINC13829441
   44    47     0     0     0
SMALL
USER_CHARGES

@<TRIPOS>ATOM
      1 C1         -0.0167    1.3784    0.0096 C.ar      1 <0>        -0.1582
      2 C2          1.1698    2.0883    0.0021 C.ar      1 <0>        -0.0802
      3 C3          2.3773    1.4175   -0.0134 C.ar      1 <0>        -0.1529
      4 C4          2.3989    0.0304   -0.0210 C.ar      1 <0>         0.1284
      5 C5          1.2070   -0.6796   -0.0130 C.ar      1 <0>        -0.2099
      6 C6          0.0021   -0.0041    0.0020 C.ar      1 <0>        -0.0804
      7 O1          3.5855   -0.6319   -0.0368 O.3       1 <0>        -0.3159
      8 C7          3.5315   -2.0598   -0.0438 C.3       1 <0>         0.0609
      9 C8          4.9536   -2.6239   -0.0615 C.3       1 <0>        -0.1169
     10 C9          4.8957   -4.1528   -0.0690 C.3       1 <0>        -0.1159
     11 C10         6.3178   -4.7169   -0.0867 C.3       1 <0>         0.0668
     12 O2          6.2638   -6.1449   -0.0937 O.3       1 <0>        -0.3252
     13 C11         7.4481   -6.8058   -0.1094 C.ar      1 <0>         0.2185
     14 C12         8.0578   -7.1399   -1.3257 C.ar      1 <0>        -0.1924
     15 C13         7.4325   -6.7842   -2.5997 C.2       1 <0>         0.0104
     16 C14         8.0700   -7.1337   -3.7481 C.2       1 <0>        -0.2463
     17 C15         9.2992   -7.8196   -3.6866 C.2       1 <0>         0.5115
     18 O3          9.8594   -8.1260   -4.7237 O.2       1 <0>        -0.4543
     19 O4          9.8695   -8.1440   -2.5158 O.3       1 <0>        -0.2668
     20 C16         9.2901   -7.8271   -1.3354 C.ar      1 <0>         0.1847
     21 C17         9.8993   -8.1727   -0.1433 C.ar      1 <0>        -0.1335
     22 C18         9.3028   -7.8465    1.0684 C.ar      1 <0>         0.1227
     23 C19         8.0766   -7.1561    1.0844 C.ar      1 <0>        -0.1719
     24 C20         7.7473   -6.9722    2.5045 C.2       1 <0>        -0.1910
     25 C21         8.7492   -7.5308    3.1946 C.2       1 <0>         0.0149
     26 O5          9.6599   -8.0524    2.3526 O.3       1 <0>        -0.1849
     27 H1         -0.9596    1.9047    0.0260 H         1 <0>         0.1246
     28 H2          1.1525    3.1682    0.0080 H         1 <0>         0.1301
     29 H3          3.3038    1.9724   -0.0200 H         1 <0>         0.1305
     30 H4          1.2211   -1.7595   -0.0193 H         1 <0>         0.1271
     31 H5         -0.9260   -0.5563    0.0082 H         1 <0>         0.1253
     32 H6          3.0134   -2.4083    0.8497 H         1 <0>         0.0649
     33 H7          2.9951   -2.3988   -0.9302 H         1 <0>         0.0650
     34 H8          5.4716   -2.2755   -0.9550 H         1 <0>         0.0793
     35 H9          5.4899   -2.2850    0.8248 H         1 <0>         0.0792
     36 H10         4.3777   -4.5012    0.8245 H         1 <0>         0.0806
     37 H11         4.3594   -4.4918   -0.9554 H         1 <0>         0.0800
     38 H12         6.8358   -4.3685   -0.9802 H         1 <0>         0.0625
     39 H13         6.8542   -4.3780    0.7997 H         1 <0>         0.0644
     40 H14         6.4894   -6.2585   -2.6268 H         1 <0>         0.1558
     41 H15         7.6353   -6.8865   -4.7054 H         1 <0>         0.1683
     42 H16        10.8425   -8.6987   -0.1540 H         1 <0>         0.1582
     43 H17         6.8732   -6.4844    2.9098 H         1 <0>         0.1651
     44 H18         8.8129   -7.5658    4.2722 H         1 <0>         0.2168
@<TRIPOS>BOND
     1    1    6 ar
     2    1    2 ar
     3    1   27 1
     4    2    3 ar
     5    2   28 1
     6    3    4 ar
     7    3   29 1
     8    4    5 ar
     9    4    7 1
    10    5    6 ar
    11    5   30 1
    12    6   31 1
    13    7    8 1
    14    8    9 1
    15    8   32 1
    16    8   33 1
    17    9   10 1
    18    9   34 1
    19    9   35 1
    20   10   11 1
    21   10   36 1
    22   10   37 1
    23   11   12 1
    24   11   38 1
    25   11   39 1
    26   12   13 1
    27   13   23 ar
    28   13   14 ar
    29   14   20 ar
    30   14   15 1
    31   15   16 2
    32   15   40 1
    33   16   17 1
    34   16   41 1
    35   17   18 2
    36   17   19 1
    37   19   20 1
    38   20   21 ar
    39   21   22 ar
    40   21   42 1
    41   22   26 1
    42   22   23 ar
    43   23   24 1
    44   24   25 2
    45   24   43 1
    46   25   26 1
    47   25   44 1
@<TRIPOS>MOLECULE
ZINC43206250
   54    56     0     0     0
SMALL
USER_CHARGES

@<TRIPOS>ATOM
      1 C1         -0.0173    1.4248    0.0099 C.3       1 <0>         0.0265
      2 O1          0.0021   -0.0041    0.0020 O.3       1 <0>        -0.3182
      3 C2          0.6058   -0.6071   -1.0557 C.ar      1 <0>         0.1265
      4 C3          1.1730    0.1607   -2.0624 C.ar      1 <0>        -0.2059
      5 C4          1.7865   -0.4547   -3.1363 C.ar      1 <0>        -0.0709
      6 C5          1.8352   -1.8346   -3.2086 C.ar      1 <0>        -0.1219
      7 C6          1.2702   -2.6021   -2.2068 C.ar      1 <0>        -0.0734
      8 C7          0.6609   -1.9915   -1.1277 C.ar      1 <0>        -0.1505
      9 C8          2.5046   -2.5033   -4.3815 C.3       1 <0>        -0.0933
     10 C9          3.9857   -2.7227   -4.0663 C.3       1 <0>         0.1572
     11 N1          4.6365   -3.3728   -5.2065 N.am      1 <0>        -0.6137
     12 C10         4.7519   -4.8250   -5.4075 C.3       1 <0>         0.1735
     13 H1          3.7645   -5.2801   -5.4849 H         1 <0>         0.1094
     14 C11         5.5129   -4.9538   -6.7413 C.3       1 <0>         0.0977
     15 N2          5.7455   -3.5605   -7.1502 N.am      1 <0>        -0.4252
     16 C12         5.2159   -2.7389   -6.2344 C.2       1 <0>         0.6980
     17 O2          5.2606   -1.5273   -6.3259 O.2       1 <0>        -0.5638
     18 N3          6.4102   -3.1567   -8.3155 N.pl3     1 <0>        -0.8666
     19 S1          5.5574   -2.9186   -9.7149 S.o2      1 <0>         2.6109
     20 O3          6.5154   -2.4328  -10.6452 O.2       1 <0>        -0.9411
     21 O4          4.8849   -4.1493   -9.9436 O.2       1 <0>        -0.9454
     22 C13         4.3591   -1.6168   -9.3149 C.3       1 <0>        -0.6549
     23 C14         5.5360   -5.4537   -4.2847 C.ar      1 <0>        -0.1487
     24 C15         6.6460   -4.8081   -3.7721 C.ar      1 <0>        -0.0536
     25 C16         7.3669   -5.3826   -2.7431 C.ar      1 <0>        -0.1512
     26 C17         6.9759   -6.6082   -2.2239 C.ar      1 <0>         0.1390
     27 C18         5.8615   -7.2538   -2.7396 C.ar      1 <0>        -0.2082
     28 C19         5.1410   -6.6726   -3.7651 C.ar      1 <0>        -0.0571
     29 O5          7.6836   -7.1757   -1.2119 O.3       1 <0>        -0.3163
     30 C20         7.2232   -8.4385   -0.7268 C.3       1 <0>         0.0257
     31 H2          1.0053    1.8021    0.0021 H         1 <0>         0.0562
     32 H3         -0.5445    1.7859   -0.8732 H         1 <0>         0.0560
     33 H4         -0.5275    1.7763    0.9067 H         1 <0>         0.1012
     34 H5          1.1347    1.2385   -2.0068 H         1 <0>         0.1283
     35 H6          2.2283    0.1425   -3.9203 H         1 <0>         0.1261
     36 H7          1.3092   -3.6798   -2.2657 H         1 <0>         0.1292
     37 H8          0.2237   -2.5913   -0.3432 H         1 <0>         0.1309
     38 H9          2.0276   -3.4646   -4.5726 H         1 <0>         0.0763
     39 H10         2.4108   -1.8695   -5.2632 H         1 <0>         0.0771
     40 H11         4.4627   -1.7615   -3.8752 H         1 <0>         0.0892
     41 H12         4.0795   -3.3566   -3.1846 H         1 <0>         0.0884
     42 H13         6.4602   -5.4722   -6.5928 H         1 <0>         0.0954
     43 H14         4.9034   -5.4729   -7.4810 H         1 <0>         0.1049
     44 H15         7.3699   -3.0165   -8.3026 H         1 <0>         0.4233
     45 H16         4.8903   -0.7158   -9.0082 H         1 <0>         0.1373
     46 H17         3.7520   -1.3993  -10.1936 H         1 <0>         0.1321
     47 H18         3.7150   -1.9531   -8.5024 H         1 <0>         0.1257
     48 H19         6.9500   -3.8540   -4.1767 H         1 <0>         0.1255
     49 H20         8.2342   -4.8782   -2.3435 H         1 <0>         0.1322
     50 H21         5.5551   -8.2080   -2.3371 H         1 <0>         0.1319
     51 H22         4.2709   -7.1727   -4.1640 H         1 <0>         0.1308
     52 H23         7.8754   -8.7784    0.0776 H         1 <0>         0.1023
     53 H24         6.2058   -8.3339   -0.3500 H         1 <0>         0.0575
     54 H25         7.2372   -9.1664   -1.5381 H         1 <0>         0.0576
@<TRIPOS>BOND
     1    1    2 1
     2    1   31 1
     3    1   32 1
     4    1   33 1
     5    2    3 1
     6    3    8 ar
     7    3    4 ar
     8    4    5 ar
     9    4   34 1
    10    5    6 ar
    11    5   35 1
    12    6    7 ar
    13    6    9 1
    14    7    8 ar
    15    7   36 1
    16    8   37 1
    17    9   10 1
    18    9   38 1
    19    9   39 1
    20   10   11 1
    21   10   40 1
    22   10   41 1
    23   11   16 am
    24   11   12 1
    25   12   13 1
    26   12   14 1
    27   12   23 1
    28   14   15 1
    29   14   42 1
    30   14   43 1
    31   15   16 am
    32   15   18 1
    33   16   17 2
    34   18   19 1
    35   18   44 1
    36   19   20 2
    37   19   21 2
    38   19   22 1
    39   22   45 1
    40   22   46 1
    41   22   47 1
    42   23   28 ar
    43   23   24 ar
    44   24   25 ar
    45   24   48 1
    46   25   26 ar
    47   25   49 1
    48   26   27 ar
    49   26   29 1
    50   27   28 ar
    51   27   50 1
    52   28   51 1
    53   29   30 1
    54   30   52 1
    55   30   53 1
    56   30   54 1
@<TRIPOS>MOLECULE
ZINC05121035
   47    49     0     0     0
SMALL
USER_CHARGES

@<TRIPOS>ATOM
      1 C1         -0.3997    1.3834    0.3135 C.3       1 <0>        -0.1262
      2 C2         -0.2901   -0.1179    0.2430 C.ar      1 <0>        -0.0246
      3 C3         -0.2751   -0.7529   -0.9848 C.ar      1 <0>        -0.1428
      4 C4         -0.1745   -2.1301   -1.0495 C.ar      1 <0>        -0.0083
      5 C5         -0.0885   -2.8722    0.1136 C.ar      1 <0>        -0.6823
      6 C6         -0.1026   -2.2371    1.3414 C.ar      1 <0>        -0.0124
      7 C7         -0.1989   -0.8596    1.4059 C.ar      1 <0>        -0.1425
      8 S1          0.0385   -4.6277    0.0312 S.o2      1 <0>         2.6881
      9 O1         -0.4438   -5.1284    1.2705 O.2       1 <0>        -0.9495
     10 O2         -0.5191   -5.0171   -1.2165 O.2       1 <0>        -0.9441
     11 N1          1.6509   -4.9994   -0.0343 N.pl3     1 <0>        -1.0398
     12 C8          2.4925   -4.6248    1.0049 C.ar      1 <0>         0.2244
     13 C9          2.0332   -4.6412    2.3162 C.ar      1 <0>        -0.1894
     14 C10         2.8714   -4.2691    3.3468 C.ar      1 <0>        -0.0558
     15 C11         4.1748   -3.8769    3.0847 C.ar      1 <0>        -0.1439
     16 C12         4.6481   -3.8543    1.7913 C.ar      1 <0>        -0.0606
     17 C13         3.8133   -4.2333    0.7368 C.ar      1 <0>        -0.1670
     18 C14         4.3154   -4.2172   -0.6494 C.2       1 <0>         0.5653
     19 O3          3.5844   -4.5438   -1.5646 O.2       1 <0>        -0.5370
     20 N2          5.5845   -3.8405   -0.9021 N.am      1 <0>        -0.7201
     21 C15         6.0834   -3.8245   -2.2795 C.3       1 <0>         0.1613
     22 C16         7.5200   -3.3694   -2.2881 C.ar      1 <0>        -0.1137
     23 C17         7.8183   -2.0246   -2.4038 C.ar      1 <0>        -0.1004
     24 C18         9.1361   -1.6072   -2.4118 C.ar      1 <0>        -0.1212
     25 C19        10.1555   -2.5345   -2.3036 C.ar      1 <0>        -0.1098
     26 C20         9.8572   -3.8792   -2.1871 C.ar      1 <0>        -0.1210
     27 C21         8.5393   -4.2963   -2.1748 C.ar      1 <0>        -0.0999
     28 H1          0.5982    1.8217    0.2988 H         1 <0>         0.0799
     29 H2         -0.9688    1.7468   -0.5422 H         1 <0>         0.0739
     30 H3         -0.9079    1.6678    1.2349 H         1 <0>         0.0741
     31 H4         -0.3423   -0.1731   -1.8935 H         1 <0>         0.1340
     32 H5         -0.1635   -2.6263   -2.0087 H         1 <0>         0.1412
     33 H6         -0.0358   -2.8170    2.2500 H         1 <0>         0.1404
     34 H7         -0.2061   -0.3632    2.3650 H         1 <0>         0.1341
     35 H8          2.0075   -5.4788   -0.7984 H         1 <0>         0.4402
     36 H9          1.0189   -4.9452    2.5288 H         1 <0>         0.1692
     37 H10         2.5097   -4.2832    4.3644 H         1 <0>         0.1376
     38 H11         4.8226   -3.5872    3.8989 H         1 <0>         0.1336
     39 H12         5.6644   -3.5475    1.5929 H         1 <0>         0.1295
     40 H13         6.1676   -3.5800   -0.1720 H         1 <0>         0.4023
     41 H14         6.0173   -4.8273   -2.7015 H         1 <0>         0.0803
     42 H15         5.4814   -3.1389   -2.8759 H         1 <0>         0.0795
     43 H16         7.0218   -1.3001   -2.4883 H         1 <0>         0.1239
     44 H17         9.3692   -0.5566   -2.5028 H         1 <0>         0.1251
     45 H18        11.1851   -2.2084   -2.3106 H         1 <0>         0.1245
     46 H19        10.6537   -4.6037   -2.1029 H         1 <0>         0.1255
     47 H20         8.3061   -5.3465   -2.0800 H         1 <0>         0.1246
@<TRIPOS>BOND
     1    1    2 1
     2    1   28 1
     3    1   29 1
     4    1   30 1
     5    2    7 ar
     6    2    3 ar
     7    3    4 ar
     8    3   31 1
     9    4    5 ar
    10    4   32 1
    11    5    6 ar
    12    5    8 1
    13    6    7 ar
    14    6   33 1
    15    7   34 1
    16    8    9 2
    17    8   10 2
    18    8   11 1
    19   11   12 1
    20   11   35 1
    21   12   17 ar
    22   12   13 ar
    23   13   14 ar
    24   13   36 1
    25   14   15 ar
    26   14   37 1
    27   15   16 ar
    28   15   38 1
    29   16   17 ar
    30   16   39 1
    31   17   18 1
    32   18   19 2
    33   18   20 am
    34   20   21 1
    35   20   40 1
    36   21   22 1
    37   21   41 1
    38   21   42 1
    39   22   27 ar
    40   22   23 ar
    41   23   24 ar
    42   23   43 1
    43   24   25 ar
    44   24   44 1
    45   25   26 ar
    46   25   45 1
    47   26   27 ar
    48   26   46 1
    49   27   47 1
@<TRIPOS>MOLECULE
ZINC05121035
   46    48     0     0     0
SMALL
USER_CHARGES

@<TRIPOS>ATOM
      1 C1         -0.0184    1.5028    0.0103 C.3       1 <0>        -0.1150
      2 C2          0.0021   -0.0041    0.0020 C.ar      1 <0>        -0.0541
      3 C3          0.0057   -0.6887   -1.1989 C.ar      1 <0>        -0.1479
      4 C4          0.0245   -2.0709   -1.2065 C.ar      1 <0>        -0.0187
      5 C5          0.0400   -2.7685   -0.0132 C.ar      1 <0>        -0.6137
      6 C6          0.0373   -2.0839    1.1877 C.ar      1 <0>        -0.0187
      7 C7          0.0229   -0.7016    1.1953 C.ar      1 <0>        -0.1478
      8 S1          0.0628   -4.5303   -0.0229 S.o2      1 <0>         2.5922
      9 O1         -0.4759   -4.9503    1.2232 O.2       1 <0>        -1.0309
     10 O2         -0.4897   -4.9367   -1.2674 O.2       1 <0>        -1.0310
     11 N1          1.6509   -4.9994   -0.0343 N.2       1 <0>        -1.0287
     12 C8          1.9760   -6.3495   -0.0434 C.ar      1 <0>         0.3281
     13 C9          0.9717   -7.3098   -0.0488 C.ar      1 <0>        -0.2680
     14 C10         1.2973   -8.6503   -0.0584 C.ar      1 <0>        -0.0419
     15 C11         2.6245   -9.0503   -0.0626 C.ar      1 <0>        -0.2388
     16 C12         3.6339   -8.1130   -0.0573 C.ar      1 <0>        -0.0401
     17 C13         3.3208   -6.7512   -0.0530 C.ar      1 <0>        -0.2200
     18 C14         4.3962   -5.7427   -0.0535 C.2       1 <0>         0.5634
     19 O3          4.1194   -4.5587   -0.0455 O.2       1 <0>        -0.4991
     20 N2          5.6862   -6.1332   -0.0628 N.am      1 <0>        -0.7465
     21 C15         6.7548   -5.1311   -0.0632 C.3       1 <0>         0.1650
     22 C16         8.0931   -5.8238   -0.0744 C.ar      1 <0>        -0.0973
     23 C17         8.7109   -6.1532    1.1176 C.ar      1 <0>        -0.1023
     24 C18         9.9384   -6.7886    1.1073 C.ar      1 <0>        -0.1236
     25 C19        10.5480   -7.0952   -0.0949 C.ar      1 <0>        -0.1201
     26 C20         9.9298   -6.7667   -1.2869 C.ar      1 <0>        -0.1237
     27 C21         8.7002   -6.1350   -1.2767 C.ar      1 <0>        -0.1022
     28 H1          1.0042    1.8801    0.0026 H         1 <0>         0.0724
     29 H2         -0.5455    1.8639   -0.8728 H         1 <0>         0.0662
     30 H3         -0.5286    1.8543    0.9071 H         1 <0>         0.0662
     31 H4         -0.0064   -0.1436   -2.1312 H         1 <0>         0.1243
     32 H5          0.0266   -2.6057   -2.1448 H         1 <0>         0.1349
     33 H6          0.0491   -2.6289    2.1200 H         1 <0>         0.1349
     34 H7          0.0245   -0.1667    2.1335 H         1 <0>         0.1243
     35 H8         -0.0648   -7.0064   -0.0452 H         1 <0>         0.1025
     36 H9          0.5132   -9.3930   -0.0623 H         1 <0>         0.1055
     37 H10         2.8684  -10.1023   -0.0697 H         1 <0>         0.1057
     38 H11         4.6663   -8.4303   -0.0603 H         1 <0>         0.1054
     39 H12         5.9070   -7.0777   -0.0691 H         1 <0>         0.3915
     40 H13         6.6634   -4.5029   -0.9493 H         1 <0>         0.0689
     41 H14         6.6733   -4.5126    0.8306 H         1 <0>         0.0689
     42 H15         8.2346   -5.9137    2.0568 H         1 <0>         0.1242
     43 H16        10.4214   -7.0453    2.0385 H         1 <0>         0.1210
     44 H17        11.5074   -7.5910   -0.1029 H         1 <0>         0.1192
     45 H18        10.4062   -7.0059   -2.2262 H         1 <0>         0.1210
     46 H19         8.2155   -5.8817   -2.2079 H         1 <0>         0.1242
@<TRIPOS>BOND
     1    1    2 1
     2    1   28 1
     3    1   29 1
     4    1   30 1
     5    2    7 ar
     6    2    3 ar
     7    3    4 ar
     8    3   31 1
     9    4    5 ar
    10    4   32 1
    11    5    6 ar
    12    5    8 1
    13    6    7 ar
    14    6   33 1
    15    7   34 1
    16    8    9 2
    17    8   10 2
    18    8   11 1
    19   11   12 1
    20   12   17 ar
    21   12   13 ar
    22   13   14 ar
    23   13   35 1
    24   14   15 ar
    25   14   36 1
    26   15   16 ar
    27   15   37 1
    28   16   17 ar
    29   16   38 1
    30   17   18 1
    31   18   19 2
    32   18   20 am
    33   20   21 1
    34   20   39 1
    35   21   22 1
    36   21   40 1
    37   21   41 1
    38   22   27 ar
    39   22   23 ar
    40   23   24 ar
    41   23   42 1
    42   24   25 ar
    43   24   43 1
    44   25   26 ar
    45   25   44 1
    46   26   27 ar
    47   26   45 1
    48   27   46 1
@<TRIPOS>MOLECULE
ZINC00403582
   49    52     0     0     0
SMALL
USER_CHARGES

@<TRIPOS>ATOM
      1 C1          0.8724    1.1631   -0.3363 C.3       1 <0>         0.0202
      2 O1          0.6878   -0.2525   -0.2709 O.3       1 <0>        -0.3137
      3 C2         -0.5920   -0.7057   -0.2121 C.ar      1 <0>         0.1585
      4 C3         -1.6502    0.2085   -0.2236 C.ar      1 <0>        -0.1753
      5 C4         -2.9414   -0.2138   -0.1659 C.ar      1 <0>        -0.0348
      6 C5         -3.2248   -1.5896   -0.0934 C.ar      1 <0>         0.0989
      7 C6         -2.1522   -2.5161   -0.0818 C.ar      1 <0>        -0.0444
      8 C7         -0.8302   -2.0492   -0.1481 C.ar      1 <0>        -0.1797
      9 C8         -2.4399   -3.8921   -0.0092 C.ar      1 <0>        -0.0896
     10 C9         -3.7501   -4.2746    0.0471 C.ar      1 <0>        -0.1349
     11 C10        -4.7565   -3.3117    0.0319 C.ar      1 <0>         0.1205
     12 N1         -4.4850   -2.0309   -0.0362 N.ar      1 <0>        -0.4415
     13 C11        -1.3332   -4.9149    0.0054 C.3       1 <0>         0.1418
     14 H1         -0.5131   -4.5719   -0.6253 H         1 <0>         0.1366
     15 C12        -0.8307   -5.1022    1.4384 C.3       1 <0>        -0.0033
     16 H2         -0.5994   -4.1286    1.8706 H         1 <0>         0.1463
     17 C13        -1.9180   -5.7828    2.2729 C.3       1 <0>        -0.1346
     18 C14        -1.3677   -7.1076    2.8171 C.3       1 <0>        -0.0926
     19 H3         -2.1218   -7.6091    3.4237 H         1 <0>         0.1184
     20 C15        -0.9686   -7.9910    1.6277 C.3       1 <0>        -0.1359
     21 C16         0.0796   -7.2513    0.7933 C.3       1 <0>        -0.0193
     22 N2          0.3790   -5.9280    1.4252 N.4       1 <0>        -0.3773
     23 C17         0.9057   -6.0928    2.7821 C.3       1 <0>        -0.0008
     24 C18        -0.1224   -6.8042    3.6607 C.3       1 <0>        -0.0658
     25 H4         -0.3959   -6.1620    4.4979 H         1 <0>         0.1076
     26 C19         0.4626   -8.0926    4.1791 C.2       1 <0>        -0.1891
     27 C20         0.5661   -8.2925    5.4696 C.2       1 <0>        -0.1440
     28 O2         -1.8284   -6.1596   -0.4922 O.3       1 <0>        -0.5356
     29 H5          1.9379    1.3889   -0.3789 H         1 <0>         0.1092
     30 H6          0.3825    1.5525   -1.2287 H         1 <0>         0.0636
     31 H7          0.4376    1.6275    0.5488 H         1 <0>         0.0626
     32 H8         -1.4386    1.2661   -0.2788 H         1 <0>         0.1456
     33 H9         -3.7471    0.5052   -0.1754 H         1 <0>         0.1494
     34 H10        -0.0064   -2.7476   -0.1445 H         1 <0>         0.1293
     35 H11        -4.0054   -5.3225    0.1031 H         1 <0>         0.1386
     36 H12        -5.7879   -3.6287    0.0770 H         1 <0>         0.1687
     37 H13        -2.1998   -5.1357    3.1035 H         1 <0>         0.1063
     38 H14        -2.7893   -5.9785    1.6479 H         1 <0>         0.0959
     39 H15        -0.5495   -8.9284    1.9932 H         1 <0>         0.1013
     40 H16        -1.8460   -8.1956    1.0141 H         1 <0>         0.0986
     41 H17         0.9952   -7.8416    0.7571 H         1 <0>         0.1218
     42 H18        -0.2981   -7.1102   -0.2194 H         1 <0>         0.1666
     43 H19         1.8202   -6.6848    2.7456 H         1 <0>         0.1342
     44 H20         1.1277   -5.1131    3.2053 H         1 <0>         0.1296
     45 H21         0.7966   -8.8512    3.4867 H         1 <0>         0.1187
     46 H22         0.2321   -7.5339    6.1621 H         1 <0>         0.1034
     47 H23         0.9853   -9.2159    5.8412 H         1 <0>         0.1105
     48 H24        -2.5615   -6.5250    0.0218 H         1 <0>         0.3862
     49 H25         1.0806   -5.4578    0.8731 H         1 <0>         0.4231
@<TRIPOS>BOND
     1    1    2 1
     2    1   29 1
     3    1   30 1
     4    1   31 1
     5    2    3 1
     6    3    8 ar
     7    3    4 ar
     8    4    5 ar
     9    4   32 1
    10    5    6 ar
    11    5   33 1
    12    6   12 ar
    13    6    7 ar
    14    7    8 ar
    15    7    9 ar
    16    8   34 1
    17    9   10 ar
    18    9   13 1
    19   10   11 ar
    20   10   35 1
    21   11   12 ar
    22   11   36 1
    23   13   14 1
    24   13   15 1
    25   13   28 1
    26   15   16 1
    27   15   22 1
    28   15   17 1
    29   17   18 1
    30   17   37 1
    31   17   38 1
    32   18   19 1
    33   18   24 1
    34   18   20 1
    35   20   21 1
    36   20   39 1
    37   20   40 1
    38   21   22 1
    39   21   41 1
    40   21   42 1
    41   22   23 1
    42   22   49 1
    43   23   24 1
    44   23   43 1
    45   23   44 1
    46   24   25 1
    47   24   26 1
    48   26   27 2
    49   26   45 1
    50   27   46 1
    51   27   47 1
    52   28   48 1
@<TRIPOS>MOLECULE
ZINC03831403
   49    52     0     0     0
SMALL
USER_CHARGES

@<TRIPOS>ATOM
      1 C1          2.2982   -8.7592   -3.7306 C.3       1 <0>         0.0200
      2 O1          1.3894   -8.1799   -2.7922 O.3       1 <0>        -0.3125
      3 C2          1.3221   -6.8231   -2.7555 C.ar      1 <0>         0.1594
      4 C3          2.1208   -6.0678   -3.6198 C.ar      1 <0>        -0.1751
      5 C4          2.0761   -4.7089   -3.6070 C.ar      1 <0>        -0.0349
      6 C5          1.2159   -4.0457   -2.7134 C.ar      1 <0>         0.0987
      7 C6          0.4063   -4.8113   -1.8373 C.ar      1 <0>        -0.0414
      8 C7          0.4710   -6.2128   -1.8784 C.ar      1 <0>        -0.1815
      9 C8         -0.4533   -4.1440   -0.9446 C.ar      1 <0>        -0.0893
     10 C9         -0.4682   -2.7782   -0.9635 C.ar      1 <0>        -0.1363
     11 C10         0.3534   -2.0864   -1.8505 C.ar      1 <0>         0.1194
     12 N1          1.1526   -2.7111   -2.6810 N.ar      1 <0>        -0.4413
     13 C11        -1.3332   -4.9149    0.0054 C.3       1 <0>         0.1365
     14 H1         -1.4755   -5.9276   -0.3718 H         1 <0>         0.1367
     15 C12        -0.6694   -4.9723    1.3827 C.3       1 <0>        -0.0006
     16 H2         -0.4369   -3.9604    1.7146 H         1 <0>         0.1396
     17 C13         0.6234   -5.7859    1.2899 C.3       1 <0>        -0.1441
     18 C14         0.5202   -6.9889    2.2366 C.3       1 <0>        -0.0902
     19 H3          1.4343   -7.5812    2.1955 H         1 <0>         0.1189
     20 C15        -0.6837   -7.8389    1.8096 C.3       1 <0>        -0.1415
     21 C16        -1.9443   -6.9732    1.8671 C.3       1 <0>        -0.0033
     22 N2         -1.5861   -5.5986    2.3384 N.4       1 <0>        -0.3772
     23 C17        -0.9917   -5.6325    3.6767 C.3       1 <0>         0.0012
     24 C18         0.2892   -6.4658    3.6604 C.3       1 <0>        -0.0671
     25 H4          0.1861   -7.3066    4.3463 H         1 <0>         0.1100
     26 C19         1.4562   -5.6091    4.0792 C.2       1 <0>        -0.1905
     27 C20         2.1678   -5.9391    5.1284 C.2       1 <0>        -0.1425
     28 O2         -2.6011   -4.2647    0.1144 O.3       1 <0>        -0.5416
     29 H5          2.2533   -9.8458   -3.6565 H         1 <0>         0.1093
     30 H6          2.0233   -8.4521   -4.7397 H         1 <0>         0.0634
     31 H7          3.3111   -8.4216   -3.5113 H         1 <0>         0.0626
     32 H8          2.7835   -6.5715   -4.3079 H         1 <0>         0.1458
     33 H9          2.6998   -4.1403   -4.2809 H         1 <0>         0.1494
     34 H10        -0.1453   -6.8049   -1.2181 H         1 <0>         0.1339
     35 H11        -1.1165   -2.2353   -0.2917 H         1 <0>         0.1384
     36 H12         0.3312   -1.0066   -1.8543 H         1 <0>         0.1683
     37 H13         0.7615   -6.1367    0.2672 H         1 <0>         0.1127
     38 H14         1.4688   -5.1629    1.5817 H         1 <0>         0.1046
     39 H15        -0.5340   -8.1991    0.7918 H         1 <0>         0.1024
     40 H16        -0.7913   -8.6862    2.4869 H         1 <0>         0.1042
     41 H17        -2.3971   -6.9275    0.8766 H         1 <0>         0.1340
     42 H18        -2.6540   -7.4138    2.5673 H         1 <0>         0.1327
     43 H19        -0.7586   -4.6164    3.9948 H         1 <0>         0.1313
     44 H20        -1.7008   -6.0751    4.3763 H         1 <0>         0.1342
     45 H21         1.7058   -4.7231    3.5144 H         1 <0>         0.1164
     46 H22         1.9181   -6.8252    5.6933 H         1 <0>         0.1045
     47 H23         3.0041   -5.3252    5.4286 H         1 <0>         0.1102
     48 H24        -2.5608   -3.3909    0.5267 H         1 <0>         0.3866
     49 H25        -2.4274   -5.0435    2.3846 H         1 <0>         0.4253
@<TRIPOS>BOND
     1    1    2 1
     2    1   29 1
     3    1   30 1
     4    1   31 1
     5    2    3 1
     6    3    8 ar
     7    3    4 ar
     8    4    5 ar
     9    4   32 1
    10    5    6 ar
    11    5   33 1
    12    6   12 ar
    13    6    7 ar
    14    7    8 ar
    15    7    9 ar
    16    8   34 1
    17    9   10 ar
    18    9   13 1
    19   10   11 ar
    20   10   35 1
    21   11   12 ar
    22   11   36 1
    23   13   14 1
    24   13   15 1
    25   13   28 1
    26   15   16 1
    27   15   22 1
    28   15   17 1
    29   17   18 1
    30   17   37 1
    31   17   38 1
    32   18   19 1
    33   18   24 1
    34   18   20 1
    35   20   21 1
    36   20   39 1
    37   20   40 1
    38   21   22 1
    39   21   41 1
    40   21   42 1
    41   22   23 1
    42   22   49 1
    43   23   24 1
    44   23   43 1
    45   23   44 1
    46   24   25 1
    47   24   26 1
    48   26   27 2
    49   26   45 1
    50   27   46 1
    51   27   47 1
    52   28   48 1
@<TRIPOS>MOLECULE
ZINC03831405
   49    52     0     0     0
SMALL
USER_CHARGES

@<TRIPOS>ATOM
      1 C1         -0.1764    0.8014   -3.0424 C.3       1 <0>         0.0200
      2 O1         -0.1372   -0.5890   -2.7148 O.3       1 <0>        -0.3132
      3 C2         -1.2504   -1.1200   -2.1442 C.ar      1 <0>         0.1590
      4 C3         -2.3634   -0.3060   -1.9120 C.ar      1 <0>        -0.1735
      5 C4         -3.4917   -0.8077   -1.3428 C.ar      1 <0>        -0.0355
      6 C5         -3.5476   -2.1654   -0.9795 C.ar      1 <0>         0.1009
      7 C6         -2.4194   -2.9905   -1.2148 C.ar      1 <0>        -0.0441
      8 C7         -1.2712   -2.4441   -1.8092 C.ar      1 <0>        -0.1785
      9 C8         -2.4792   -4.3486   -0.8498 C.ar      1 <0>        -0.0878
     10 C9         -3.6310   -4.8130   -0.2809 C.ar      1 <0>        -0.1455
     11 C10        -4.7036   -3.9480   -0.0774 C.ar      1 <0>         0.1237
     12 N1         -4.6447   -2.6836   -0.4189 N.ar      1 <0>        -0.4401
     13 C11        -1.3053   -5.2650   -1.0808 C.3       1 <0>         0.1353
     14 H1         -0.7977   -4.9800   -2.0023 H         1 <0>         0.1255
     15 C12        -0.3314   -5.1520    0.0938 C.3       1 <0>         0.0074
     16 H2         -0.1138   -4.1009    0.2834 H         1 <0>         0.1440
     17 C13        -0.9656   -5.7723    1.3408 C.3       1 <0>        -0.1288
     18 C14        -0.0775   -6.9255    1.8263 C.3       1 <0>        -0.0921
     19 H3         -0.5128   -7.3909    2.7106 H         1 <0>         0.1168
     20 C15         1.3122   -6.3622    2.1515 C.3       1 <0>        -0.1389
     21 C16         1.8860   -5.7069    0.8932 C.3       1 <0>         0.0033
     22 N2          0.9114   -5.8538   -0.2361 N.4       1 <0>        -0.3777
     23 C17         0.6447   -7.2635   -0.5315 C.3       1 <0>        -0.0106
     24 C18         0.0464   -7.9514    0.6921 C.3       1 <0>        -0.0600
     25 H4          0.6964   -8.7677    1.0073 H         1 <0>         0.1051
     26 C19        -1.3178   -8.4922    0.3490 C.2       1 <0>        -0.1682
     27 C20        -1.4890   -9.7803    0.1830 C.2       1 <0>        -0.1581
     28 O2         -1.7673   -6.6129   -1.1886 O.3       1 <0>        -0.5370
     29 H5          0.7728    1.0962   -3.4899 H         1 <0>         0.1096
     30 H6         -0.9845    0.9852   -3.7504 H         1 <0>         0.0637
     31 H7         -0.3474    1.3834   -2.1368 H         1 <0>         0.0629
     32 H8         -2.3262    0.7373   -2.1886 H         1 <0>         0.1462
     33 H9         -4.3426   -0.1655   -1.1699 H         1 <0>         0.1501
     34 H10        -0.4082   -3.0658   -1.9968 H         1 <0>         0.1303
     35 H11        -3.7101   -5.8500    0.0105 H         1 <0>         0.1375
     36 H12        -5.6080   -4.3290    0.3735 H         1 <0>         0.1700
     37 H13        -1.0453   -5.0181    2.1237 H         1 <0>         0.1009
     38 H14        -1.9570   -6.1531    1.0954 H         1 <0>         0.0955
     39 H15         1.2288   -5.6193    2.9447 H         1 <0>         0.1011
     40 H16         1.9680   -7.1712    2.4735 H         1 <0>         0.1013
     41 H17         2.0811   -4.6530    1.0912 H         1 <0>         0.1308
     42 H18         2.8189   -6.2008    0.6215 H         1 <0>         0.1300
     43 H19        -0.0547   -7.3324   -1.3646 H         1 <0>         0.1604
     44 H20         1.5771   -7.7589   -0.8023 H         1 <0>         0.1228
     45 H21        -2.1542   -7.8178    0.2399 H         1 <0>         0.1171
     46 H22        -0.6525  -10.4547    0.2920 H         1 <0>         0.1015
     47 H23        -2.4666  -10.1678   -0.0629 H         1 <0>         0.1082
     48 H24        -2.5945   -6.7840   -0.7179 H         1 <0>         0.3872
     49 H25         1.3069   -5.4312   -1.0625 H         1 <0>         0.4216
@<TRIPOS>BOND
     1    1    2 1
     2    1   29 1
     3    1   30 1
     4    1   31 1
     5    2    3 1
     6    3    8 ar
     7    3    4 ar
     8    4    5 ar
     9    4   32 1
    10    5    6 ar
    11    5   33 1
    12    6   12 ar
    13    6    7 ar
    14    7    8 ar
    15    7    9 ar
    16    8   34 1
    17    9   10 ar
    18    9   13 1
    19   10   11 ar
    20   10   35 1
    21   11   12 ar
    22   11   36 1
    23   13   14 1
    24   13   15 1
    25   13   28 1
    26   15   16 1
    27   15   22 1
    28   15   17 1
    29   17   18 1
    30   17   37 1
    31   17   38 1
    32   18   19 1
    33   18   24 1
    34   18   20 1
    35   20   21 1
    36   20   39 1
    37   20   40 1
    38   21   22 1
    39   21   41 1
    40   21   42 1
    41   22   23 1
    42   22   49 1
    43   23   24 1
    44   23   43 1
    45   23   44 1
    46   24   25 1
    47   24   26 1
    48   26   27 2
    49   26   45 1
    50   27   46 1
    51   27   47 1
    52   28   48 1
@<TRIPOS>MOLECULE
ZINC04521307
   49    52     0     0     0
SMALL
USER_CHARGES

@<TRIPOS>ATOM
      1 C1          2.2967   -8.7616   -3.7296 C.3       1 <0>         0.0200
      2 O1          1.3881   -8.1817   -2.7914 O.3       1 <0>        -0.3126
      3 C2          1.3214   -6.8249   -2.7550 C.ar      1 <0>         0.1595
      4 C3          2.1203   -6.0701   -3.6196 C.ar      1 <0>        -0.1751
      5 C4          2.0762   -4.7112   -3.6071 C.ar      1 <0>        -0.0347
      6 C5          1.2162   -4.0475   -2.7137 C.ar      1 <0>         0.0988
      7 C6          0.4064   -4.8125   -1.8374 C.ar      1 <0>        -0.0415
      8 C7          0.4705   -6.2140   -1.8781 C.ar      1 <0>        -0.1817
      9 C8         -0.4530   -4.1446   -0.9448 C.ar      1 <0>        -0.0894
     10 C9         -0.4674   -2.7788   -0.9641 C.ar      1 <0>        -0.1359
     11 C10         0.3545   -2.0875   -1.8512 C.ar      1 <0>         0.1196
     12 N1          1.1535   -2.7128   -2.6816 N.ar      1 <0>        -0.4412
     13 C11        -1.3332   -4.9149    0.0054 C.3       1 <0>         0.1356
     14 H1         -1.4760   -5.9276   -0.3716 H         1 <0>         0.1358
     15 C12        -0.6694   -4.9723    1.3827 C.3       1 <0>        -0.0016
     16 H2         -0.4368   -3.9604    1.7146 H         1 <0>         0.1419
     17 C13         0.6234   -5.7859    1.2897 C.3       1 <0>        -0.1446
     18 C14         0.5205   -6.9888    2.2367 C.3       1 <0>        -0.0897
     19 H3          1.4275   -7.5908    2.1826 H         1 <0>         0.1188
     20 C15         0.3146   -6.4648    3.6641 C.3       1 <0>        -0.1399
     21 C16        -0.9581   -5.6156    3.6993 C.3       1 <0>         0.0060
     22 N2         -1.5860   -5.5987    2.3384 N.4       1 <0>        -0.3777
     23 C17        -1.9452   -6.9491    1.8991 C.3       1 <0>        -0.0060
     24 C18        -0.6982   -7.8255    1.8255 C.3       1 <0>        -0.0690
     25 H4         -0.5662   -8.1862    0.8054 H         1 <0>         0.1077
     26 C19        -0.8466   -8.9962    2.7628 C.2       1 <0>        -0.1887
     27 C20        -0.7986  -10.2192    2.2959 C.2       1 <0>        -0.1430
     28 O2         -2.6008   -4.2641    0.1144 O.3       1 <0>        -0.5415
     29 H5          2.2514   -9.8481   -3.6553 H         1 <0>         0.1092
     30 H6          2.0220   -8.4547   -4.7388 H         1 <0>         0.0634
     31 H7          3.3097   -8.4243   -3.5104 H         1 <0>         0.0627
     32 H8          2.7829   -6.5743   -4.3075 H         1 <0>         0.1459
     33 H9          2.7001   -4.1430   -4.2811 H         1 <0>         0.1495
     34 H10        -0.1460   -6.8056   -1.2176 H         1 <0>         0.1332
     35 H11        -1.1155   -2.2354   -0.2925 H         1 <0>         0.1386
     36 H12         0.3327   -1.0078   -1.8554 H         1 <0>         0.1685
     37 H13         0.7614   -6.1369    0.2671 H         1 <0>         0.1126
     38 H14         1.4689   -5.1629    1.5813 H         1 <0>         0.1049
     39 H15         0.2120   -7.3052    4.3505 H         1 <0>         0.1036
     40 H16         1.1692   -5.8544    3.9559 H         1 <0>         0.1012
     41 H17        -1.6629   -6.0496    4.4084 H         1 <0>         0.1305
     42 H18        -0.7082   -4.6024    4.0143 H         1 <0>         0.1322
     43 H19        -2.6493   -7.3847    2.6081 H         1 <0>         0.1357
     44 H20        -2.4109   -6.8974    0.9150 H         1 <0>         0.1329
     45 H21        -0.9925   -8.8269    3.8194 H         1 <0>         0.1186
     46 H22        -0.6527  -10.3886    1.2393 H         1 <0>         0.1043
     47 H23        -0.9050  -11.0582    2.9676 H         1 <0>         0.1106
     48 H24        -2.5601   -3.3903    0.5265 H         1 <0>         0.3867
     49 H25        -2.4308   -5.0484    2.3780 H         1 <0>         0.4254
@<TRIPOS>BOND
     1    1    2 1
     2    1   29 1
     3    1   30 1
     4    1   31 1
     5    2    3 1
     6    3    8 ar
     7    3    4 ar
     8    4    5 ar
     9    4   32 1
    10    5    6 ar
    11    5   33 1
    12    6   12 ar
    13    6    7 ar
    14    7    8 ar
    15    7    9 ar
    16    8   34 1
    17    9   10 ar
    18    9   13 1
    19   10   11 ar
    20   10   35 1
    21   11   12 ar
    22   11   36 1
    23   13   14 1
    24   13   15 1
    25   13   28 1
    26   15   16 1
    27   15   22 1
    28   15   17 1
    29   17   18 1
    30   17   37 1
    31   17   38 1
    32   18   19 1
    33   18   24 1
    34   18   20 1
    35   20   21 1
    36   20   39 1
    37   20   40 1
    38   21   22 1
    39   21   41 1
    40   21   42 1
    41   22   23 1
    42   22   49 1
    43   23   24 1
    44   23   43 1
    45   23   44 1
    46   24   25 1
    47   24   26 1
    48   26   27 2
    49   26   45 1
    50   27   46 1
    51   27   47 1
    52   28   48 1
@<TRIPOS>MOLECULE
ZINC00665828
   50    52     0     0     0
SMALL
USER_CHARGES

@<TRIPOS>ATOM
      1 C1         -0.3997    1.3834    0.3135 C.3       1 <0>        -0.1262
      2 C2         -0.2901   -0.1179    0.2430 C.ar      1 <0>        -0.0244
      3 C3         -0.2751   -0.7529   -0.9848 C.ar      1 <0>        -0.1427
      4 C4         -0.1745   -2.1301   -1.0495 C.ar      1 <0>        -0.0082
      5 C5         -0.0885   -2.8722    0.1136 C.ar      1 <0>        -0.6823
      6 C6         -0.1026   -2.2371    1.3414 C.ar      1 <0>        -0.0125
      7 C7         -0.1989   -0.8596    1.4059 C.ar      1 <0>        -0.1425
      8 S1          0.0385   -4.6277    0.0312 S.o2      1 <0>         2.6879
      9 O1         -0.4438   -5.1284    1.2705 O.2       1 <0>        -0.9496
     10 O2         -0.5191   -5.0171   -1.2165 O.2       1 <0>        -0.9441
     11 N1          1.6509   -4.9994   -0.0343 N.pl3     1 <0>        -1.0396
     12 C8          2.4925   -4.6248    1.0049 C.ar      1 <0>         0.2247
     13 C9          2.0332   -4.6412    2.3162 C.ar      1 <0>        -0.1892
     14 C10         2.8714   -4.2691    3.3468 C.ar      1 <0>        -0.0558
     15 C11         4.1748   -3.8769    3.0847 C.ar      1 <0>        -0.1436
     16 C12         4.6481   -3.8543    1.7913 C.ar      1 <0>        -0.0611
     17 C13         3.8133   -4.2333    0.7368 C.ar      1 <0>        -0.1671
     18 C14         4.3154   -4.2172   -0.6494 C.2       1 <0>         0.5679
     19 O3          3.5844   -4.5438   -1.5646 O.2       1 <0>        -0.5362
     20 N2          5.5845   -3.8405   -0.9021 N.am      1 <0>        -0.7190
     21 C15         6.0834   -3.8245   -2.2795 C.3       1 <0>         0.1838
     22 H1          5.6347   -4.6460   -2.8379 H         1 <0>         0.1004
     23 C16         5.7124   -2.4957   -2.9408 C.3       1 <0>        -0.1587
     24 C17         7.5822   -3.9811   -2.2727 C.ar      1 <0>        -0.0945
     25 C18         8.3401   -3.3373   -1.3125 C.ar      1 <0>        -0.1165
     26 C19         9.7149   -3.4810   -1.3063 C.ar      1 <0>        -0.1147
     27 C20        10.3318   -4.2688   -2.2601 C.ar      1 <0>        -0.1173
     28 C21         9.5739   -4.9133   -3.2198 C.ar      1 <0>        -0.1139
     29 C22         8.1987   -4.7731   -3.2233 C.ar      1 <0>        -0.1065
     30 H2          0.5982    1.8217    0.2988 H         1 <0>         0.0800
     31 H3         -0.9688    1.7468   -0.5422 H         1 <0>         0.0739
     32 H4         -0.9079    1.6678    1.2349 H         1 <0>         0.0741
     33 H5         -0.3423   -0.1731   -1.8935 H         1 <0>         0.1340
     34 H6         -0.1635   -2.6263   -2.0087 H         1 <0>         0.1411
     35 H7         -0.0358   -2.8170    2.2500 H         1 <0>         0.1403
     36 H8         -0.2061   -0.3632    2.3650 H         1 <0>         0.1341
     37 H9          2.0075   -5.4788   -0.7984 H         1 <0>         0.4402
     38 H10         1.0189   -4.9452    2.5288 H         1 <0>         0.1692
     39 H11         2.5097   -4.2832    4.3644 H         1 <0>         0.1377
     40 H12         4.8226   -3.5872    3.8989 H         1 <0>         0.1337
     41 H13         5.6644   -3.5475    1.5929 H         1 <0>         0.1284
     42 H14         6.1676   -3.5800   -0.1720 H         1 <0>         0.4000
     43 H15         4.6283   -2.3824   -2.9457 H         1 <0>         0.0665
     44 H16         6.1610   -1.6741   -2.3823 H         1 <0>         0.0592
     45 H17         6.0836   -2.4837   -3.9656 H         1 <0>         0.0701
     46 H18         7.8581   -2.7219   -0.5673 H         1 <0>         0.1186
     47 H19        10.3071   -2.9775   -0.5565 H         1 <0>         0.1247
     48 H20        11.4061   -4.3804   -2.2557 H         1 <0>         0.1242
     49 H21        10.0559   -5.5285   -3.9651 H         1 <0>         0.1257
     50 H22         7.6061   -5.2796   -3.9709 H         1 <0>         0.1256
@<TRIPOS>BOND
     1    1    2 1
     2    1   30 1
     3    1   31 1
     4    1   32 1
     5    2    7 ar
     6    2    3 ar
     7    3    4 ar
     8    3   33 1
     9    4    5 ar
    10    4   34 1
    11    5    6 ar
    12    5    8 1
    13    6    7 ar
    14    6   35 1
    15    7   36 1
    16    8    9 2
    17    8   10 2
    18    8   11 1
    19   11   12 1
    20   11   37 1
    21   12   17 ar
    22   12   13 ar
    23   13   14 ar
    24   13   38 1
    25   14   15 ar
    26   14   39 1
    27   15   16 ar
    28   15   40 1
    29   16   17 ar
    30   16   41 1
    31   17   18 1
    32   18   19 2
    33   18   20 am
    34   20   21 1
    35   20   42 1
    36   21   22 1
    37   21   23 1
    38   21   24 1
    39   23   43 1
    40   23   44 1
    41   23   45 1
    42   24   29 ar
    43   24   25 ar
    44   25   26 ar
    45   25   46 1
    46   26   27 ar
    47   26   47 1
    48   27   28 ar
    49   27   48 1
    50   28   29 ar
    51   28   49 1
    52   29   50 1
@<TRIPOS>MOLECULE
ZINC00665828
   49    51     0     0     0
SMALL
USER_CHARGES

@<TRIPOS>ATOM
      1 C1         -0.0184    1.5028    0.0103 C.3       1 <0>        -0.1151
      2 C2          0.0021   -0.0041    0.0020 C.ar      1 <0>        -0.0541
      3 C3          0.0057   -0.6887   -1.1989 C.ar      1 <0>        -0.1478
      4 C4          0.0245   -2.0709   -1.2065 C.ar      1 <0>        -0.0186
      5 C5          0.0400   -2.7685   -0.0132 C.ar      1 <0>        -0.6135
      6 C6          0.0373   -2.0839    1.1877 C.ar      1 <0>        -0.0187
      7 C7          0.0229   -0.7016    1.1953 C.ar      1 <0>        -0.1478
      8 S1          0.0628   -4.5303   -0.0229 S.o2      1 <0>         2.5920
      9 O1         -0.4759   -4.9503    1.2232 O.2       1 <0>        -1.0310
     10 O2         -0.4897   -4.9367   -1.2674 O.2       1 <0>        -1.0310
     11 N1          1.6509   -4.9994   -0.0343 N.2       1 <0>        -1.0281
     12 C8          1.9760   -6.3495   -0.0434 C.ar      1 <0>         0.3283
     13 C9          0.9717   -7.3098   -0.0488 C.ar      1 <0>        -0.2678
     14 C10         1.2973   -8.6503   -0.0584 C.ar      1 <0>        -0.0420
     15 C11         2.6245   -9.0503   -0.0626 C.ar      1 <0>        -0.2386
     16 C12         3.6339   -8.1130   -0.0573 C.ar      1 <0>        -0.0406
     17 C13         3.3208   -6.7512   -0.0530 C.ar      1 <0>        -0.2202
     18 C14         4.3962   -5.7427   -0.0535 C.2       1 <0>         0.5654
     19 O3          4.1194   -4.5587   -0.0455 O.2       1 <0>        -0.4981
     20 N2          5.6862   -6.1332   -0.0628 N.am      1 <0>        -0.7450
     21 C15         6.7548   -5.1311   -0.0632 C.3       1 <0>         0.1854
     22 H1          6.4408   -4.2653   -0.6462 H         1 <0>         0.0927
     23 C16         7.0488   -4.6983    1.3746 C.3       1 <0>        -0.1555
     24 C17         7.9987   -5.7235   -0.6738 C.ar      1 <0>        -0.0801
     25 C18         8.3505   -7.0308   -0.3945 C.ar      1 <0>        -0.1137
     26 C19         9.4915   -7.5742   -0.9546 C.ar      1 <0>        -0.1176
     27 C20        10.2805   -6.8104   -1.7944 C.ar      1 <0>        -0.1266
     28 C21         9.9281   -5.5034   -2.0744 C.ar      1 <0>        -0.1186
     29 C22         8.7848   -4.9613   -1.5177 C.ar      1 <0>        -0.1103
     30 H2          1.0042    1.8801    0.0026 H         1 <0>         0.0724
     31 H3         -0.5455    1.8639   -0.8728 H         1 <0>         0.0662
     32 H4         -0.5286    1.8543    0.9071 H         1 <0>         0.0662
     33 H5         -0.0064   -0.1436   -2.1312 H         1 <0>         0.1242
     34 H6          0.0266   -2.6057   -2.1448 H         1 <0>         0.1348
     35 H7          0.0491   -2.6289    2.1200 H         1 <0>         0.1348
     36 H8          0.0245   -0.1667    2.1335 H         1 <0>         0.1243
     37 H9         -0.0648   -7.0064   -0.0452 H         1 <0>         0.1025
     38 H10         0.5132   -9.3930   -0.0623 H         1 <0>         0.1055
     39 H11         2.8684  -10.1023   -0.0697 H         1 <0>         0.1057
     40 H12         4.6663   -8.4303   -0.0603 H         1 <0>         0.1043
     41 H13         5.9070   -7.0777   -0.0691 H         1 <0>         0.3893
     42 H14         7.8439   -3.9527    1.3742 H         1 <0>         0.0583
     43 H15         6.1491   -4.2699    1.8162 H         1 <0>         0.0685
     44 H16         7.3628   -5.5641    1.9576 H         1 <0>         0.0540
     45 H17         7.7342   -7.6275    0.2615 H         1 <0>         0.1217
     46 H18         9.7668   -8.5953   -0.7359 H         1 <0>         0.1210
     47 H19        11.1723   -7.2347   -2.2314 H         1 <0>         0.1187
     48 H20        10.5447   -4.9065   -2.7302 H         1 <0>         0.1205
     49 H21         8.5075   -3.9413   -1.7394 H         1 <0>         0.1235
@<TRIPOS>BOND
     1    1    2 1
     2    1   30 1
     3    1   31 1
     4    1   32 1
     5    2    7 ar
     6    2    3 ar
     7    3    4 ar
     8    3   33 1
     9    4    5 ar
    10    4   34 1
    11    5    6 ar
    12    5    8 1
    13    6    7 ar
    14    6   35 1
    15    7   36 1
    16    8    9 2
    17    8   10 2
    18    8   11 1
    19   11   12 1
    20   12   17 ar
    21   12   13 ar
    22   13   14 ar
    23   13   37 1
    24   14   15 ar
    25   14   38 1
    26   15   16 ar
    27   15   39 1
    28   16   17 ar
    29   16   40 1
    30   17   18 1
    31   18   19 2
    32   18   20 am
    33   20   21 1
    34   20   41 1
    35   21   22 1
    36   21   23 1
    37   21   24 1
    38   23   42 1
    39   23   43 1
    40   23   44 1
    41   24   29 ar
    42   24   25 ar
    43   25   26 ar
    44   25   45 1
    45   26   27 ar
    46   26   46 1
    47   27   28 ar
    48   27   47 1
    49   28   29 ar
    50   28   48 1
    51   29   49 1
@<TRIPOS>MOLECULE
ZINC00665830
   50    52     0     0     0
SMALL
USER_CHARGES

@<TRIPOS>ATOM
      1 C1         -0.3997    1.3834    0.3135 C.3       1 <0>        -0.1262
      2 C2         -0.2901   -0.1179    0.2430 C.ar      1 <0>        -0.0244
      3 C3         -0.2751   -0.7529   -0.9848 C.ar      1 <0>        -0.1427
      4 C4         -0.1745   -2.1301   -1.0495 C.ar      1 <0>        -0.0083
      5 C5         -0.0885   -2.8722    0.1136 C.ar      1 <0>        -0.6824
      6 C6         -0.1026   -2.2371    1.3414 C.ar      1 <0>        -0.0125
      7 C7         -0.1989   -0.8596    1.4059 C.ar      1 <0>        -0.1425
      8 S1          0.0385   -4.6277    0.0312 S.o2      1 <0>         2.6881
      9 O1         -0.4438   -5.1284    1.2705 O.2       1 <0>        -0.9495
     10 O2         -0.5191   -5.0171   -1.2165 O.2       1 <0>        -0.9441
     11 N1          1.6509   -4.9994   -0.0343 N.pl3     1 <0>        -1.0397
     12 C8          2.4925   -4.6248    1.0049 C.ar      1 <0>         0.2247
     13 C9          2.0332   -4.6412    2.3162 C.ar      1 <0>        -0.1892
     14 C10         2.8714   -4.2691    3.3468 C.ar      1 <0>        -0.0558
     15 C11         4.1748   -3.8769    3.0847 C.ar      1 <0>        -0.1436
     16 C12         4.6481   -3.8543    1.7913 C.ar      1 <0>        -0.0610
     17 C13         3.8133   -4.2333    0.7368 C.ar      1 <0>        -0.1671
     18 C14         4.3154   -4.2172   -0.6494 C.2       1 <0>         0.5679
     19 O3          3.5844   -4.5438   -1.5646 O.2       1 <0>        -0.5362
     20 N2          5.5845   -3.8405   -0.9021 N.am      1 <0>        -0.7189
     21 C15         6.0834   -3.8245   -2.2795 C.3       1 <0>         0.1836
     22 H1          5.2798   -3.5278   -2.9535 H         1 <0>         0.0999
     23 C16         6.5777   -5.2218   -2.6591 C.3       1 <0>        -0.1590
     24 C17         7.2206   -2.8420   -2.3904 C.ar      1 <0>        -0.0943
     25 C18         8.1585   -2.7532   -1.3788 C.ar      1 <0>        -0.1164
     26 C19         9.2017   -1.8519   -1.4806 C.ar      1 <0>        -0.1147
     27 C20         9.3073   -1.0398   -2.5942 C.ar      1 <0>        -0.1175
     28 C21         8.3699   -1.1292   -3.6063 C.ar      1 <0>        -0.1140
     29 C22         7.3291   -2.0335   -3.5064 C.ar      1 <0>        -0.1068
     30 H2          0.5982    1.8217    0.2988 H         1 <0>         0.0800
     31 H3         -0.9688    1.7468   -0.5422 H         1 <0>         0.0739
     32 H4         -0.9079    1.6678    1.2349 H         1 <0>         0.0741
     33 H5         -0.3423   -0.1731   -1.8935 H         1 <0>         0.1340
     34 H6         -0.1635   -2.6263   -2.0087 H         1 <0>         0.1411
     35 H7         -0.0358   -2.8170    2.2500 H         1 <0>         0.1404
     36 H8         -0.2061   -0.3632    2.3650 H         1 <0>         0.1341
     37 H9          2.0075   -5.4788   -0.7984 H         1 <0>         0.4402
     38 H10         1.0189   -4.9452    2.5288 H         1 <0>         0.1692
     39 H11         2.5097   -4.2832    4.3644 H         1 <0>         0.1377
     40 H12         4.8226   -3.5872    3.8989 H         1 <0>         0.1337
     41 H13         5.6644   -3.5475    1.5929 H         1 <0>         0.1284
     42 H14         6.1676   -3.5800   -0.1720 H         1 <0>         0.4000
     43 H15         6.9488   -5.2099   -3.6839 H         1 <0>         0.0701
     44 H16         7.3813   -5.5185   -1.9851 H         1 <0>         0.0598
     45 H17         5.7551   -5.9325   -2.5788 H         1 <0>         0.0672
     46 H18         8.0760   -3.3877   -0.5088 H         1 <0>         0.1191
     47 H19         9.9341   -1.7821   -0.6899 H         1 <0>         0.1248
     48 H20        10.1219   -0.3352   -2.6735 H         1 <0>         0.1241
     49 H21         8.4522   -0.4945   -4.4762 H         1 <0>         0.1255
     50 H22         6.5988   -2.1060   -4.2988 H         1 <0>         0.1252
@<TRIPOS>BOND
     1    1    2 1
     2    1   30 1
     3    1   31 1
     4    1   32 1
     5    2    7 ar
     6    2    3 ar
     7    3    4 ar
     8    3   33 1
     9    4    5 ar
    10    4   34 1
    11    5    6 ar
    12    5    8 1
    13    6    7 ar
    14    6   35 1
    15    7   36 1
    16    8    9 2
    17    8   10 2
    18    8   11 1
    19   11   12 1
    20   11   37 1
    21   12   17 ar
    22   12   13 ar
    23   13   14 ar
    24   13   38 1
    25   14   15 ar
    26   14   39 1
    27   15   16 ar
    28   15   40 1
    29   16   17 ar
    30   16   41 1
    31   17   18 1
    32   18   19 2
    33   18   20 am
    34   20   21 1
    35   20   42 1
    36   21   22 1
    37   21   23 1
    38   21   24 1
    39   23   43 1
    40   23   44 1
    41   23   45 1
    42   24   29 ar
    43   24   25 ar
    44   25   26 ar
    45   25   46 1
    46   26   27 ar
    47   26   47 1
    48   27   28 ar
    49   27   48 1
    50   28   29 ar
    51   28   49 1
    52   29   50 1
@<TRIPOS>MOLECULE
ZINC00665830
   49    51     0     0     0
SMALL
USER_CHARGES

@<TRIPOS>ATOM
      1 C1         -0.0184    1.5028    0.0103 C.3       1 <0>        -0.1150
      2 C2          0.0021   -0.0041    0.0020 C.ar      1 <0>        -0.0541
      3 C3          0.0057   -0.6887   -1.1989 C.ar      1 <0>        -0.1478
      4 C4          0.0245   -2.0709   -1.2065 C.ar      1 <0>        -0.0186
      5 C5          0.0400   -2.7685   -0.0132 C.ar      1 <0>        -0.6135
      6 C6          0.0373   -2.0839    1.1877 C.ar      1 <0>        -0.0187
      7 C7          0.0229   -0.7016    1.1953 C.ar      1 <0>        -0.1478
      8 S1          0.0628   -4.5303   -0.0229 S.o2      1 <0>         2.5919
      9 O1         -0.4759   -4.9503    1.2232 O.2       1 <0>        -1.0310
     10 O2         -0.4897   -4.9367   -1.2674 O.2       1 <0>        -1.0310
     11 N1          1.6509   -4.9994   -0.0343 N.2       1 <0>        -1.0280
     12 C8          1.9760   -6.3495   -0.0434 C.ar      1 <0>         0.3283
     13 C9          0.9717   -7.3098   -0.0488 C.ar      1 <0>        -0.2678
     14 C10         1.2973   -8.6503   -0.0584 C.ar      1 <0>        -0.0420
     15 C11         2.6245   -9.0503   -0.0626 C.ar      1 <0>        -0.2386
     16 C12         3.6339   -8.1130   -0.0573 C.ar      1 <0>        -0.0406
     17 C13         3.3208   -6.7512   -0.0530 C.ar      1 <0>        -0.2202
     18 C14         4.3962   -5.7427   -0.0535 C.2       1 <0>         0.5654
     19 O3          4.1194   -4.5587   -0.0455 O.2       1 <0>        -0.4981
     20 N2          5.6862   -6.1332   -0.0628 N.am      1 <0>        -0.7449
     21 C15         6.7548   -5.1311   -0.0632 C.3       1 <0>         0.1854
     22 H1          6.4473   -4.2717    0.5326 H         1 <0>         0.0926
     23 C16         7.0329   -4.6827   -1.4994 C.3       1 <0>        -0.1556
     24 C17         8.0054   -5.7300    0.5271 C.ar      1 <0>        -0.0800
     25 C18         8.3600   -7.0305    0.2207 C.ar      1 <0>        -0.1137
     26 C19         9.5071   -7.5799    0.7621 C.ar      1 <0>        -0.1176
     27 C20        10.2998   -6.8287    1.6096 C.ar      1 <0>        -0.1266
     28 C21         9.9456   -5.5279    1.9153 C.ar      1 <0>        -0.1186
     29 C22         8.8008   -4.9771    1.3704 C.ar      1 <0>        -0.1103
     30 H2          1.0042    1.8801    0.0026 H         1 <0>         0.0724
     31 H3         -0.5455    1.8639   -0.8728 H         1 <0>         0.0662
     32 H4         -0.5286    1.8543    0.9071 H         1 <0>         0.0662
     33 H5         -0.0064   -0.1436   -2.1312 H         1 <0>         0.1242
     34 H6          0.0266   -2.6057   -2.1448 H         1 <0>         0.1348
     35 H7          0.0491   -2.6289    2.1200 H         1 <0>         0.1348
     36 H8          0.0245   -0.1667    2.1335 H         1 <0>         0.1242
     37 H9         -0.0648   -7.0064   -0.0452 H         1 <0>         0.1024
     38 H10         0.5132   -9.3930   -0.0623 H         1 <0>         0.1055
     39 H11         2.8684  -10.1023   -0.0697 H         1 <0>         0.1058
     40 H12         4.6663   -8.4303   -0.0603 H         1 <0>         0.1043
     41 H13         5.9070   -7.0777   -0.0691 H         1 <0>         0.3893
     42 H14         6.1284   -4.2494   -1.9263 H         1 <0>         0.0685
     43 H15         7.8280   -3.9371   -1.4997 H         1 <0>         0.0583
     44 H16         7.3404   -5.5420   -2.0952 H         1 <0>         0.0541
     45 H17         7.7407   -7.6174   -0.4414 H         1 <0>         0.1218
     46 H18         9.7838   -8.5962    0.5233 H         1 <0>         0.1210
     47 H19        11.1956   -7.2582    2.0332 H         1 <0>         0.1187
     48 H20        10.5648   -4.9411    2.5777 H         1 <0>         0.1205
     49 H21         8.5261   -3.9596    1.6063 H         1 <0>         0.1235
@<TRIPOS>BOND
     1    1    2 1
     2    1   30 1
     3    1   31 1
     4    1   32 1
     5    2    7 ar
     6    2    3 ar
     7    3    4 ar
     8    3   33 1
     9    4    5 ar
    10    4   34 1
    11    5    6 ar
    12    5    8 1
    13    6    7 ar
    14    6   35 1
    15    7   36 1
    16    8    9 2
    17    8   10 2
    18    8   11 1
    19   11   12 1
    20   12   17 ar
    21   12   13 ar
    22   13   14 ar
    23   13   37 1
    24   14   15 ar
    25   14   38 1
    26   15   16 ar
    27   15   39 1
    28   16   17 ar
    29   16   40 1
    30   17   18 1
    31   18   19 2
    32   18   20 am
    33   20   21 1
    34   20   41 1
    35   21   22 1
    36   21   23 1
    37   21   24 1
    38   23   42 1
    39   23   43 1
    40   23   44 1
    41   24   29 ar
    42   24   25 ar
    43   25   26 ar
    44   25   45 1
    45   26   27 ar
    46   26   46 1
    47   27   28 ar
    48   27   47 1
    49   28   29 ar
    50   28   48 1
    51   29   49 1
