@<TRIPOS>MOLECULE
ZINC03807804
   42    45     0     0     0
SMALL
USER_CHARGES

@<TRIPOS>ATOM
      1 C1         -0.1404    1.0961   -0.4391 C.ar      1 <0>        -0.1020
      2 C2          0.9979    1.8788   -0.4898 C.ar      1 <0>        -0.1176
      3 C3          2.2443    1.2953   -0.3597 C.ar      1 <0>        -0.1015
      4 C4          2.3524   -0.0709   -0.1784 C.ar      1 <0>        -0.0957
      5 C5          1.2140   -0.8534   -0.1268 C.ar      1 <0>        -0.0879
      6 C6         -0.0323   -0.2701   -0.2583 C.ar      1 <0>        -0.1206
      7 C7          3.7112   -0.7071   -0.0376 C.3       1 <0>         0.3033
      8 C8          3.5548   -2.1991    0.1055 C.ar      1 <0>        -0.0980
      9 C9          4.1018   -3.0454   -0.8408 C.ar      1 <0>        -0.0924
     10 C10         3.9584   -4.4140   -0.7096 C.ar      1 <0>        -0.1192
     11 C11         3.2684   -4.9364    0.3683 C.ar      1 <0>        -0.1040
     12 C12         2.7222   -4.0902    1.3152 C.ar      1 <0>        -0.1220
     13 C13         2.8693   -2.7218    1.1862 C.ar      1 <0>        -0.0909
     14 C14         4.5372   -0.4037   -1.2609 C.ar      1 <0>        -0.0899
     15 C15         5.7856    0.1744   -1.1262 C.ar      1 <0>        -0.0993
     16 C16         6.5434    0.4528   -2.2482 C.ar      1 <0>        -0.1105
     17 C17         6.0533    0.1533   -3.5058 C.ar      1 <0>        -0.0985
     18 C18         4.8053   -0.4246   -3.6418 C.ar      1 <0>        -0.1111
     19 C19         4.0487   -0.7087   -2.5187 C.ar      1 <0>        -0.0192
     20 Cl1         2.4837   -1.4408   -2.6883 Cl        1 <0>        -0.0484
     21 N1          4.3811   -0.1702    1.1495 N.pl3     1 <0>        -0.4460
     22 C20         5.5751   -0.5924    1.6690 C.2       1 <0>        -0.0513
     23 C21         5.8188    0.1680    2.7534 C.2       1 <0>        -0.0258
     24 N2          4.8014    1.0309    2.8923 N.2       1 <0>        -0.4890
     25 C22         3.9390    0.8376    1.9322 C.2       1 <0>         0.1875
     26 H1         -1.1143    1.5526   -0.5363 H         1 <0>         0.1257
     27 H2          0.9135    2.9461   -0.6315 H         1 <0>         0.1275
     28 H3          3.1337    1.9067   -0.4001 H         1 <0>         0.1221
     29 H4          1.2985   -1.9209    0.0142 H         1 <0>         0.1329
     30 H5         -0.9216   -0.8816   -0.2183 H         1 <0>         0.1255
     31 H6          4.6409   -2.6372   -1.6830 H         1 <0>         0.1253
     32 H7          4.3851   -5.0750   -1.4493 H         1 <0>         0.1258
     33 H8          3.1557   -6.0056    0.4705 H         1 <0>         0.1257
     34 H9          2.1828   -4.4983    2.1571 H         1 <0>         0.1266
     35 H10         2.4458   -2.0608    1.9279 H         1 <0>         0.1217
     36 H11         6.1689    0.4089   -0.1441 H         1 <0>         0.1411
     37 H12         7.5185    0.9047   -2.1424 H         1 <0>         0.1336
     38 H13         6.6456    0.3714   -4.3821 H         1 <0>         0.1361
     39 H14         4.4225   -0.6582   -4.6243 H         1 <0>         0.1382
     40 H15         6.2011   -1.3835    1.2836 H         1 <0>         0.1702
     41 H16         6.6821    0.0956    3.3983 H         1 <0>         0.1703
     42 H17         3.0222    1.3901    1.7888 H         1 <0>         0.2017
@<TRIPOS>BOND
     1    1    6 ar
     2    1    2 ar
     3    1   26 1
     4    2    3 ar
     5    2   27 1
     6    3    4 ar
     7    3   28 1
     8    4    5 ar
     9    4    7 1
    10    5    6 ar
    11    5   29 1
    12    6   30 1
    13    7    8 1
    14    7   14 1
    15    7   21 1
    16    8   13 ar
    17    8    9 ar
    18    9   10 ar
    19    9   31 1
    20   10   11 ar
    21   10   32 1
    22   11   12 ar
    23   11   33 1
    24   12   13 ar
    25   12   34 1
    26   13   35 1
    27   14   19 ar
    28   14   15 ar
    29   15   16 ar
    30   15   36 1
    31   16   17 ar
    32   16   37 1
    33   17   18 ar
    34   17   38 1
    35   18   19 ar
    36   18   39 1
    37   19   20 1
    38   21   25 1
    39   21   22 1
    40   22   23 2
    41   22   40 1
    42   23   24 1
    43   23   41 1
    44   24   25 2
    45   25   42 1
@<TRIPOS>MOLECULE
ZINC03807804
   43    46     0     0     0
SMALL
USER_CHARGES

@<TRIPOS>ATOM
      1 C1          0.5987    1.7832    1.4981 C.ar      1 <0>        -0.0892
      2 C2          0.3739    1.0091    0.3751 C.ar      1 <0>        -0.1131
      3 C3          1.3811    0.2033   -0.1220 C.ar      1 <0>        -0.1073
      4 C4          2.6134    0.1720    0.5037 C.ar      1 <0>        -0.1169
      5 C5          2.8385    0.9468    1.6262 C.ar      1 <0>        -0.0809
      6 C6          1.8308    1.7515    2.1240 C.ar      1 <0>        -0.1100
      7 C7          3.7112   -0.7071   -0.0376 C.3       1 <0>         0.3108
      8 C8          4.1045   -0.2308   -1.4122 C.ar      1 <0>        -0.1114
      9 C9          4.1390   -1.1216   -2.4687 C.ar      1 <0>        -0.1224
     10 C10         4.4997   -0.6846   -3.7296 C.ar      1 <0>        -0.1050
     11 C11         4.8255    0.6431   -3.9340 C.ar      1 <0>        -0.0966
     12 C12         4.7901    1.5341   -2.8777 C.ar      1 <0>        -0.1040
     13 C13         4.4252    1.0980   -1.6177 C.ar      1 <0>        -0.0870
     14 C14         4.9061   -0.6400    0.8783 C.ar      1 <0>        -0.1243
     15 C15         6.0946   -0.0984    0.4255 C.ar      1 <0>        -0.0806
     16 C16         7.1906   -0.0368    1.2654 C.ar      1 <0>        -0.1064
     17 C17         7.0990   -0.5167    2.5588 C.ar      1 <0>        -0.0779
     18 C18         5.9114   -1.0584    3.0126 C.ar      1 <0>        -0.1060
     19 C19         4.8121   -1.1151    2.1740 C.ar      1 <0>        -0.0235
     20 Cl1         3.3179   -1.7894    2.7455 Cl        1 <0>        -0.0546
     21 N1          3.2345   -2.0901   -0.1178 N.pl3     1 <0>        -0.3928
     22 C20         1.9543   -2.5219    0.1018 C.2       1 <0>         0.0325
     23 C21         1.9573   -3.8567   -0.0767 C.2       1 <0>         0.0033
     24 N2          3.2053   -4.2297   -0.3965 N.pl3     1 <0>        -0.4715
     25 C22         3.9747   -3.1761   -0.4280 C.cat     1 <0>         0.2859
     26 H1         -0.1868    2.4161    1.8838 H         1 <0>         0.1340
     27 H2         -0.5889    1.0335   -0.1137 H         1 <0>         0.1343
     28 H3          1.2053   -0.4020   -0.9989 H         1 <0>         0.1246
     29 H4          3.8010    0.9218    2.1154 H         1 <0>         0.1290
     30 H5          2.0066    2.3566    3.0012 H         1 <0>         0.1338
     31 H6          3.8845   -2.1589   -2.3090 H         1 <0>         0.1110
     32 H7          4.5274   -1.3807   -4.5549 H         1 <0>         0.1325
     33 H8          5.1080    0.9843   -4.9190 H         1 <0>         0.1349
     34 H9          5.0450    2.5713   -3.0374 H         1 <0>         0.1371
     35 H10         4.3939    1.7949   -0.7931 H         1 <0>         0.1317
     36 H11         6.1669    0.2763   -0.5848 H         1 <0>         0.1476
     37 H12         8.1191    0.3861    0.9110 H         1 <0>         0.1431
     38 H13         7.9558   -0.4686    3.2145 H         1 <0>         0.1451
     39 H14         5.8400   -1.4335    4.0228 H         1 <0>         0.1446
     40 H15         1.1050   -1.9099    0.3675 H         1 <0>         0.2211
     41 H16         1.1044   -4.5120    0.0207 H         1 <0>         0.2258
     42 H17         5.0293   -3.1735   -0.6609 H         1 <0>         0.2540
     43 H18         3.4903   -5.1387   -0.5793 H         1 <0>         0.4647
@<TRIPOS>BOND
     1    1    6 ar
     2    1    2 ar
     3    1   26 1
     4    2    3 ar
     5    2   27 1
     6    3    4 ar
     7    3   28 1
     8    4    5 ar
     9    4    7 1
    10    5    6 ar
    11    5   29 1
    12    6   30 1
    13    7    8 1
    14    7   14 1
    15    7   21 1
    16    8   13 ar
    17    8    9 ar
    18    9   10 ar
    19    9   31 1
    20   10   11 ar
    21   10   32 1
    22   11   12 ar
    23   11   33 1
    24   12   13 ar
    25   12   34 1
    26   13   35 1
    27   14   19 ar
    28   14   15 ar
    29   15   16 ar
    30   15   36 1
    31   16   17 ar
    32   16   37 1
    33   17   18 ar
    34   17   38 1
    35   18   19 ar
    36   18   39 1
    37   19   20 1
    38   21   25 1
    39   21   22 1
    40   22   23 2
    41   22   40 1
    42   23   24 1
    43   23   41 1
    44   24   25 2
    45   24   43 1
    46   25   42 1
@<TRIPOS>MOLECULE
ZINC07997390
   43    46     0     0     0
SMALL
USER_CHARGES

@<TRIPOS>ATOM
      1 C1         -0.0167    1.3781    0.0096 C.ar      1 <0>        -0.1243
      2 C2          1.1709    2.0855    0.0021 C.ar      1 <0>        -0.1179
      3 C3          2.3773    1.4107   -0.0130 C.ar      1 <0>        -0.1181
      4 C4          2.3960    0.0285   -0.0201 C.ar      1 <0>        -0.0844
      5 C5          1.2084   -0.6789   -0.0117 C.ar      1 <0>        -0.1182
      6 C6          0.0021   -0.0041    0.0020 C.ar      1 <0>        -0.1180
      7 C7          3.7112   -0.7071   -0.0376 C.3       1 <0>        -0.0795
      8 C8          4.1714   -0.9633    1.3989 C.3       1 <0>        -0.1108
      9 C9          5.5066   -1.7102    1.3812 C.3       1 <0>        -0.1189
     10 C10         5.9667   -1.9663    2.8177 C.3       1 <0>         0.0654
     11 O1          7.2138   -2.6639    2.8011 O.3       1 <0>        -0.3258
     12 C11         7.7638   -2.9705    4.0024 C.ar      1 <0>         0.2198
     13 C12         8.6367   -2.0739    4.6324 C.ar      1 <0>        -0.1937
     14 C13         8.9721   -0.7929    4.0103 C.2       1 <0>         0.0115
     15 C14         9.8241    0.0373    4.6678 C.2       1 <0>        -0.2474
     16 C15        10.3566   -0.3487    5.9139 C.2       1 <0>         0.5115
     17 O2         11.1186    0.4054    6.4920 O.2       1 <0>        -0.4549
     18 O3         10.0464   -1.5248    6.4812 O.3       1 <0>        -0.2669
     19 C16         9.2053   -2.3985    5.8823 C.ar      1 <0>         0.1849
     20 C17         8.9020   -3.6034    6.4888 C.ar      1 <0>        -0.1347
     21 C18         8.0378   -4.4998    5.8723 C.ar      1 <0>         0.1229
     22 C19         7.4632   -4.1791    4.6283 C.ar      1 <0>        -0.1728
     23 C20         6.6129   -5.3258    4.2806 C.2       1 <0>        -0.1902
     24 C21         6.7312   -6.1971    5.2901 C.2       1 <0>         0.0139
     25 O4          7.5746   -5.7172    6.2222 O.3       1 <0>        -0.1850
     26 H1         -0.9591    1.9053    0.0259 H         1 <0>         0.1214
     27 H2          1.1563    3.1654    0.0076 H         1 <0>         0.1220
     28 H3          3.3051    1.9634   -0.0196 H         1 <0>         0.1211
     29 H4          1.2231   -1.7588   -0.0176 H         1 <0>         0.1209
     30 H5         -0.9258   -0.5567    0.0082 H         1 <0>         0.1218
     31 H6          3.5884   -1.6586   -0.5549 H         1 <0>         0.0748
     32 H7          4.4573   -0.1052   -0.5563 H         1 <0>         0.0749
     33 H8          4.2941   -0.0118    1.9163 H         1 <0>         0.0679
     34 H9          3.4252   -1.5652    1.9176 H         1 <0>         0.0678
     35 H10         5.3838   -2.6617    0.8639 H         1 <0>         0.0773
     36 H11         6.2527   -1.1082    0.8625 H         1 <0>         0.0767
     37 H12         6.0895   -1.0148    3.3350 H         1 <0>         0.0597
     38 H13         5.2206   -2.5682    3.3364 H         1 <0>         0.0617
     39 H14         8.5542   -0.5145    3.0542 H         1 <0>         0.1558
     40 H15        10.0926    0.9901    4.2361 H         1 <0>         0.1681
     41 H16         9.3388   -3.8490    7.4455 H         1 <0>         0.1580
     42 H17         6.0129   -5.4422    3.3902 H         1 <0>         0.1650
     43 H18         6.2290   -7.1518    5.3442 H         1 <0>         0.2167
@<TRIPOS>BOND
     1    1    6 ar
     2    1    2 ar
     3    1   26 1
     4    2    3 ar
     5    2   27 1
     6    3    4 ar
     7    3   28 1
     8    4    5 ar
     9    4    7 1
    10    5    6 ar
    11    5   29 1
    12    6   30 1
    13    7    8 1
    14    7   31 1
    15    7   32 1
    16    8    9 1
    17    8   33 1
    18    8   34 1
    19    9   10 1
    20    9   35 1
    21    9   36 1
    22   10   11 1
    23   10   37 1
    24   10   38 1
    25   11   12 1
    26   12   22 ar
    27   12   13 ar
    28   13   19 ar
    29   13   14 1
    30   14   15 2
    31   14   39 1
    32   15   16 1
    33   15   40 1
    34   16   17 2
    35   16   18 1
    36   18   19 1
    37   19   20 ar
    38   20   21 ar
    39   20   41 1
    40   21   25 1
    41   21   22 ar
    42   22   23 1
    43   23   24 2
    44   23   42 1
    45   24   25 1
    46   24   43 1
@<TRIPOS>MOLECULE
ZINC04046595
   50    53     0     0     0
SMALL
USER_CHARGES

@<TRIPOS>ATOM
      1 C1          0.2299    1.3334    1.8169 C.ar      1 <0>        -0.0802
      2 C2          1.3865    2.0529    1.5735 C.ar      1 <0>        -0.1309
      3 C3          2.5541    1.3967    1.2435 C.ar      1 <0>        -0.0538
      4 C4          2.5672    0.0033    1.1554 C.ar      1 <0>        -0.1309
      5 C5          1.3965   -0.7165    1.4023 C.ar      1 <0>        -0.0615
      6 C6          0.2358   -0.0476    1.7313 C.ar      1 <0>        -0.1330
      7 C7          3.8138   -0.7062    0.8021 C.2       1 <0>         0.5120
      8 O1          4.8306   -0.0773    0.5875 O.2       1 <0>        -0.5004
      9 O2          3.8230   -2.0506    0.7179 O.3       1 <0>        -0.3444
     10 C8          5.0631   -2.6706    0.3717 C.3       1 <0>         0.0678
     11 C9          4.8788   -4.1887    0.3250 C.3       1 <0>        -0.1595
     12 C10         6.2066   -4.8524   -0.0457 C.3       1 <0>         0.0831
     13 N1          6.0301   -6.3061   -0.0903 N.pl3     1 <0>        -0.4875
     14 C11         5.7649   -6.9410   -1.3073 C.ar      1 <0>         0.1340
     15 C12         5.8360   -6.2254   -2.4957 C.ar      1 <0>        -0.1491
     16 C13         5.5733   -6.8556   -3.6962 C.ar      1 <0>        -0.0989
     17 C14         5.2397   -8.1975   -3.7160 C.ar      1 <0>        -0.1304
     18 C15         5.1676   -8.9127   -2.5346 C.ar      1 <0>        -0.0970
     19 C16         5.4351   -8.2901   -1.3313 C.ar      1 <0>        -0.1400
     20 C17         6.1258   -7.0482    1.0680 C.2       1 <0>         0.5078
     21 N2          6.1230   -8.3425    1.0188 N.2       1 <0>        -0.8652
     22 S1          6.2541   -8.8607    2.6047 S.o2      1 <0>         2.5624
     23 O3          5.0279   -9.4856    2.9588 O.2       1 <0>        -0.9373
     24 O4          7.5225   -9.4838    2.7533 O.2       1 <0>        -0.9370
     25 C18         6.3205   -7.2947    3.4314 C.ar      1 <0>        -0.6102
     26 C19         6.2381   -6.3789    2.3729 C.ar      1 <0>        -0.1202
     27 C20         6.2693   -5.0140    2.6967 C.ar      1 <0>        -0.0781
     28 C21         6.3816   -4.6135    4.0095 C.ar      1 <0>        -0.0854
     29 C22         6.4657   -5.5410    5.0322 C.ar      1 <0>        -0.0866
     30 C23         6.4264   -6.8956    4.7313 C.ar      1 <0>         0.0071
     31 H1         -0.6805    1.8518    2.0792 H         1 <0>         0.1318
     32 H2          1.3749    3.1307    1.6416 H         1 <0>         0.1351
     33 H3          3.4561    1.9595    1.0534 H         1 <0>         0.1385
     34 H4          1.3996   -1.7944    1.3355 H         1 <0>         0.1383
     35 H5         -0.6705   -0.6031    1.9224 H         1 <0>         0.1337
     36 H6          5.3872   -2.3137   -0.6059 H         1 <0>         0.0796
     37 H7          5.8161   -2.4187    1.1184 H         1 <0>         0.0743
     38 H8          4.5547   -4.5456    1.3026 H         1 <0>         0.0921
     39 H9          4.1258   -4.4405   -0.4217 H         1 <0>         0.0972
     40 H10         6.5307   -4.4956   -1.0233 H         1 <0>         0.1158
     41 H11         6.9596   -4.6006    0.7010 H         1 <0>         0.1080
     42 H12         6.0961   -5.1773   -2.4809 H         1 <0>         0.1271
     43 H13         5.6281   -6.2997   -4.6205 H         1 <0>         0.1284
     44 H14         5.0348   -8.6880   -4.6561 H         1 <0>         0.1250
     45 H15         4.9061   -9.9604   -2.5535 H         1 <0>         0.1298
     46 H16         5.3837   -8.8504   -0.4094 H         1 <0>         0.1898
     47 H17         6.2053   -4.2740    1.9127 H         1 <0>         0.1563
     48 H18         6.4047   -3.5595    4.2439 H         1 <0>         0.1456
     49 H19         6.5535   -5.2137    6.0577 H         1 <0>         0.1493
     50 H20         6.4922   -7.6294    5.5211 H         1 <0>         0.1473
@<TRIPOS>BOND
     1    1    6 ar
     2    1    2 ar
     3    1   31 1
     4    2    3 ar
     5    2   32 1
     6    3    4 ar
     7    3   33 1
     8    4    5 ar
     9    4    7 1
    10    5    6 ar
    11    5   34 1
    12    6   35 1
    13    7    8 2
    14    7    9 1
    15    9   10 1
    16   10   11 1
    17   10   36 1
    18   10   37 1
    19   11   12 1
    20   11   38 1
    21   11   39 1
    22   12   13 1
    23   12   40 1
    24   12   41 1
    25   13   14 1
    26   13   20 1
    27   14   19 ar
    28   14   15 ar
    29   15   16 ar
    30   15   42 1
    31   16   17 ar
    32   16   43 1
    33   17   18 ar
    34   17   44 1
    35   18   19 ar
    36   18   45 1
    37   19   46 1
    38   20   26 1
    39   20   21 2
    40   21   22 1
    41   22   23 2
    42   22   24 2
    43   22   25 1
    44   25   30 ar
    45   25   26 ar
    46   26   27 ar
    47   27   28 ar
    48   27   47 1
    49   28   29 ar
    50   28   48 1
    51   29   30 ar
    52   29   49 1
    53   30   50 1
@<TRIPOS>MOLECULE
ZINC05338351
   38    40     0     0     0
SMALL
USER_CHARGES

@<TRIPOS>ATOM
      1 C1         -0.1397    1.1326    0.1352 C.ar      1 <0>        -0.1312
      2 C2          0.9701    1.8929   -0.1853 C.ar      1 <0>        -0.0971
      3 C3          2.2184    1.3050   -0.2434 C.ar      1 <0>        -0.1434
      4 C4          2.3585   -0.0514    0.0211 C.ar      1 <0>         0.1337
      5 C5          1.2418   -0.8121    0.3432 C.ar      1 <0>        -0.1496
      6 C6         -0.0037   -0.2180    0.3990 C.ar      1 <0>        -0.0994
      7 N1          3.6207   -0.6498   -0.0372 N.pl3     1 <0>        -0.4869
      8 C7          3.7494   -2.1028    0.0985 C.3       1 <0>         0.0825
      9 C8          3.8691   -2.7361   -1.2891 C.3       1 <0>        -0.1627
     10 C9          4.0036   -4.2536   -1.1473 C.3       1 <0>         0.0783
     11 O1          4.1153   -4.8450   -2.4434 O.3       1 <0>        -0.5693
     12 C10         4.7445    0.1276   -0.2226 C.2       1 <0>         0.5077
     13 N2          4.6550    1.4198   -0.2177 N.2       1 <0>        -0.8663
     14 S1          6.2093    1.9867   -0.4704 S.o2      1 <0>         2.5614
     15 O2          6.2410    2.6087   -1.7476 O.2       1 <0>        -0.9377
     16 O3          6.6360    2.6275    0.7240 O.2       1 <0>        -0.9380
     17 C11         7.0771    0.4470   -0.5980 C.ar      1 <0>        -0.6102
     18 C12         6.0591   -0.5010   -0.4220 C.ar      1 <0>        -0.1207
     19 C13         6.4241   -1.8551   -0.4645 C.ar      1 <0>        -0.0774
     20 C14         7.7378   -2.2149   -0.6668 C.ar      1 <0>        -0.0862
     21 C15         8.7213   -1.2563   -0.8318 C.ar      1 <0>        -0.0873
     22 C16         8.3769    0.0882   -0.8032 C.ar      1 <0>         0.0059
     23 H1         -1.1142    1.5957    0.1840 H         1 <0>         0.1249
     24 H2          0.8604    2.9475   -0.3908 H         1 <0>         0.1298
     25 H3          3.0846    1.8991   -0.4945 H         1 <0>         0.1940
     26 H4          1.3473   -1.8670    0.5490 H         1 <0>         0.1269
     27 H5         -0.8724   -0.8089    0.6490 H         1 <0>         0.1283
     28 H6          4.6400   -2.3357    0.6822 H         1 <0>         0.1044
     29 H7          2.8694   -2.4999    0.6044 H         1 <0>         0.1140
     30 H8          2.9785   -2.5032   -1.8728 H         1 <0>         0.0906
     31 H9          4.7492   -2.3391   -1.7950 H         1 <0>         0.0883
     32 H10         4.8942   -4.4864   -0.5637 H         1 <0>         0.0500
     33 H11         3.1235   -4.6506   -0.6414 H         1 <0>         0.0552
     34 H12         4.2040   -5.8079   -2.4300 H         1 <0>         0.3866
     35 H13         5.6711   -2.6189   -0.3376 H         1 <0>         0.1594
     36 H14         8.0043   -3.2611   -0.6969 H         1 <0>         0.1456
     37 H15         9.7481   -1.5517   -0.9894 H         1 <0>         0.1489
     38 H16         9.1359    0.8460   -0.9305 H         1 <0>         0.1470
@<TRIPOS>BOND
     1    1    6 ar
     2    1    2 ar
     3    1   23 1
     4    2    3 ar
     5    2   24 1
     6    3    4 ar
     7    3   25 1
     8    4    5 ar
     9    4    7 1
    10    5    6 ar
    11    5   26 1
    12    6   27 1
    13    7    8 1
    14    7   12 1
    15    8    9 1
    16    8   28 1
    17    8   29 1
    18    9   10 1
    19    9   30 1
    20    9   31 1
    21   10   11 1
    22   10   32 1
    23   10   33 1
    24   11   34 1
    25   12   18 1
    26   12   13 2
    27   13   14 1
    28   14   15 2
    29   14   16 2
    30   14   17 1
    31   17   22 ar
    32   17   18 ar
    33   18   19 ar
    34   19   20 ar
    35   19   35 1
    36   20   21 ar
    37   20   36 1
    38   21   22 ar
    39   21   37 1
    40   22   38 1
@<TRIPOS>MOLECULE
ZINC59514333
   38    41     0     0     0
SMALL
USER_CHARGES

@<TRIPOS>ATOM
      1 C1          0.3495    0.4617   -2.3629 C.ar      1 <0>        -0.1097
      2 C2          0.7502    1.2618   -1.3086 C.ar      1 <0>        -0.1081
      3 C3          1.8343    0.8960   -0.5353 C.ar      1 <0>        -0.1084
      4 C4          2.5225   -0.2770   -0.8175 C.ar      1 <0>         0.1355
      5 C5          2.1175   -1.0785   -1.8772 C.ar      1 <0>        -0.0956
      6 C6          1.0326   -0.7069   -2.6466 C.ar      1 <0>        -0.1062
      7 N1          3.6215   -0.6503   -0.0363 N.pl3     1 <0>        -0.4732
      8 C7          4.7727    0.1445   -0.0234 C.ar      1 <0>         0.1106
      9 C8          5.7277    0.0027   -1.0221 C.ar      1 <0>        -0.1076
     10 C9          6.8630    0.7888   -1.0063 C.ar      1 <0>        -0.1087
     11 C10         7.0497    1.7164    0.0022 C.ar      1 <0>        -0.1029
     12 C11         6.1009    1.8601    0.9979 C.ar      1 <0>        -0.1067
     13 C12         4.9606    1.0812    0.9849 C.ar      1 <0>        -0.1093
     14 C13         3.5699   -1.8030    0.7218 C.2       1 <0>         0.5166
     15 N2          2.4615   -2.4638    0.8345 N.2       1 <0>        -0.8669
     16 S1          2.8079   -3.7737    1.8169 S.o2      1 <0>         2.5787
     17 O1          2.1083   -3.5941    3.0406 O.2       1 <0>        -0.9376
     18 O2          2.7095   -4.9482    1.0232 O.2       1 <0>        -0.9381
     19 C14         4.5264   -3.4736    2.1283 C.ar      1 <0>        -0.6149
     20 C15         4.7742   -2.2978    1.4056 C.ar      1 <0>        -0.1209
     21 C16         6.0786   -1.7818    1.4405 C.ar      1 <0>        -0.0572
     22 C17         7.0615   -2.4251    2.1592 C.ar      1 <0>        -0.0871
     23 C18         6.7878   -3.5870    2.8580 C.ar      1 <0>        -0.0887
     24 C19         5.5002   -4.1058    2.8439 C.ar      1 <0>         0.0045
     25 H1         -0.5014    0.7477   -2.9634 H         1 <0>         0.1288
     26 H2          0.2149    2.1740   -1.0900 H         1 <0>         0.1305
     27 H3          2.1469    1.5216    0.2878 H         1 <0>         0.1253
     28 H4          2.6507   -1.9910   -2.0994 H         1 <0>         0.1253
     29 H5          0.7171   -1.3295   -3.4707 H         1 <0>         0.1313
     30 H6          5.5827   -0.7218   -1.8098 H         1 <0>         0.1335
     31 H7          7.6061    0.6788   -1.7823 H         1 <0>         0.1365
     32 H8          7.9386    2.3297    0.0124 H         1 <0>         0.1342
     33 H9          6.2497    2.5855    1.7841 H         1 <0>         0.1362
     34 H10         4.2177    1.1972    1.7602 H         1 <0>         0.1326
     35 H11         6.3129   -0.8761    0.9009 H         1 <0>         0.1496
     36 H12         8.0610   -2.0165    2.1771 H         1 <0>         0.1440
     37 H13         7.5678   -4.0821    3.4172 H         1 <0>         0.1482
     38 H14         5.2742   -5.0126    3.3854 H         1 <0>         0.1462
@<TRIPOS>BOND
     1    1    6 ar
     2    1    2 ar
     3    1   25 1
     4    2    3 ar
     5    2   26 1
     6    3    4 ar
     7    3   27 1
     8    4    5 ar
     9    4    7 1
    10    5    6 ar
    11    5   28 1
    12    6   29 1
    13    7    8 1
    14    7   14 1
    15    8   13 ar
    16    8    9 ar
    17    9   10 ar
    18    9   30 1
    19   10   11 ar
    20   10   31 1
    21   11   12 ar
    22   11   32 1
    23   12   13 ar
    24   12   33 1
    25   13   34 1
    26   14   20 1
    27   14   15 2
    28   15   16 1
    29   16   17 2
    30   16   18 2
    31   16   19 1
    32   19   24 ar
    33   19   20 ar
    34   20   21 ar
    35   21   22 ar
    36   21   35 1
    37   22   23 ar
    38   22   36 1
    39   23   24 ar
    40   23   37 1
    41   24   38 1
@<TRIPOS>MOLECULE
ZINC17919916
   48    50     0     0     0
SMALL
USER_CHARGES

@<TRIPOS>ATOM
      1 C1          0.6867    1.9051   -0.5958 C.3       1 <0>        -0.1572
      2 C2          0.5075    0.3927   -0.4493 C.3       1 <0>        -0.1252
      3 C3          1.1666   -0.3162   -1.6341 C.3       1 <0>        -0.1192
      4 C4          0.9874   -1.8286   -1.4875 C.3       1 <0>        -0.1416
      5 C5          1.6466   -2.5375   -2.6724 C.3       1 <0>         0.0708
      6 N1          1.4750   -3.9856   -2.5321 N.pl3     1 <0>        -0.6060
      7 C6          0.7437   -4.6482   -3.4010 C.2       1 <0>         0.3772
      8 C7         -0.0172   -3.9573   -4.4531 C.2       1 <0>        -0.2820
      9 C8         -0.5375   -4.6798   -5.4624 C.2       1 <0>         0.2290
     10 N2         -0.3731   -6.0300   -5.5447 N.pl3     1 <0>        -0.4730
     11 C9          0.0740   -6.7758   -4.4716 C.ar      1 <0>         0.2069
     12 C10         0.6521   -6.1253   -3.3705 C.ar      1 <0>        -0.1559
     13 C11         1.1161   -6.8627   -2.2866 C.ar      1 <0>        -0.0542
     14 C12         1.0066   -8.2377   -2.3031 C.ar      1 <0>        -0.1228
     15 C13         0.4385   -8.8815   -3.3918 C.ar      1 <0>        -0.0299
     16 C14        -0.0331   -8.1618   -4.4655 C.ar      1 <0>        -0.1556
     17 C15        -0.6793   -6.7093   -6.8060 C.3       1 <0>         0.1250
     18 C16         0.5572   -6.7528   -7.6663 C.ar      1 <0>        -0.1371
     19 C17         0.8227   -5.7214   -8.5476 C.ar      1 <0>        -0.0988
     20 C18         1.9569   -5.7612   -9.3367 C.ar      1 <0>        -0.1163
     21 C19         2.8260   -6.8323   -9.2442 C.ar      1 <0>        -0.0975
     22 C20         2.5610   -7.8632   -8.3623 C.ar      1 <0>        -0.1165
     23 C21         1.4289   -7.8213   -7.5701 C.ar      1 <0>        -0.0973
     24 H1          1.7498    2.1446   -0.6168 H         1 <0>         0.0564
     25 H2          0.2208    2.2380   -1.5233 H         1 <0>         0.0559
     26 H3          0.2171    2.4101    0.2483 H         1 <0>         0.0593
     27 H4          0.9733    0.0598    0.4783 H         1 <0>         0.0639
     28 H5         -0.5557    0.1531   -0.4282 H         1 <0>         0.0633
     29 H6          0.7008    0.0167   -2.5616 H         1 <0>         0.0696
     30 H7          2.2298   -0.0767   -1.6551 H         1 <0>         0.0708
     31 H8          1.4533   -2.1615   -0.5600 H         1 <0>         0.0777
     32 H9         -0.0757   -2.0681   -1.4665 H         1 <0>         0.0762
     33 H10         1.1807   -2.2046   -3.5999 H         1 <0>         0.1111
     34 H11         2.7097   -2.2979   -2.6934 H         1 <0>         0.1104
     35 H12        -0.1564   -2.8869   -4.4161 H         1 <0>         0.1787
     36 H13        -1.1027   -4.1737   -6.2311 H         1 <0>         0.1901
     37 H14         1.5587   -6.3625   -1.4379 H         1 <0>         0.1403
     38 H15         1.3653   -8.8155   -1.4642 H         1 <0>         0.1496
     39 H16         0.3576   -9.9585   -3.3931 H         1 <0>         0.1518
     40 H17        -0.4736   -8.6744   -5.3079 H         1 <0>         0.1509
     41 H18        -1.0140   -7.7258   -6.5992 H         1 <0>         0.1154
     42 H19        -1.4669   -6.1668   -7.3290 H         1 <0>         0.1193
     43 H20         0.1437   -4.8846   -8.6198 H         1 <0>         0.1254
     44 H21         2.1639   -4.9558  -10.0258 H         1 <0>         0.1310
     45 H22         3.7118   -6.8637   -9.8613 H         1 <0>         0.1307
     46 H23         3.2398   -8.7001   -8.2903 H         1 <0>         0.1303
     47 H24         1.2238   -8.6249   -6.8783 H         1 <0>         0.1234
     48 H25         1.9008   -4.4556   -1.7981 H         1 <0>         0.4257
@<TRIPOS>BOND
     1    1    2 1
     2    1   24 1
     3    1   25 1
     4    1   26 1
     5    2    3 1
     6    2   27 1
     7    2   28 1
     8    3    4 1
     9    3   29 1
    10    3   30 1
    11    4    5 1
    12    4   31 1
    13    4   32 1
    14    5    6 1
    15    5   33 1
    16    5   34 1
    17    6    7 2
    18    6   48 1
    19    7   12 1
    20    7    8 1
    21    8    9 2
    22    8   35 1
    23    9   10 1
    24    9   36 1
    25   10   11 1
    26   10   17 1
    27   11   16 ar
    28   11   12 ar
    29   12   13 ar
    30   13   14 ar
    31   13   37 1
    32   14   15 ar
    33   14   38 1
    34   15   16 ar
    35   15   39 1
    36   16   40 1
    37   17   18 1
    38   17   41 1
    39   17   42 1
    40   18   23 ar
    41   18   19 ar
    42   19   20 ar
    43   19   43 1
    44   20   21 ar
    45   20   44 1
    46   21   22 ar
    47   21   45 1
    48   22   23 ar
    49   22   46 1
    50   23   47 1
@<TRIPOS>MOLECULE
ZINC17919916
   48    50     0     0     0
SMALL
USER_CHARGES

@<TRIPOS>ATOM
      1 C1          0.0655    0.8457    1.1750 C.3       1 <0>        -0.1570
      2 C2          0.4043   -0.6267    0.9342 C.3       1 <0>        -0.1249
      3 C3          0.6081   -0.8650   -0.5633 C.3       1 <0>        -0.1189
      4 C4          0.9468   -2.3374   -0.8040 C.3       1 <0>        -0.1384
      5 C5          1.1506   -2.5757   -2.3016 C.3       1 <0>         0.0585
      6 N1          1.4750   -3.9856   -2.5321 N.pl3     1 <0>        -0.6165
      7 C6          0.7703   -4.6907   -3.3895 C.2       1 <0>         0.3772
      8 C7          0.7139   -6.1586   -3.3172 C.2       1 <0>        -0.2726
      9 C8         -0.2105   -6.8120   -4.0452 C.2       1 <0>         0.2251
     10 N2         -1.1018   -6.1551   -4.8395 N.pl3     1 <0>        -0.4701
     11 C9         -0.9349   -4.8262   -5.1770 C.ar      1 <0>         0.2069
     12 C10        -0.0087   -4.0443   -4.4695 C.ar      1 <0>        -0.1532
     13 C11         0.1639   -2.7023   -4.7907 C.ar      1 <0>        -0.0692
     14 C12        -0.5836   -2.1451   -5.8072 C.ar      1 <0>        -0.1252
     15 C13        -1.5012   -2.9159   -6.5046 C.ar      1 <0>        -0.0285
     16 C14        -1.6735   -4.2471   -6.2024 C.ar      1 <0>        -0.1574
     17 C15        -2.2692   -6.8784   -5.3498 C.3       1 <0>         0.1244
     18 C16        -3.4104   -6.7417   -4.3752 C.ar      1 <0>        -0.1373
     19 C17        -3.5652   -7.6652   -3.3582 C.ar      1 <0>        -0.0984
     20 C18        -4.6120   -7.5399   -2.4642 C.ar      1 <0>        -0.1161
     21 C19        -5.5038   -6.4908   -2.5868 C.ar      1 <0>        -0.0972
     22 C20        -5.3485   -5.5668   -3.6032 C.ar      1 <0>        -0.1165
     23 C21        -4.2992   -5.6897   -4.4946 C.ar      1 <0>        -0.0974
     24 H1          0.8835    1.4702    0.8157 H         1 <0>         0.0567
     25 H2         -0.8487    1.1006    0.6388 H         1 <0>         0.0555
     26 H3         -0.0796    1.0155    2.2418 H         1 <0>         0.0596
     27 H4          1.3185   -0.8816    1.4703 H         1 <0>         0.0649
     28 H5         -0.4136   -1.2512    1.2935 H         1 <0>         0.0631
     29 H6         -0.3061   -0.6101   -1.0994 H         1 <0>         0.0685
     30 H7          1.4260   -0.2405   -0.9226 H         1 <0>         0.0715
     31 H8          1.8610   -2.5923   -0.2679 H         1 <0>         0.0793
     32 H9          0.1289   -2.9619   -0.4447 H         1 <0>         0.0762
     33 H10         0.2364   -2.3208   -2.8377 H         1 <0>         0.1158
     34 H11         1.9685   -1.9512   -2.6608 H         1 <0>         0.1054
     35 H12         1.4038   -6.7037   -2.6900 H         1 <0>         0.1776
     36 H13        -0.2473   -7.8903   -3.9981 H         1 <0>         0.1914
     37 H14         0.8784   -2.1007   -4.2483 H         1 <0>         0.1556
     38 H15        -0.4538   -1.1034   -6.0609 H         1 <0>         0.1500
     39 H16        -2.0804   -2.4687   -7.2990 H         1 <0>         0.1518
     40 H17        -2.3913   -4.8374   -6.7527 H         1 <0>         0.1509
     41 H18        -2.5623   -6.4614   -6.3133 H         1 <0>         0.1157
     42 H19        -2.0191   -7.9323   -5.4710 H         1 <0>         0.1197
     43 H20        -2.8684   -8.4848   -3.2625 H         1 <0>         0.1255
     44 H21        -4.7333   -8.2618   -1.6701 H         1 <0>         0.1311
     45 H22        -6.3221   -6.3933   -1.8887 H         1 <0>         0.1308
     46 H23        -6.0454   -4.7474   -3.6991 H         1 <0>         0.1303
     47 H24        -4.1757   -4.9657   -5.2864 H         1 <0>         0.1234
     48 H25         2.2096   -4.3990   -2.0521 H         1 <0>         0.4323
@<TRIPOS>BOND
     1    1    2 1
     2    1   24 1
     3    1   25 1
     4    1   26 1
     5    2    3 1
     6    2   27 1
     7    2   28 1
     8    3    4 1
     9    3   29 1
    10    3   30 1
    11    4    5 1
    12    4   31 1
    13    4   32 1
    14    5    6 1
    15    5   33 1
    16    5   34 1
    17    6    7 2
    18    6   48 1
    19    7   12 1
    20    7    8 1
    21    8    9 2
    22    8   35 1
    23    9   10 1
    24    9   36 1
    25   10   11 1
    26   10   17 1
    27   11   16 ar
    28   11   12 ar
    29   12   13 ar
    30   13   14 ar
    31   13   37 1
    32   14   15 ar
    33   14   38 1
    34   15   16 ar
    35   15   39 1
    36   16   40 1
    37   17   18 1
    38   17   41 1
    39   17   42 1
    40   18   23 ar
    41   18   19 ar
    42   19   20 ar
    43   19   43 1
    44   20   21 ar
    45   20   44 1
    46   21   22 ar
    47   21   45 1
    48   22   23 ar
    49   22   46 1
    50   23   47 1
@<TRIPOS>MOLECULE
ZINC05101601
   40    42     0     0     0
SMALL
USER_CHARGES
1-(6-hydroxy-4,7-dimethoxy-benzofuran-5-yl)-3-phenyl-prop-2-en-1-one
@<TRIPOS>ATOM
      1 C1          3.2133    4.6041   -1.1864 C.3       1 <0>         0.0320
      2 O1          2.5427    4.5742    0.0751 O.3       1 <0>        -0.3279
      3 C2          1.1888    4.4914    0.0511 C.ar      1 <0>         0.1923
      4 C3          0.5602    3.2449    0.0492 C.ar      1 <0>        -0.1475
      5 C4          1.0422    1.8573    0.0689 C.2       1 <0>        -0.1927
      6 C5         -0.0500    1.0828    0.0547 C.2       1 <0>         0.0127
      7 O2         -1.1582    1.8446    0.0224 O.3       1 <0>        -0.1789
      8 C6         -0.8415    3.1554    0.0239 C.ar      1 <0>         0.0757
      9 C7         -1.6081    4.3207    0.0007 C.ar      1 <0>         0.0772
     10 C8         -0.9927    5.5580    0.0025 C.ar      1 <0>         0.1595
     11 C9          0.4112    5.6552    0.0277 C.ar      1 <0>        -0.1962
     12 C10         1.0599    6.9767    0.0290 C.2       1 <0>         0.4566
     13 O3          1.4041    7.4871   -1.0221 O.2       1 <0>        -0.4496
     14 C11         1.2913    7.6774    1.2936 C.2       1 <0>        -0.2244
     15 C12         1.7849    8.9331    1.2885 C.2       1 <0>        -0.0078
     16 C13         2.0174    9.6374    2.5596 C.ar      1 <0>        -0.0838
     17 C14         1.7227    9.0106    3.7747 C.ar      1 <0>        -0.0959
     18 C15         1.9492    9.6749    4.9615 C.ar      1 <0>        -0.1227
     19 C16         2.4553   10.9631    4.9521 C.ar      1 <0>        -0.1045
     20 C17         2.7441   11.5923    3.7536 C.ar      1 <0>        -0.1240
     21 C18         2.5290   10.9392    2.5585 C.ar      1 <0>        -0.0924
     22 O4         -1.7474    6.6875   -0.0207 O.3       1 <0>        -0.4694
     23 O5         -2.9670    4.2386   -0.0238 O.3       1 <0>        -0.3141
     24 C19        -3.5909    4.1896   -1.3085 C.3       1 <0>         0.0302
     25 H1          2.8769    5.4703   -1.7562 H         1 <0>         0.0566
     26 H2          4.2891    4.6712   -1.0245 H         1 <0>         0.1023
     27 H3          2.9853    3.6937   -1.7408 H         1 <0>         0.0526
     28 H4          2.0706    1.5281    0.0908 H         1 <0>         0.1661
     29 H5         -0.0423    0.0028    0.0633 H         1 <0>         0.2164
     30 H6          1.0668    7.1892    2.2304 H         1 <0>         0.1356
     31 H7          2.0093    9.4213    0.3517 H         1 <0>         0.1351
     32 H8          1.3229    8.0074    3.7835 H         1 <0>         0.1289
     33 H9          1.7270    9.1904    5.9008 H         1 <0>         0.1273
     34 H10         2.6260   11.4800    5.8849 H         1 <0>         0.1256
     35 H11         3.1388   12.5976    3.7545 H         1 <0>         0.1273
     36 H12         2.7552   11.4313    1.6241 H         1 <0>         0.1284
     37 H13        -1.9495    7.0072   -0.9107 H         1 <0>         0.3960
     38 H14        -3.3418    5.0913   -1.8680 H         1 <0>         0.0465
     39 H15        -3.2348    3.3146   -1.8522 H         1 <0>         0.0488
     40 H16        -4.6720    4.1256   -1.1852 H         1 <0>         0.1020
@<TRIPOS>BOND
     1    1    2 1
     2    1   25 1
     3    1   26 1
     4    1   27 1
     5    2    3 1
     6    3   11 ar
     7    3    4 ar
     8    4    8 ar
     9    4    5 1
    10    5    6 2
    11    5   28 1
    12    6    7 1
    13    6   29 1
    14    7    8 1
    15    8    9 ar
    16    9   10 ar
    17    9   23 1
    18   10   11 ar
    19   10   22 1
    20   11   12 1
    21   12   13 2
    22   12   14 1
    23   14   15 2
    24   14   30 1
    25   15   16 1
    26   15   31 1
    27   16   21 ar
    28   16   17 ar
    29   17   18 ar
    30   17   32 1
    31   18   19 ar
    32   18   33 1
    33   19   20 ar
    34   19   34 1
    35   20   21 ar
    36   20   35 1
    37   21   36 1
    38   22   37 1
    39   23   24 1
    40   24   38 1
    41   24   39 1
    42   24   40 1
@<TRIPOS>MOLECULE
ZINC04716487
   34    35     0     0     0
SMALL
USER_CHARGES

@<TRIPOS>ATOM
      1 C1         -1.8892   -1.6064    3.6050 C.3       1 <0>         0.0240
      2 O1         -1.2463   -2.0256    2.3996 O.3       1 <0>        -0.3070
      3 C2         -1.8315   -1.6620    1.2309 C.ar      1 <0>         0.1935
      4 C3         -2.9946   -0.9140    1.2411 C.ar      1 <0>        -0.2478
      5 C4         -3.5955   -0.5411    0.0457 C.ar      1 <0>         0.1809
      6 C5         -3.0346   -0.9151   -1.1690 C.ar      1 <0>        -0.2089
      7 C6         -1.8722   -1.6629   -1.1970 C.ar      1 <0>         0.1969
      8 C7         -1.2548   -2.0393    0.0073 C.ar      1 <0>        -0.2197
      9 C8         -0.0142   -2.8299   -0.0130 C.2       1 <0>         0.4554
     10 O2          1.0631   -2.2705   -0.1158 O.2       1 <0>        -0.4503
     11 C9         -0.0744   -4.2895    0.0902 C.2       1 <0>        -0.2228
     12 C10         1.0647   -5.0071    0.1771 C.2       1 <0>        -0.0138
     13 C11         1.0042   -6.4738    0.2809 C.ar      1 <0>        -0.0814
     14 C12        -0.2320   -7.1279    0.2840 C.ar      1 <0>        -0.0980
     15 C13        -0.2803   -8.5024    0.3816 C.ar      1 <0>        -0.1228
     16 C14         0.8904   -9.2347    0.4763 C.ar      1 <0>        -0.1061
     17 C15         2.1177   -8.5948    0.4739 C.ar      1 <0>        -0.1234
     18 C16         2.1829   -7.2213    0.3712 C.ar      1 <0>        -0.0935
     19 O3         -1.3262   -2.0275   -2.3843 O.3       1 <0>        -0.4877
     20 O4         -4.7373    0.1922    0.0645 O.3       1 <0>        -0.4930
     21 H1         -1.3195   -1.9625    4.4634 H         1 <0>         0.1069
     22 H2         -1.9409   -0.5179    3.6296 H         1 <0>         0.0608
     23 H3         -2.8974   -2.0189    3.6415 H         1 <0>         0.0621
     24 H4         -3.4370   -0.6192    2.1812 H         1 <0>         0.1447
     25 H5         -3.5081   -0.6211   -2.0941 H         1 <0>         0.1449
     26 H6         -1.0306   -4.7914    0.0969 H         1 <0>         0.1332
     27 H7          2.0210   -4.5051    0.1705 H         1 <0>         0.1348
     28 H8         -1.1464   -6.5579    0.2105 H         1 <0>         0.1281
     29 H9         -1.2341   -9.0090    0.3845 H         1 <0>         0.1268
     30 H10         0.8460  -10.3110    0.5529 H         1 <0>         0.1253
     31 H11         3.0268   -9.1730    0.5485 H         1 <0>         0.1272
     32 H12         3.1415   -6.7237    0.3645 H         1 <0>         0.1285
     33 H13        -0.6902   -1.3902   -2.7370 H         1 <0>         0.4023
     34 H14        -4.5909    1.1481    0.0618 H         1 <0>         0.3997
@<TRIPOS>BOND
     1    1    2 1
     2    1   21 1
     3    1   22 1
     4    1   23 1
     5    2    3 1
     6    3    8 ar
     7    3    4 ar
     8    4    5 ar
     9    4   24 1
    10    5    6 ar
    11    5   20 1
    12    6    7 ar
    13    6   25 1
    14    7    8 ar
    15    7   19 1
    16    8    9 1
    17    9   10 2
    18    9   11 1
    19   11   12 2
    20   11   26 1
    21   12   13 1
    22   12   27 1
    23   13   18 ar
    24   13   14 ar
    25   14   15 ar
    26   14   28 1
    27   15   16 ar
    28   15   29 1
    29   16   17 ar
    30   16   30 1
    31   17   18 ar
    32   17   31 1
    33   18   32 1
    34   19   33 1
    35   20   34 1
@<TRIPOS>MOLECULE
ZINC13829441
   44    47     0     0     0
SMALL
USER_CHARGES

@<TRIPOS>ATOM
      1 C1         -0.0167    1.3784    0.0096 C.ar      1 <0>        -0.1582
      2 C2          1.1698    2.0883    0.0021 C.ar      1 <0>        -0.0802
      3 C3          2.3773    1.4175   -0.0134 C.ar      1 <0>        -0.1529
      4 C4          2.3989    0.0304   -0.0210 C.ar      1 <0>         0.1284
      5 C5          1.2070   -0.6796   -0.0130 C.ar      1 <0>        -0.2099
      6 C6          0.0021   -0.0041    0.0020 C.ar      1 <0>        -0.0804
      7 O1          3.5855   -0.6319   -0.0368 O.3       1 <0>        -0.3159
      8 C7          3.5315   -2.0598   -0.0438 C.3       1 <0>         0.0609
      9 C8          4.9536   -2.6239   -0.0615 C.3       1 <0>        -0.1169
     10 C9          4.8957   -4.1528   -0.0690 C.3       1 <0>        -0.1159
     11 C10         6.3178   -4.7169   -0.0867 C.3       1 <0>         0.0668
     12 O2          6.2638   -6.1449   -0.0937 O.3       1 <0>        -0.3252
     13 C11         7.4481   -6.8058   -0.1094 C.ar      1 <0>         0.2185
     14 C12         8.0578   -7.1399   -1.3257 C.ar      1 <0>        -0.1924
     15 C13         7.4325   -6.7842   -2.5997 C.2       1 <0>         0.0104
     16 C14         8.0700   -7.1337   -3.7481 C.2       1 <0>        -0.2463
     17 C15         9.2992   -7.8196   -3.6866 C.2       1 <0>         0.5115
     18 O3          9.8594   -8.1260   -4.7237 O.2       1 <0>        -0.4543
     19 O4          9.8695   -8.1440   -2.5158 O.3       1 <0>        -0.2668
     20 C16         9.2901   -7.8271   -1.3354 C.ar      1 <0>         0.1847
     21 C17         9.8993   -8.1727   -0.1433 C.ar      1 <0>        -0.1335
     22 C18         9.3028   -7.8465    1.0684 C.ar      1 <0>         0.1227
     23 C19         8.0766   -7.1561    1.0844 C.ar      1 <0>        -0.1719
     24 C20         7.7473   -6.9722    2.5045 C.2       1 <0>        -0.1910
     25 C21         8.7492   -7.5308    3.1946 C.2       1 <0>         0.0149
     26 O5          9.6599   -8.0524    2.3526 O.3       1 <0>        -0.1849
     27 H1         -0.9596    1.9047    0.0260 H         1 <0>         0.1246
     28 H2          1.1525    3.1682    0.0080 H         1 <0>         0.1301
     29 H3          3.3038    1.9724   -0.0200 H         1 <0>         0.1305
     30 H4          1.2211   -1.7595   -0.0193 H         1 <0>         0.1271
     31 H5         -0.9260   -0.5563    0.0082 H         1 <0>         0.1253
     32 H6          3.0134   -2.4083    0.8497 H         1 <0>         0.0649
     33 H7          2.9951   -2.3988   -0.9302 H         1 <0>         0.0650
     34 H8          5.4716   -2.2755   -0.9550 H         1 <0>         0.0793
     35 H9          5.4899   -2.2850    0.8248 H         1 <0>         0.0792
     36 H10         4.3777   -4.5012    0.8245 H         1 <0>         0.0806
     37 H11         4.3594   -4.4918   -0.9554 H         1 <0>         0.0800
     38 H12         6.8358   -4.3685   -0.9802 H         1 <0>         0.0625
     39 H13         6.8542   -4.3780    0.7997 H         1 <0>         0.0644
     40 H14         6.4894   -6.2585   -2.6268 H         1 <0>         0.1558
     41 H15         7.6353   -6.8865   -4.7054 H         1 <0>         0.1683
     42 H16        10.8425   -8.6987   -0.1540 H         1 <0>         0.1582
     43 H17         6.8732   -6.4844    2.9098 H         1 <0>         0.1651
     44 H18         8.8129   -7.5658    4.2722 H         1 <0>         0.2168
@<TRIPOS>BOND
     1    1    6 ar
     2    1    2 ar
     3    1   27 1
     4    2    3 ar
     5    2   28 1
     6    3    4 ar
     7    3   29 1
     8    4    5 ar
     9    4    7 1
    10    5    6 ar
    11    5   30 1
    12    6   31 1
    13    7    8 1
    14    8    9 1
    15    8   32 1
    16    8   33 1
    17    9   10 1
    18    9   34 1
    19    9   35 1
    20   10   11 1
    21   10   36 1
    22   10   37 1
    23   11   12 1
    24   11   38 1
    25   11   39 1
    26   12   13 1
    27   13   23 ar
    28   13   14 ar
    29   14   20 ar
    30   14   15 1
    31   15   16 2
    32   15   40 1
    33   16   17 1
    34   16   41 1
    35   17   18 2
    36   17   19 1
    37   19   20 1
    38   20   21 ar
    39   21   22 ar
    40   21   42 1
    41   22   26 1
    42   22   23 ar
    43   23   24 1
    44   24   25 2
    45   24   43 1
    46   25   26 1
    47   25   44 1
@<TRIPOS>MOLECULE
ZINC05929443
   43    46     0     0     0
SMALL
USER_CHARGES

@<TRIPOS>ATOM
      1 C1         -0.0184    1.5028    0.0103 C.3       1 <0>        -0.1274
      2 C2          0.0021   -0.0041    0.0020 C.ar      1 <0>        -0.0236
      3 C3          0.0057   -0.6887   -1.1989 C.ar      1 <0>        -0.1402
      4 C4          0.0245   -2.0709   -1.2065 C.ar      1 <0>        -0.0149
      5 C5          0.0400   -2.7685   -0.0132 C.ar      1 <0>        -0.6857
      6 C6          0.0373   -2.0839    1.1877 C.ar      1 <0>        -0.0158
      7 C7          0.0229   -0.7016    1.1953 C.ar      1 <0>        -0.1405
      8 S1          0.0628   -4.5303   -0.0229 S.o2      1 <0>         2.6846
      9 O1         -0.4759   -4.9503    1.2232 O.2       1 <0>        -0.9328
     10 O2         -0.4897   -4.9367   -1.2674 O.2       1 <0>        -0.9435
     11 N1          1.6509   -4.9994   -0.0343 N.pl3     1 <0>        -0.9397
     12 C8          2.3538   -5.1959   -1.2998 C.3       1 <0>         0.0700
     13 C9          3.1757   -6.4573   -1.2581 C.2       1 <0>         0.4086
     14 O3          4.3039   -6.4833   -1.7031 O.2       1 <0>        -0.4215
     15 C10         2.5678   -7.6579   -0.6603 C.ar      1 <0>        -0.1483
     16 C11         2.2568   -8.7703   -1.4404 C.ar      1 <0>        -0.0774
     17 C12         1.6662   -9.8720   -0.8576 C.ar      1 <0>        -0.1148
     18 C13         1.3775   -9.8789    0.4984 C.ar      1 <0>        -0.0980
     19 C14         1.6862   -8.7910    1.2900 C.ar      1 <0>        -0.1031
     20 C15         2.2932   -7.6727    0.7287 C.ar      1 <0>        -0.0164
     21 C16         2.6728   -6.5162    1.5645 C.ar      1 <0>        -0.0481
     22 C17         2.3340   -5.2058    1.1648 C.ar      1 <0>         0.1458
     23 C18         2.6828   -4.1261    1.9612 C.ar      1 <0>        -0.1197
     24 C19         3.3696   -4.3291    3.1425 C.ar      1 <0>        -0.0978
     25 C20         3.7150   -5.6097    3.5392 C.ar      1 <0>        -0.1081
     26 C21         3.3688   -6.7082    2.7565 C.ar      1 <0>        -0.0882
     27 H1          1.0042    1.8801    0.0026 H         1 <0>         0.0814
     28 H2         -0.5455    1.8639   -0.8728 H         1 <0>         0.0746
     29 H3         -0.5286    1.8543    0.9071 H         1 <0>         0.0746
     30 H4         -0.0064   -0.1436   -2.1312 H         1 <0>         0.1356
     31 H5          0.0266   -2.6057   -2.1448 H         1 <0>         0.1411
     32 H6          0.0491   -2.6289    2.1200 H         1 <0>         0.1415
     33 H7          0.0245   -0.1667    2.1335 H         1 <0>         0.1356
     34 H8          1.6260   -5.2676   -2.1079 H         1 <0>         0.1349
     35 H9          3.0102   -4.3450   -1.4823 H         1 <0>         0.1065
     36 H10         2.4772   -8.7694   -2.4977 H         1 <0>         0.1333
     37 H11         1.4268  -10.7348   -1.4614 H         1 <0>         0.1339
     38 H12         0.9064  -10.7446    0.9401 H         1 <0>         0.1330
     39 H13         1.4556   -8.8080    2.3449 H         1 <0>         0.1352
     40 H14         2.4168   -3.1244    1.6577 H         1 <0>         0.1312
     41 H15         3.6387   -3.4845    3.7594 H         1 <0>         0.1346
     42 H16         4.2557   -5.7587    4.4622 H         1 <0>         0.1341
     43 H17         3.6401   -7.7061    3.0681 H         1 <0>         0.1356
@<TRIPOS>BOND
     1    1    2 1
     2    1   27 1
     3    1   28 1
     4    1   29 1
     5    2    7 ar
     6    2    3 ar
     7    3    4 ar
     8    3   30 1
     9    4    5 ar
    10    4   31 1
    11    5    6 ar
    12    5    8 1
    13    6    7 ar
    14    6   32 1
    15    7   33 1
    16    8    9 2
    17    8   10 2
    18    8   11 1
    19   11   22 1
    20   11   12 1
    21   12   13 1
    22   12   34 1
    23   12   35 1
    24   13   14 2
    25   13   15 1
    26   15   20 ar
    27   15   16 ar
    28   16   17 ar
    29   16   36 1
    30   17   18 ar
    31   17   37 1
    32   18   19 ar
    33   18   38 1
    34   19   20 ar
    35   19   39 1
    36   20   21 1
    37   21   26 ar
    38   21   22 ar
    39   22   23 ar
    40   23   24 ar
    41   23   40 1
    42   24   25 ar
    43   24   41 1
    44   25   26 ar
    45   25   42 1
    46   26   43 1
@<TRIPOS>MOLECULE
ZINC03975392
   42    45     0     0     0
SMALL
USER_CHARGES

@<TRIPOS>ATOM
      1 C1          0.1113    1.5663   -0.3836 C.ar      1 <0>        -0.1033
      2 C2          1.3309    2.2116   -0.3001 C.ar      1 <0>        -0.1293
      3 C3          2.4959    1.4759   -0.1880 C.ar      1 <0>        -0.0595
      4 C4          2.4411    0.0949   -0.1588 C.ar      1 <0>        -0.0903
      5 C5          1.2214   -0.5503   -0.2414 C.ar      1 <0>        -0.0874
      6 C6          0.0566    0.1853   -0.3550 C.ar      1 <0>        -0.1326
      7 C7          3.7112   -0.7071   -0.0376 C.3       1 <0>         0.3302
      8 C8          3.3706   -2.1670    0.1167 C.ar      1 <0>        -0.1022
      9 C9          3.8594   -3.0902   -0.7886 C.ar      1 <0>        -0.0922
     10 C10         3.5470   -4.4293   -0.6471 C.ar      1 <0>        -0.1196
     11 C11         2.7461   -4.8453    0.4000 C.ar      1 <0>        -0.1029
     12 C12         2.2580   -3.9222    1.3059 C.ar      1 <0>        -0.1228
     13 C13         2.5740   -2.5837    1.1668 C.ar      1 <0>        -0.0869
     14 C14         4.5471   -0.5145   -1.2766 C.ar      1 <0>        -0.0897
     15 C15         5.8542   -0.0779   -1.1677 C.ar      1 <0>        -0.0958
     16 C16         6.6211    0.0987   -2.3040 C.ar      1 <0>        -0.1111
     17 C17         6.0814   -0.1611   -3.5501 C.ar      1 <0>        -0.0997
     18 C18         4.7749   -0.5976   -3.6603 C.ar      1 <0>        -0.1105
     19 C19         4.0085   -0.7801   -2.5227 C.ar      1 <0>        -0.0192
     20 Cl1         2.3692   -1.3348   -2.6599 Cl        1 <0>        -0.0473
     21 N1          4.4643   -0.2548    1.1348 N.pl3     1 <0>        -0.3616
     22 C20         5.4813   -0.9143    1.7279 C.2       1 <0>         0.0591
     23 C21         5.9048   -0.1656    2.7725 C.2       1 <0>        -0.2697
     24 C22         5.1197    0.9910    2.8194 C.2       1 <0>         0.0438
     25 N2          4.2598    0.9414    1.8345 N.2       1 <0>        -0.2814
     26 H1         -0.7992    2.1412   -0.4667 H         1 <0>         0.1212
     27 H2          1.3737    3.2905   -0.3229 H         1 <0>         0.1221
     28 H3          3.4488    1.9800   -0.1235 H         1 <0>         0.1233
     29 H4          1.1787   -1.6293   -0.2193 H         1 <0>         0.1271
     30 H5         -0.8963   -0.3188   -0.4199 H         1 <0>         0.1212
     31 H6          4.4851   -2.7652   -1.6067 H         1 <0>         0.1255
     32 H7          3.9283   -5.1505   -1.3549 H         1 <0>         0.1266
     33 H8          2.5014   -5.8914    0.5101 H         1 <0>         0.1260
     34 H9          1.6320   -4.2472    2.1237 H         1 <0>         0.1267
     35 H10         2.1957   -1.8630    1.8767 H         1 <0>         0.1224
     36 H11         6.2762    0.1255   -0.1946 H         1 <0>         0.1341
     37 H12         7.6421    0.4402   -2.2184 H         1 <0>         0.1329
     38 H13         6.6810   -0.0225   -4.4377 H         1 <0>         0.1360
     39 H14         4.3534   -0.8002   -4.6338 H         1 <0>         0.1385
     40 H15         5.8848   -1.8688    1.4236 H         1 <0>         0.1675
     41 H16         6.7069   -0.4170    3.4507 H         1 <0>         0.1477
     42 H17         5.2108    1.7894    3.5409 H         1 <0>         0.1832
@<TRIPOS>BOND
     1    1    6 ar
     2    1    2 ar
     3    1   26 1
     4    2    3 ar
     5    2   27 1
     6    3    4 ar
     7    3   28 1
     8    4    5 ar
     9    4    7 1
    10    5    6 ar
    11    5   29 1
    12    6   30 1
    13    7    8 1
    14    7   14 1
    15    7   21 1
    16    8   13 ar
    17    8    9 ar
    18    9   10 ar
    19    9   31 1
    20   10   11 ar
    21   10   32 1
    22   11   12 ar
    23   11   33 1
    24   12   13 ar
    25   12   34 1
    26   13   35 1
    27   14   19 ar
    28   14   15 ar
    29   15   16 ar
    30   15   36 1
    31   16   17 ar
    32   16   37 1
    33   17   18 ar
    34   17   38 1
    35   18   19 ar
    36   18   39 1
    37   19   20 1
    38   21   25 1
    39   21   22 1
    40   22   23 2
    41   22   40 1
    42   23   24 1
    43   23   41 1
    44   24   25 2
    45   24   42 1
@<TRIPOS>MOLECULE
ZINC43206250
   54    56     0     0     0
SMALL
USER_CHARGES

@<TRIPOS>ATOM
      1 C1         -0.0173    1.4248    0.0099 C.3       1 <0>         0.0265
      2 O1          0.0021   -0.0041    0.0020 O.3       1 <0>        -0.3182
      3 C2          0.6058   -0.6071   -1.0557 C.ar      1 <0>         0.1265
      4 C3          1.1730    0.1607   -2.0624 C.ar      1 <0>        -0.2059
      5 C4          1.7865   -0.4547   -3.1363 C.ar      1 <0>        -0.0709
      6 C5          1.8352   -1.8346   -3.2086 C.ar      1 <0>        -0.1219
      7 C6          1.2702   -2.6021   -2.2068 C.ar      1 <0>        -0.0734
      8 C7          0.6609   -1.9915   -1.1277 C.ar      1 <0>        -0.1505
      9 C8          2.5046   -2.5033   -4.3815 C.3       1 <0>        -0.0933
     10 C9          3.9857   -2.7227   -4.0663 C.3       1 <0>         0.1572
     11 N1          4.6365   -3.3728   -5.2065 N.am      1 <0>        -0.6137
     12 C10         4.7519   -4.8250   -5.4075 C.3       1 <0>         0.1735
     13 H1          3.7645   -5.2801   -5.4849 H         1 <0>         0.1094
     14 C11         5.5129   -4.9538   -6.7413 C.3       1 <0>         0.0977
     15 N2          5.7455   -3.5605   -7.1502 N.am      1 <0>        -0.4252
     16 C12         5.2159   -2.7389   -6.2344 C.2       1 <0>         0.6980
     17 O2          5.2606   -1.5273   -6.3259 O.2       1 <0>        -0.5638
     18 N3          6.4102   -3.1567   -8.3155 N.pl3     1 <0>        -0.8666
     19 S1          5.5574   -2.9186   -9.7149 S.o2      1 <0>         2.6109
     20 O3          6.5154   -2.4328  -10.6452 O.2       1 <0>        -0.9411
     21 O4          4.8849   -4.1493   -9.9436 O.2       1 <0>        -0.9454
     22 C13         4.3591   -1.6168   -9.3149 C.3       1 <0>        -0.6549
     23 C14         5.5360   -5.4537   -4.2847 C.ar      1 <0>        -0.1487
     24 C15         6.6460   -4.8081   -3.7721 C.ar      1 <0>        -0.0536
     25 C16         7.3669   -5.3826   -2.7431 C.ar      1 <0>        -0.1512
     26 C17         6.9759   -6.6082   -2.2239 C.ar      1 <0>         0.1390
     27 C18         5.8615   -7.2538   -2.7396 C.ar      1 <0>        -0.2082
     28 C19         5.1410   -6.6726   -3.7651 C.ar      1 <0>        -0.0571
     29 O5          7.6836   -7.1757   -1.2119 O.3       1 <0>        -0.3163
     30 C20         7.2232   -8.4385   -0.7268 C.3       1 <0>         0.0257
     31 H2          1.0053    1.8021    0.0021 H         1 <0>         0.0562
     32 H3         -0.5445    1.7859   -0.8732 H         1 <0>         0.0560
     33 H4         -0.5275    1.7763    0.9067 H         1 <0>         0.1012
     34 H5          1.1347    1.2385   -2.0068 H         1 <0>         0.1283
     35 H6          2.2283    0.1425   -3.9203 H         1 <0>         0.1261
     36 H7          1.3092   -3.6798   -2.2657 H         1 <0>         0.1292
     37 H8          0.2237   -2.5913   -0.3432 H         1 <0>         0.1309
     38 H9          2.0276   -3.4646   -4.5726 H         1 <0>         0.0763
     39 H10         2.4108   -1.8695   -5.2632 H         1 <0>         0.0771
     40 H11         4.4627   -1.7615   -3.8752 H         1 <0>         0.0892
     41 H12         4.0795   -3.3566   -3.1846 H         1 <0>         0.0884
     42 H13         6.4602   -5.4722   -6.5928 H         1 <0>         0.0954
     43 H14         4.9034   -5.4729   -7.4810 H         1 <0>         0.1049
     44 H15         7.3699   -3.0165   -8.3026 H         1 <0>         0.4233
     45 H16         4.8903   -0.7158   -9.0082 H         1 <0>         0.1373
     46 H17         3.7520   -1.3993  -10.1936 H         1 <0>         0.1321
     47 H18         3.7150   -1.9531   -8.5024 H         1 <0>         0.1257
     48 H19         6.9500   -3.8540   -4.1767 H         1 <0>         0.1255
     49 H20         8.2342   -4.8782   -2.3435 H         1 <0>         0.1322
     50 H21         5.5551   -8.2080   -2.3371 H         1 <0>         0.1319
     51 H22         4.2709   -7.1727   -4.1640 H         1 <0>         0.1308
     52 H23         7.8754   -8.7784    0.0776 H         1 <0>         0.1023
     53 H24         6.2058   -8.3339   -0.3500 H         1 <0>         0.0575
     54 H25         7.2372   -9.1664   -1.5381 H         1 <0>         0.0576
@<TRIPOS>BOND
     1    1    2 1
     2    1   31 1
     3    1   32 1
     4    1   33 1
     5    2    3 1
     6    3    8 ar
     7    3    4 ar
     8    4    5 ar
     9    4   34 1
    10    5    6 ar
    11    5   35 1
    12    6    7 ar
    13    6    9 1
    14    7    8 ar
    15    7   36 1
    16    8   37 1
    17    9   10 1
    18    9   38 1
    19    9   39 1
    20   10   11 1
    21   10   40 1
    22   10   41 1
    23   11   16 am
    24   11   12 1
    25   12   13 1
    26   12   14 1
    27   12   23 1
    28   14   15 1
    29   14   42 1
    30   14   43 1
    31   15   16 am
    32   15   18 1
    33   16   17 2
    34   18   19 1
    35   18   44 1
    36   19   20 2
    37   19   21 2
    38   19   22 1
    39   22   45 1
    40   22   46 1
    41   22   47 1
    42   23   28 ar
    43   23   24 ar
    44   24   25 ar
    45   24   48 1
    46   25   26 ar
    47   25   49 1
    48   26   27 ar
    49   26   29 1
    50   27   28 ar
    51   27   50 1
    52   28   51 1
    53   29   30 1
    54   30   52 1
    55   30   53 1
    56   30   54 1
@<TRIPOS>MOLECULE
ZINC03798289
   68    71     0     0     0
SMALL
USER_CHARGES
4-(benzhydryloxymethyl)-1-[3-(4-methoxyphenyl)propyl]piperidine
@<TRIPOS>ATOM
      1 C1         17.1552   -0.4927    3.4440 C.3       1 <0>         0.0248
      2 O1         16.4173    0.7013    3.1761 O.3       1 <0>        -0.3146
      3 C2         15.2184    0.8390    3.8011 C.ar      1 <0>         0.1370
      4 C3         14.4493    1.9735    3.5865 C.ar      1 <0>        -0.1498
      5 C4         13.2308    2.1109    4.2227 C.ar      1 <0>        -0.0733
      6 C5         12.7775    1.1189    5.0725 C.ar      1 <0>        -0.1409
      7 C6         13.5448   -0.0101    5.2924 C.ar      1 <0>        -0.0723
      8 C7         14.7614   -0.1549    4.6543 C.ar      1 <0>        -0.2067
      9 C8         11.4479    1.2714    5.7652 C.3       1 <0>        -0.0671
     10 C9         10.3454    0.6710    4.8906 C.3       1 <0>        -0.1475
     11 C10         8.9954    0.8258    5.5938 C.3       1 <0>        -0.0059
     12 C11         6.6072    0.5860    5.2784 C.3       1 <0>         0.0026
     13 C12         5.5368   -0.1480    4.4676 C.3       1 <0>        -0.1432
     14 C13         5.6454    0.2641    2.9969 C.3       1 <0>        -0.0967
     15 C14         7.0547   -0.0528    2.4889 C.3       1 <0>        -0.1394
     16 C15         8.0811    0.6784    3.3571 C.3       1 <0>        -0.0099
     17 C16         4.6176   -0.5121    2.1711 C.3       1 <0>         0.0644
     18 O2          4.6395   -0.0438    0.8212 O.3       1 <0>        -0.3695
     19 C17         3.7112   -0.7071   -0.0392 C.3       1 <0>         0.1830
     20 C18         2.3960    0.0285   -0.0217 C.ar      1 <0>        -0.1160
     21 C19         1.2084   -0.6789   -0.0136 C.ar      1 <0>        -0.1097
     22 C20         0.0021   -0.0041    0.0020 C.ar      1 <0>        -0.1182
     23 C21        -0.0167    1.3781    0.0096 C.ar      1 <0>        -0.1119
     24 C22         1.1709    2.0855    0.0021 C.ar      1 <0>        -0.1222
     25 C23         2.3773    1.4107   -0.0141 C.ar      1 <0>        -0.0918
     26 C24         4.2558   -0.7290   -1.4442 C.ar      1 <0>        -0.0885
     27 C25         4.9930    0.3407   -1.9165 C.ar      1 <0>        -0.0919
     28 C26         5.4970    0.3183   -3.2035 C.ar      1 <0>        -0.1221
     29 C27         5.2546   -0.7691   -4.0219 C.ar      1 <0>        -0.1124
     30 C28         4.5125   -1.8363   -3.5515 C.ar      1 <0>        -0.1170
     31 C29         4.0133   -1.8164   -2.2626 C.ar      1 <0>        -0.1085
     32 H1         18.0900   -0.4757    2.8836 H         1 <0>         0.1060
     33 H2         17.3721   -0.5542    4.5105 H         1 <0>         0.0586
     34 H3         16.5665   -1.3591    3.1424 H         1 <0>         0.0574
     35 H4         14.8031    2.7488    2.9230 H         1 <0>         0.1345
     36 H5         12.6315    2.9937    4.0557 H         1 <0>         0.1287
     37 H6         13.1907   -0.7814    5.9604 H         1 <0>         0.1240
     38 H7         15.3583   -1.0390    4.8229 H         1 <0>         0.1315
     39 H8         11.2440    2.3292    5.9315 H         1 <0>         0.0816
     40 H9         11.4754    0.7517    6.7229 H         1 <0>         0.0807
     41 H10        10.5492   -0.3868    4.7242 H         1 <0>         0.0869
     42 H11        10.3179    1.1907    3.9328 H         1 <0>         0.0911
     43 H12         8.7916    1.8836    5.7601 H         1 <0>         0.1310
     44 H13         9.0229    0.3061    6.5515 H         1 <0>         0.1288
     45 H14         6.4478    1.6615    5.2007 H         1 <0>         0.1309
     46 H15         6.5418    0.2839    6.3237 H         1 <0>         0.1302
     47 H16         4.5492    0.1143    4.8470 H         1 <0>         0.1141
     48 H17         5.6866   -1.2241    4.5559 H         1 <0>         0.0900
     49 H18         5.4554    1.3334    2.9033 H         1 <0>         0.0979
     50 H19         7.2291   -1.1273    2.5462 H         1 <0>         0.0859
     51 H20         7.1515    0.2775    1.4547 H         1 <0>         0.1192
     52 H21         7.9148    1.7535    3.2884 H         1 <0>         0.1305
     53 H22         9.0862    0.4435    3.0069 H         1 <0>         0.1335
     54 H23         3.6238   -0.3603    2.5922 H         1 <0>         0.0608
     55 H24         4.8625   -1.5740    2.1913 H         1 <0>         0.0556
     56 H25         3.5604   -1.7293    0.3080 H         1 <0>         0.0775
     57 H26         1.2231   -1.7587   -0.0199 H         1 <0>         0.1208
     58 H27        -0.9258   -0.5567    0.0079 H         1 <0>         0.1255
     59 H28        -0.9592    1.9054    0.0170 H         1 <0>         0.1247
     60 H29         1.1563    3.1654    0.0077 H         1 <0>         0.1236
     61 H30         3.3051    1.9634   -0.0207 H         1 <0>         0.1228
     62 H31         5.1786    1.1922   -1.2786 H         1 <0>         0.1235
     63 H32         6.0770    1.1519   -3.5709 H         1 <0>         0.1238
     64 H33         5.6452   -0.7850   -5.0286 H         1 <0>         0.1248
     65 H34         4.3231   -2.6859   -4.1909 H         1 <0>         0.1262
     66 H35         3.4336   -2.6502   -1.8951 H         1 <0>         0.1213
     67 N1          7.9407    0.2196    4.7553 N.4       1 <0>        -0.3945
     68 H36         8.0396   -0.8021    4.7821 H         1 <0>         0.4262
@<TRIPOS>BOND
     1    1    2 1
     2    1   32 1
     3    1   33 1
     4    1   34 1
     5    2    3 1
     6    3    8 ar
     7    3    4 ar
     8    4    5 ar
     9    4   35 1
    10    5    6 ar
    11    5   36 1
    12    6    7 ar
    13    6    9 1
    14    7    8 ar
    15    7   37 1
    16    8   38 1
    17    9   10 1
    18    9   39 1
    19    9   40 1
    20   10   11 1
    21   10   41 1
    22   10   42 1
    23   11   43 1
    24   11   44 1
    25   11   67 1
    26   12   13 1
    27   12   45 1
    28   12   46 1
    29   12   67 1
    30   13   14 1
    31   13   47 1
    32   13   48 1
    33   14   15 1
    34   14   17 1
    35   14   49 1
    36   15   16 1
    37   15   50 1
    38   15   51 1
    39   16   52 1
    40   16   53 1
    41   16   67 1
    42   17   18 1
    43   17   54 1
    44   17   55 1
    45   18   19 1
    46   19   20 1
    47   19   26 1
    48   19   56 1
    49   20   25 ar
    50   20   21 ar
    51   21   22 ar
    52   21   57 1
    53   22   23 ar
    54   22   58 1
    55   23   24 ar
    56   23   59 1
    57   24   25 ar
    58   24   60 1
    59   25   61 1
    60   26   31 ar
    61   26   27 ar
    62   27   28 ar
    63   27   62 1
    64   28   29 ar
    65   28   63 1
    66   29   30 ar
    67   29   64 1
    68   30   31 ar
    69   30   65 1
    70   31   66 1
    71   67   68 1
