@<TRIPOS>MOLECULE
ZINC00403582
   49    52     0     0     0
SMALL
USER_CHARGES

@<TRIPOS>ATOM
      1 C1          0.8724    1.1631   -0.3363 C.3       1 <0>         0.0202
      2 O1          0.6878   -0.2525   -0.2709 O.3       1 <0>        -0.3137
      3 C2         -0.5920   -0.7057   -0.2121 C.ar      1 <0>         0.1585
      4 C3         -1.6502    0.2085   -0.2236 C.ar      1 <0>        -0.1753
      5 C4         -2.9414   -0.2138   -0.1659 C.ar      1 <0>        -0.0348
      6 C5         -3.2248   -1.5896   -0.0934 C.ar      1 <0>         0.0989
      7 C6         -2.1522   -2.5161   -0.0818 C.ar      1 <0>        -0.0444
      8 C7         -0.8302   -2.0492   -0.1481 C.ar      1 <0>        -0.1797
      9 C8         -2.4399   -3.8921   -0.0092 C.ar      1 <0>        -0.0896
     10 C9         -3.7501   -4.2746    0.0471 C.ar      1 <0>        -0.1349
     11 C10        -4.7565   -3.3117    0.0319 C.ar      1 <0>         0.1205
     12 N1         -4.4850   -2.0309   -0.0362 N.ar      1 <0>        -0.4415
     13 C11        -1.3332   -4.9149    0.0054 C.3       1 <0>         0.1418
     14 H1         -0.5131   -4.5719   -0.6253 H         1 <0>         0.1366
     15 C12        -0.8307   -5.1022    1.4384 C.3       1 <0>        -0.0033
     16 H2         -0.5994   -4.1286    1.8706 H         1 <0>         0.1463
     17 C13        -1.9180   -5.7828    2.2729 C.3       1 <0>        -0.1346
     18 C14        -1.3677   -7.1076    2.8171 C.3       1 <0>        -0.0926
     19 H3         -2.1218   -7.6091    3.4237 H         1 <0>         0.1184
     20 C15        -0.9686   -7.9910    1.6277 C.3       1 <0>        -0.1359
     21 C16         0.0796   -7.2513    0.7933 C.3       1 <0>        -0.0193
     22 N2          0.3790   -5.9280    1.4252 N.4       1 <0>        -0.3773
     23 C17         0.9057   -6.0928    2.7821 C.3       1 <0>        -0.0008
     24 C18        -0.1224   -6.8042    3.6607 C.3       1 <0>        -0.0658
     25 H4         -0.3959   -6.1620    4.4979 H         1 <0>         0.1076
     26 C19         0.4626   -8.0926    4.1791 C.2       1 <0>        -0.1891
     27 C20         0.5661   -8.2925    5.4696 C.2       1 <0>        -0.1440
     28 O2         -1.8284   -6.1596   -0.4922 O.3       1 <0>        -0.5356
     29 H5          1.9379    1.3889   -0.3789 H         1 <0>         0.1092
     30 H6          0.3825    1.5525   -1.2287 H         1 <0>         0.0636
     31 H7          0.4376    1.6275    0.5488 H         1 <0>         0.0626
     32 H8         -1.4386    1.2661   -0.2788 H         1 <0>         0.1456
     33 H9         -3.7471    0.5052   -0.1754 H         1 <0>         0.1494
     34 H10        -0.0064   -2.7476   -0.1445 H         1 <0>         0.1293
     35 H11        -4.0054   -5.3225    0.1031 H         1 <0>         0.1386
     36 H12        -5.7879   -3.6287    0.0770 H         1 <0>         0.1687
     37 H13        -2.1998   -5.1357    3.1035 H         1 <0>         0.1063
     38 H14        -2.7893   -5.9785    1.6479 H         1 <0>         0.0959
     39 H15        -0.5495   -8.9284    1.9932 H         1 <0>         0.1013
     40 H16        -1.8460   -8.1956    1.0141 H         1 <0>         0.0986
     41 H17         0.9952   -7.8416    0.7571 H         1 <0>         0.1218
     42 H18        -0.2981   -7.1102   -0.2194 H         1 <0>         0.1666
     43 H19         1.8202   -6.6848    2.7456 H         1 <0>         0.1342
     44 H20         1.1277   -5.1131    3.2053 H         1 <0>         0.1296
     45 H21         0.7966   -8.8512    3.4867 H         1 <0>         0.1187
     46 H22         0.2321   -7.5339    6.1621 H         1 <0>         0.1034
     47 H23         0.9853   -9.2159    5.8412 H         1 <0>         0.1105
     48 H24        -2.5615   -6.5250    0.0218 H         1 <0>         0.3862
     49 H25         1.0806   -5.4578    0.8731 H         1 <0>         0.4231
@<TRIPOS>BOND
     1    1    2 1
     2    1   29 1
     3    1   30 1
     4    1   31 1
     5    2    3 1
     6    3    8 ar
     7    3    4 ar
     8    4    5 ar
     9    4   32 1
    10    5    6 ar
    11    5   33 1
    12    6   12 ar
    13    6    7 ar
    14    7    8 ar
    15    7    9 ar
    16    8   34 1
    17    9   10 ar
    18    9   13 1
    19   10   11 ar
    20   10   35 1
    21   11   12 ar
    22   11   36 1
    23   13   14 1
    24   13   15 1
    25   13   28 1
    26   15   16 1
    27   15   22 1
    28   15   17 1
    29   17   18 1
    30   17   37 1
    31   17   38 1
    32   18   19 1
    33   18   24 1
    34   18   20 1
    35   20   21 1
    36   20   39 1
    37   20   40 1
    38   21   22 1
    39   21   41 1
    40   21   42 1
    41   22   23 1
    42   22   49 1
    43   23   24 1
    44   23   43 1
    45   23   44 1
    46   24   25 1
    47   24   26 1
    48   26   27 2
    49   26   45 1
    50   27   46 1
    51   27   47 1
    52   28   48 1
@<TRIPOS>MOLECULE
ZINC03831403
   49    52     0     0     0
SMALL
USER_CHARGES

@<TRIPOS>ATOM
      1 C1          2.2982   -8.7592   -3.7306 C.3       1 <0>         0.0200
      2 O1          1.3894   -8.1799   -2.7922 O.3       1 <0>        -0.3125
      3 C2          1.3221   -6.8231   -2.7555 C.ar      1 <0>         0.1594
      4 C3          2.1208   -6.0678   -3.6198 C.ar      1 <0>        -0.1751
      5 C4          2.0761   -4.7089   -3.6070 C.ar      1 <0>        -0.0349
      6 C5          1.2159   -4.0457   -2.7134 C.ar      1 <0>         0.0987
      7 C6          0.4063   -4.8113   -1.8373 C.ar      1 <0>        -0.0414
      8 C7          0.4710   -6.2128   -1.8784 C.ar      1 <0>        -0.1815
      9 C8         -0.4533   -4.1440   -0.9446 C.ar      1 <0>        -0.0893
     10 C9         -0.4682   -2.7782   -0.9635 C.ar      1 <0>        -0.1363
     11 C10         0.3534   -2.0864   -1.8505 C.ar      1 <0>         0.1194
     12 N1          1.1526   -2.7111   -2.6810 N.ar      1 <0>        -0.4413
     13 C11        -1.3332   -4.9149    0.0054 C.3       1 <0>         0.1365
     14 H1         -1.4755   -5.9276   -0.3718 H         1 <0>         0.1367
     15 C12        -0.6694   -4.9723    1.3827 C.3       1 <0>        -0.0006
     16 H2         -0.4369   -3.9604    1.7146 H         1 <0>         0.1396
     17 C13         0.6234   -5.7859    1.2899 C.3       1 <0>        -0.1441
     18 C14         0.5202   -6.9889    2.2366 C.3       1 <0>        -0.0902
     19 H3          1.4343   -7.5812    2.1955 H         1 <0>         0.1189
     20 C15        -0.6837   -7.8389    1.8096 C.3       1 <0>        -0.1415
     21 C16        -1.9443   -6.9732    1.8671 C.3       1 <0>        -0.0033
     22 N2         -1.5861   -5.5986    2.3384 N.4       1 <0>        -0.3772
     23 C17        -0.9917   -5.6325    3.6767 C.3       1 <0>         0.0012
     24 C18         0.2892   -6.4658    3.6604 C.3       1 <0>        -0.0671
     25 H4          0.1861   -7.3066    4.3463 H         1 <0>         0.1100
     26 C19         1.4562   -5.6091    4.0792 C.2       1 <0>        -0.1905
     27 C20         2.1678   -5.9391    5.1284 C.2       1 <0>        -0.1425
     28 O2         -2.6011   -4.2647    0.1144 O.3       1 <0>        -0.5416
     29 H5          2.2533   -9.8458   -3.6565 H         1 <0>         0.1093
     30 H6          2.0233   -8.4521   -4.7397 H         1 <0>         0.0634
     31 H7          3.3111   -8.4216   -3.5113 H         1 <0>         0.0626
     32 H8          2.7835   -6.5715   -4.3079 H         1 <0>         0.1458
     33 H9          2.6998   -4.1403   -4.2809 H         1 <0>         0.1494
     34 H10        -0.1453   -6.8049   -1.2181 H         1 <0>         0.1339
     35 H11        -1.1165   -2.2353   -0.2917 H         1 <0>         0.1384
     36 H12         0.3312   -1.0066   -1.8543 H         1 <0>         0.1683
     37 H13         0.7615   -6.1367    0.2672 H         1 <0>         0.1127
     38 H14         1.4688   -5.1629    1.5817 H         1 <0>         0.1046
     39 H15        -0.5340   -8.1991    0.7918 H         1 <0>         0.1024
     40 H16        -0.7913   -8.6862    2.4869 H         1 <0>         0.1042
     41 H17        -2.3971   -6.9275    0.8766 H         1 <0>         0.1340
     42 H18        -2.6540   -7.4138    2.5673 H         1 <0>         0.1327
     43 H19        -0.7586   -4.6164    3.9948 H         1 <0>         0.1313
     44 H20        -1.7008   -6.0751    4.3763 H         1 <0>         0.1342
     45 H21         1.7058   -4.7231    3.5144 H         1 <0>         0.1164
     46 H22         1.9181   -6.8252    5.6933 H         1 <0>         0.1045
     47 H23         3.0041   -5.3252    5.4286 H         1 <0>         0.1102
     48 H24        -2.5608   -3.3909    0.5267 H         1 <0>         0.3866
     49 H25        -2.4274   -5.0435    2.3846 H         1 <0>         0.4253
@<TRIPOS>BOND
     1    1    2 1
     2    1   29 1
     3    1   30 1
     4    1   31 1
     5    2    3 1
     6    3    8 ar
     7    3    4 ar
     8    4    5 ar
     9    4   32 1
    10    5    6 ar
    11    5   33 1
    12    6   12 ar
    13    6    7 ar
    14    7    8 ar
    15    7    9 ar
    16    8   34 1
    17    9   10 ar
    18    9   13 1
    19   10   11 ar
    20   10   35 1
    21   11   12 ar
    22   11   36 1
    23   13   14 1
    24   13   15 1
    25   13   28 1
    26   15   16 1
    27   15   22 1
    28   15   17 1
    29   17   18 1
    30   17   37 1
    31   17   38 1
    32   18   19 1
    33   18   24 1
    34   18   20 1
    35   20   21 1
    36   20   39 1
    37   20   40 1
    38   21   22 1
    39   21   41 1
    40   21   42 1
    41   22   23 1
    42   22   49 1
    43   23   24 1
    44   23   43 1
    45   23   44 1
    46   24   25 1
    47   24   26 1
    48   26   27 2
    49   26   45 1
    50   27   46 1
    51   27   47 1
    52   28   48 1
@<TRIPOS>MOLECULE
ZINC03831405
   49    52     0     0     0
SMALL
USER_CHARGES

@<TRIPOS>ATOM
      1 C1         -0.1764    0.8014   -3.0424 C.3       1 <0>         0.0200
      2 O1         -0.1372   -0.5890   -2.7148 O.3       1 <0>        -0.3132
      3 C2         -1.2504   -1.1200   -2.1442 C.ar      1 <0>         0.1590
      4 C3         -2.3634   -0.3060   -1.9120 C.ar      1 <0>        -0.1735
      5 C4         -3.4917   -0.8077   -1.3428 C.ar      1 <0>        -0.0355
      6 C5         -3.5476   -2.1654   -0.9795 C.ar      1 <0>         0.1009
      7 C6         -2.4194   -2.9905   -1.2148 C.ar      1 <0>        -0.0441
      8 C7         -1.2712   -2.4441   -1.8092 C.ar      1 <0>        -0.1785
      9 C8         -2.4792   -4.3486   -0.8498 C.ar      1 <0>        -0.0878
     10 C9         -3.6310   -4.8130   -0.2809 C.ar      1 <0>        -0.1455
     11 C10        -4.7036   -3.9480   -0.0774 C.ar      1 <0>         0.1237
     12 N1         -4.6447   -2.6836   -0.4189 N.ar      1 <0>        -0.4401
     13 C11        -1.3053   -5.2650   -1.0808 C.3       1 <0>         0.1353
     14 H1         -0.7977   -4.9800   -2.0023 H         1 <0>         0.1255
     15 C12        -0.3314   -5.1520    0.0938 C.3       1 <0>         0.0074
     16 H2         -0.1138   -4.1009    0.2834 H         1 <0>         0.1440
     17 C13        -0.9656   -5.7723    1.3408 C.3       1 <0>        -0.1288
     18 C14        -0.0775   -6.9255    1.8263 C.3       1 <0>        -0.0921
     19 H3         -0.5128   -7.3909    2.7106 H         1 <0>         0.1168
     20 C15         1.3122   -6.3622    2.1515 C.3       1 <0>        -0.1389
     21 C16         1.8860   -5.7069    0.8932 C.3       1 <0>         0.0033
     22 N2          0.9114   -5.8538   -0.2361 N.4       1 <0>        -0.3777
     23 C17         0.6447   -7.2635   -0.5315 C.3       1 <0>        -0.0106
     24 C18         0.0464   -7.9514    0.6921 C.3       1 <0>        -0.0600
     25 H4          0.6964   -8.7677    1.0073 H         1 <0>         0.1051
     26 C19        -1.3178   -8.4922    0.3490 C.2       1 <0>        -0.1682
     27 C20        -1.4890   -9.7803    0.1830 C.2       1 <0>        -0.1581
     28 O2         -1.7673   -6.6129   -1.1886 O.3       1 <0>        -0.5370
     29 H5          0.7728    1.0962   -3.4899 H         1 <0>         0.1096
     30 H6         -0.9845    0.9852   -3.7504 H         1 <0>         0.0637
     31 H7         -0.3474    1.3834   -2.1368 H         1 <0>         0.0629
     32 H8         -2.3262    0.7373   -2.1886 H         1 <0>         0.1462
     33 H9         -4.3426   -0.1655   -1.1699 H         1 <0>         0.1501
     34 H10        -0.4082   -3.0658   -1.9968 H         1 <0>         0.1303
     35 H11        -3.7101   -5.8500    0.0105 H         1 <0>         0.1375
     36 H12        -5.6080   -4.3290    0.3735 H         1 <0>         0.1700
     37 H13        -1.0453   -5.0181    2.1237 H         1 <0>         0.1009
     38 H14        -1.9570   -6.1531    1.0954 H         1 <0>         0.0955
     39 H15         1.2288   -5.6193    2.9447 H         1 <0>         0.1011
     40 H16         1.9680   -7.1712    2.4735 H         1 <0>         0.1013
     41 H17         2.0811   -4.6530    1.0912 H         1 <0>         0.1308
     42 H18         2.8189   -6.2008    0.6215 H         1 <0>         0.1300
     43 H19        -0.0547   -7.3324   -1.3646 H         1 <0>         0.1604
     44 H20         1.5771   -7.7589   -0.8023 H         1 <0>         0.1228
     45 H21        -2.1542   -7.8178    0.2399 H         1 <0>         0.1171
     46 H22        -0.6525  -10.4547    0.2920 H         1 <0>         0.1015
     47 H23        -2.4666  -10.1678   -0.0629 H         1 <0>         0.1082
     48 H24        -2.5945   -6.7840   -0.7179 H         1 <0>         0.3872
     49 H25         1.3069   -5.4312   -1.0625 H         1 <0>         0.4216
@<TRIPOS>BOND
     1    1    2 1
     2    1   29 1
     3    1   30 1
     4    1   31 1
     5    2    3 1
     6    3    8 ar
     7    3    4 ar
     8    4    5 ar
     9    4   32 1
    10    5    6 ar
    11    5   33 1
    12    6   12 ar
    13    6    7 ar
    14    7    8 ar
    15    7    9 ar
    16    8   34 1
    17    9   10 ar
    18    9   13 1
    19   10   11 ar
    20   10   35 1
    21   11   12 ar
    22   11   36 1
    23   13   14 1
    24   13   15 1
    25   13   28 1
    26   15   16 1
    27   15   22 1
    28   15   17 1
    29   17   18 1
    30   17   37 1
    31   17   38 1
    32   18   19 1
    33   18   24 1
    34   18   20 1
    35   20   21 1
    36   20   39 1
    37   20   40 1
    38   21   22 1
    39   21   41 1
    40   21   42 1
    41   22   23 1
    42   22   49 1
    43   23   24 1
    44   23   43 1
    45   23   44 1
    46   24   25 1
    47   24   26 1
    48   26   27 2
    49   26   45 1
    50   27   46 1
    51   27   47 1
    52   28   48 1
@<TRIPOS>MOLECULE
ZINC04521307
   49    52     0     0     0
SMALL
USER_CHARGES

@<TRIPOS>ATOM
      1 C1          2.2967   -8.7616   -3.7296 C.3       1 <0>         0.0200
      2 O1          1.3881   -8.1817   -2.7914 O.3       1 <0>        -0.3126
      3 C2          1.3214   -6.8249   -2.7550 C.ar      1 <0>         0.1595
      4 C3          2.1203   -6.0701   -3.6196 C.ar      1 <0>        -0.1751
      5 C4          2.0762   -4.7112   -3.6071 C.ar      1 <0>        -0.0347
      6 C5          1.2162   -4.0475   -2.7137 C.ar      1 <0>         0.0988
      7 C6          0.4064   -4.8125   -1.8374 C.ar      1 <0>        -0.0415
      8 C7          0.4705   -6.2140   -1.8781 C.ar      1 <0>        -0.1817
      9 C8         -0.4530   -4.1446   -0.9448 C.ar      1 <0>        -0.0894
     10 C9         -0.4674   -2.7788   -0.9641 C.ar      1 <0>        -0.1359
     11 C10         0.3545   -2.0875   -1.8512 C.ar      1 <0>         0.1196
     12 N1          1.1535   -2.7128   -2.6816 N.ar      1 <0>        -0.4412
     13 C11        -1.3332   -4.9149    0.0054 C.3       1 <0>         0.1356
     14 H1         -1.4760   -5.9276   -0.3716 H         1 <0>         0.1358
     15 C12        -0.6694   -4.9723    1.3827 C.3       1 <0>        -0.0016
     16 H2         -0.4368   -3.9604    1.7146 H         1 <0>         0.1419
     17 C13         0.6234   -5.7859    1.2897 C.3       1 <0>        -0.1446
     18 C14         0.5205   -6.9888    2.2367 C.3       1 <0>        -0.0897
     19 H3          1.4275   -7.5908    2.1826 H         1 <0>         0.1188
     20 C15         0.3146   -6.4648    3.6641 C.3       1 <0>        -0.1399
     21 C16        -0.9581   -5.6156    3.6993 C.3       1 <0>         0.0060
     22 N2         -1.5860   -5.5987    2.3384 N.4       1 <0>        -0.3777
     23 C17        -1.9452   -6.9491    1.8991 C.3       1 <0>        -0.0060
     24 C18        -0.6982   -7.8255    1.8255 C.3       1 <0>        -0.0690
     25 H4         -0.5662   -8.1862    0.8054 H         1 <0>         0.1077
     26 C19        -0.8466   -8.9962    2.7628 C.2       1 <0>        -0.1887
     27 C20        -0.7986  -10.2192    2.2959 C.2       1 <0>        -0.1430
     28 O2         -2.6008   -4.2641    0.1144 O.3       1 <0>        -0.5415
     29 H5          2.2514   -9.8481   -3.6553 H         1 <0>         0.1092
     30 H6          2.0220   -8.4547   -4.7388 H         1 <0>         0.0634
     31 H7          3.3097   -8.4243   -3.5104 H         1 <0>         0.0627
     32 H8          2.7829   -6.5743   -4.3075 H         1 <0>         0.1459
     33 H9          2.7001   -4.1430   -4.2811 H         1 <0>         0.1495
     34 H10        -0.1460   -6.8056   -1.2176 H         1 <0>         0.1332
     35 H11        -1.1155   -2.2354   -0.2925 H         1 <0>         0.1386
     36 H12         0.3327   -1.0078   -1.8554 H         1 <0>         0.1685
     37 H13         0.7614   -6.1369    0.2671 H         1 <0>         0.1126
     38 H14         1.4689   -5.1629    1.5813 H         1 <0>         0.1049
     39 H15         0.2120   -7.3052    4.3505 H         1 <0>         0.1036
     40 H16         1.1692   -5.8544    3.9559 H         1 <0>         0.1012
     41 H17        -1.6629   -6.0496    4.4084 H         1 <0>         0.1305
     42 H18        -0.7082   -4.6024    4.0143 H         1 <0>         0.1322
     43 H19        -2.6493   -7.3847    2.6081 H         1 <0>         0.1357
     44 H20        -2.4109   -6.8974    0.9150 H         1 <0>         0.1329
     45 H21        -0.9925   -8.8269    3.8194 H         1 <0>         0.1186
     46 H22        -0.6527  -10.3886    1.2393 H         1 <0>         0.1043
     47 H23        -0.9050  -11.0582    2.9676 H         1 <0>         0.1106
     48 H24        -2.5601   -3.3903    0.5265 H         1 <0>         0.3867
     49 H25        -2.4308   -5.0484    2.3780 H         1 <0>         0.4254
@<TRIPOS>BOND
     1    1    2 1
     2    1   29 1
     3    1   30 1
     4    1   31 1
     5    2    3 1
     6    3    8 ar
     7    3    4 ar
     8    4    5 ar
     9    4   32 1
    10    5    6 ar
    11    5   33 1
    12    6   12 ar
    13    6    7 ar
    14    7    8 ar
    15    7    9 ar
    16    8   34 1
    17    9   10 ar
    18    9   13 1
    19   10   11 ar
    20   10   35 1
    21   11   12 ar
    22   11   36 1
    23   13   14 1
    24   13   15 1
    25   13   28 1
    26   15   16 1
    27   15   22 1
    28   15   17 1
    29   17   18 1
    30   17   37 1
    31   17   38 1
    32   18   19 1
    33   18   24 1
    34   18   20 1
    35   20   21 1
    36   20   39 1
    37   20   40 1
    38   21   22 1
    39   21   41 1
    40   21   42 1
    41   22   23 1
    42   22   49 1
    43   23   24 1
    44   23   43 1
    45   23   44 1
    46   24   25 1
    47   24   26 1
    48   26   27 2
    49   26   45 1
    50   27   46 1
    51   27   47 1
    52   28   48 1
