@<TRIPOS>MOLECULE
ZINC00537795
   57    59     0     0     0
SMALL
USER_CHARGES

@<TRIPOS>ATOM
      1 C1         -0.0184    1.5028    0.0103 C.3       1 <0>        -0.1061
      2 C2          0.0021   -0.0041    0.0020 C.ar      1 <0>         0.1023
      3 C3          0.0058   -0.6893   -1.2048 C.ar      1 <0>         0.0509
      4 N1          0.0236   -2.0068   -1.2170 N.ar      1 <0>        -0.4092
      5 C4          0.0386   -2.6811   -0.0703 C.ar      1 <0>         0.0196
      6 C5          0.0353   -1.9898    1.1402 C.ar      1 <0>         0.1186
      7 N2          0.0219   -0.6688    1.1435 N.ar      1 <0>        -0.4418
      8 C6          0.0582   -4.1624   -0.0798 C.2       1 <0>         0.5744
      9 O1          0.0718   -4.7766    0.9687 O.2       1 <0>        -0.5229
     10 N3          0.0609   -4.8289   -1.2512 N.am      1 <0>        -0.7086
     11 C7          0.0802   -6.2937   -1.2606 C.3       1 <0>         0.1206
     12 C8          0.0793   -6.7946   -2.7063 C.3       1 <0>        -0.0915
     13 C9          0.0992   -8.3014   -2.7159 C.ar      1 <0>        -0.0518
     14 C10         1.3054   -8.9767   -2.7209 C.ar      1 <0>        -0.1387
     15 C11         1.3237  -10.3588   -2.7297 C.ar      1 <0>        -0.0199
     16 C12         0.1358  -11.0658   -2.7331 C.ar      1 <0>        -0.6261
     17 C13        -1.0704  -10.3905   -2.7272 C.ar      1 <0>        -0.0200
     18 C14        -1.0887   -9.0084   -2.7140 C.ar      1 <0>        -0.1387
     19 S1          0.1591  -12.8276   -2.7455 S.o2      1 <0>         2.6734
     20 O2         -1.0815  -13.2463   -3.2976 O.2       1 <0>        -1.0097
     21 O3          1.4090  -13.2133   -3.3007 O.2       1 <0>        -1.0095
     22 N4          0.1677  -13.3283   -1.1670 N.2       1 <0>        -1.1046
     23 C15         0.1849  -14.5988   -0.8877 C.2       1 <0>         0.6849
     24 O4          0.1957  -15.5097   -1.8853 O.3       1 <0>        -0.7479
     25 N5          0.1920  -15.0141    0.4214 N.pl3     1 <0>        -0.7202
     26 C16         0.2113  -16.4448    0.7360 C.3       1 <0>         0.1652
     27 C17         1.6551  -16.9508    0.7209 C.3       1 <0>        -0.1304
     28 C18         1.6753  -18.4450    1.0494 C.3       1 <0>        -0.1163
     29 C19         1.0704  -18.6704    2.4366 C.3       1 <0>        -0.1184
     30 C20        -0.3735  -18.1644    2.4516 C.3       1 <0>        -0.1141
     31 C21        -0.3937  -16.6702    2.1231 C.3       1 <0>        -0.1258
     32 H1          1.0042    1.8801    0.0026 H         1 <0>         0.0882
     33 H2         -0.5455    1.8639   -0.8728 H         1 <0>         0.0844
     34 H3         -0.5286    1.8543    0.9071 H         1 <0>         0.0844
     35 H4         -0.0064   -0.1417   -2.1356 H         1 <0>         0.1778
     36 H5          0.0473   -2.5331    2.0735 H         1 <0>         0.1848
     37 H6          0.0500   -4.3386   -2.0882 H         1 <0>         0.4105
     38 H7          0.9777   -6.6484   -0.7538 H         1 <0>         0.0775
     39 H8         -0.8021   -6.6720   -0.7444 H         1 <0>         0.0776
     40 H9         -0.8181   -6.4398   -3.2131 H         1 <0>         0.0822
     41 H10         0.9617   -6.4162   -3.2224 H         1 <0>         0.0823
     42 H11         2.2335   -8.4243   -2.7182 H         1 <0>         0.1262
     43 H12         2.2661  -10.8864   -2.7343 H         1 <0>         0.1379
     44 H13        -1.9985  -10.9429   -2.7302 H         1 <0>         0.1380
     45 H14        -2.0310   -8.4808   -2.7057 H         1 <0>         0.1263
     46 H15         0.1842  -14.3600    1.1377 H         1 <0>         0.3913
     47 H16        -0.3719  -16.9881   -0.0075 H         1 <0>         0.0816
     48 H17         2.0861  -16.7902   -0.2673 H         1 <0>         0.0710
     49 H18         2.2384  -16.4074    1.4644 H         1 <0>         0.0553
     50 H19         1.0921  -18.9883    0.3060 H         1 <0>         0.0624
     51 H20         2.7039  -18.8055    1.0387 H         1 <0>         0.0572
     52 H21         1.0847  -19.7349    2.6706 H         1 <0>         0.0565
     53 H22         1.6536  -18.1270    3.1800 H         1 <0>         0.0590
     54 H23        -0.9567  -18.7077    1.7082 H         1 <0>         0.0632
     55 H24        -0.8045  -18.3250    3.4398 H         1 <0>         0.0595
     56 H25         0.1896  -16.1268    2.8665 H         1 <0>         0.0623
     57 H26        -1.4223  -16.3097    2.1338 H         1 <0>         0.0650
@<TRIPOS>BOND
     1    1    2 1
     2    1   32 1
     3    1   33 1
     4    1   34 1
     5    2    7 ar
     6    2    3 ar
     7    3    4 ar
     8    3   35 1
     9    4    5 ar
    10    5    6 ar
    11    5    8 1
    12    6    7 ar
    13    6   36 1
    14    8    9 2
    15    8   10 am
    16   10   11 1
    17   10   37 1
    18   11   12 1
    19   11   38 1
    20   11   39 1
    21   12   13 1
    22   12   40 1
    23   12   41 1
    24   13   18 ar
    25   13   14 ar
    26   14   15 ar
    27   14   42 1
    28   15   16 ar
    29   15   43 1
    30   16   17 ar
    31   16   19 1
    32   17   18 ar
    33   17   44 1
    34   18   45 1
    35   19   20 2
    36   19   21 2
    37   19   22 1
    38   22   23 2
    39   23   24 1
    40   23   25 1
    41   25   26 1
    42   25   46 1
    43   26   31 1
    44   26   27 1
    45   26   47 1
    46   27   28 1
    47   27   48 1
    48   27   49 1
    49   28   29 1
    50   28   50 1
    51   28   51 1
    52   29   30 1
    53   29   52 1
    54   29   53 1
    55   30   31 1
    56   30   54 1
    57   30   55 1
    58   31   56 1
    59   31   57 1
@<TRIPOS>MOLECULE
ZINC03946466
   39    41     0     0     0
SMALL
USER_CHARGES

@<TRIPOS>ATOM
      1 C1          1.5635    1.1323   -0.7789 C.ar      1 <0>        -0.1038
      2 C2          2.4995    1.9690   -0.1997 C.ar      1 <0>        -0.0897
      3 C3          3.8357    1.6153   -0.1968 C.ar      1 <0>        -0.0622
      4 C4          4.2370    0.4247   -0.7735 C.ar      1 <0>        -0.1014
      5 C5          3.3010   -0.4128   -1.3532 C.ar      1 <0>        -0.0315
      6 C6          1.9634   -0.0582   -1.3554 C.ar      1 <0>        -0.1082
      7 Cl1         3.8042   -1.9077   -2.0781 Cl        1 <0>        -0.0677
      8 C7          4.8552    2.5278    0.4347 C.3       1 <0>         0.1997
      9 C8          6.2111    2.5324   -0.2909 C.3       1 <0>        -0.1333
     10 C9          6.8665    2.5656    1.0998 C.3       1 <0>        -0.1445
     11 C10         5.5870    1.8988    1.6321 C.3       1 <0>        -0.1248
     12 N1          4.3286    3.8675    0.7066 N.pl3     1 <0>        -0.6778
     13 C11         3.3574    4.0409    1.6521 C.2       1 <0>         0.6816
     14 N2          2.9666    3.0189    2.3930 N.2       1 <0>        -0.5358
     15 C12         2.0788    3.2113    3.3984 C.1       1 <0>         0.3729
     16 N3          1.3344    3.3726    4.2412 N.1       1 <0>        -0.4551
     17 N4          2.7899    5.2722    1.8316 N.pl3     1 <0>        -0.6819
     18 C13         2.8620    6.2306    0.8149 C.ar      1 <0>         0.1006
     19 C14         2.7001    7.5831    1.1059 C.ar      1 <0>        -0.1061
     20 C15         2.7799    8.4940    0.0656 C.ar      1 <0>        -0.1292
     21 C16         3.0156    8.0351   -1.2173 C.ar      1 <0>         0.0778
     22 N5          3.1643    6.7476   -1.4597 N.ar      1 <0>        -0.4437
     23 C17         3.1015    5.8480   -0.4983 C.ar      1 <0>         0.0406
     24 H1          0.5191    1.4072   -0.7769 H         1 <0>         0.1297
     25 H2          2.1866    2.8996    0.2504 H         1 <0>         0.1176
     26 H3          5.2811    0.1487   -0.7719 H         1 <0>         0.1363
     27 H4          1.2322   -0.7117   -1.8078 H         1 <0>         0.1331
     28 H5          6.4120    1.6164   -0.8466 H         1 <0>         0.1078
     29 H6          6.3886    3.4329   -0.8789 H         1 <0>         0.0795
     30 H7          7.7527    1.9360    1.1800 H         1 <0>         0.0786
     31 H8          7.0257    3.5733    1.4835 H         1 <0>         0.0815
     32 H9          5.2607    2.2878    2.5966 H         1 <0>         0.0889
     33 H10         5.6174    0.8096    1.6022 H         1 <0>         0.0976
     34 H11         4.6693    4.6315    0.2155 H         1 <0>         0.4234
     35 H12         2.3374    5.4811    2.6638 H         1 <0>         0.4279
     36 H13         2.5167    7.9134    2.1177 H         1 <0>         0.1428
     37 H14         2.6590    9.5505    0.2542 H         1 <0>         0.1461
     38 H15         3.0783    8.7411   -2.0322 H         1 <0>         0.1645
     39 H16         3.2330    4.8025   -0.7350 H         1 <0>         0.1679
@<TRIPOS>BOND
     1    1    6 ar
     2    1    2 ar
     3    1   24 1
     4    2    3 ar
     5    2   25 1
     6    3    4 ar
     7    3    8 1
     8    4    5 ar
     9    4   26 1
    10    5    6 ar
    11    5    7 1
    12    6   27 1
    13    8   11 1
    14    8    9 1
    15    8   12 1
    16    9   10 1
    17    9   28 1
    18    9   29 1
    19   10   11 1
    20   10   30 1
    21   10   31 1
    22   11   32 1
    23   11   33 1
    24   12   13 1
    25   12   34 1
    26   13   14 2
    27   13   17 1
    28   14   15 1
    29   15   16 3
    30   17   18 1
    31   17   35 1
    32   18   23 ar
    33   18   19 ar
    34   19   20 ar
    35   19   36 1
    36   20   21 ar
    37   20   37 1
    38   21   22 ar
    39   21   38 1
    40   22   23 ar
    41   23   39 1
@<TRIPOS>MOLECULE
ZINC03946466
   38    40     0     0     0
SMALL
USER_CHARGES

@<TRIPOS>ATOM
      1 C1         -0.5995    3.1646   -1.4887 C.ar      1 <0>        -0.1096
      2 C2          0.6946    3.5408   -1.1799 C.ar      1 <0>        -0.0753
      3 C3          1.7479    2.6916   -1.4627 C.ar      1 <0>        -0.0350
      4 C4          1.5079    1.4657   -2.0549 C.ar      1 <0>        -0.1055
      5 C5          0.2134    1.0888   -2.3641 C.ar      1 <0>        -0.0359
      6 C6         -0.8407    1.9392   -2.0803 C.ar      1 <0>        -0.1200
      7 Cl1        -0.0887   -0.4502   -3.1083 Cl        1 <0>        -0.0868
      8 C7          3.1581    3.1023   -1.1258 C.3       1 <0>         0.2077
      9 C8          4.0775    3.2129   -2.3536 C.3       1 <0>        -0.1352
     10 C9          5.1764    2.5708   -1.4905 C.3       1 <0>        -0.1409
     11 C10         4.0462    1.9348   -0.6641 C.3       1 <0>        -0.1297
     12 N1          3.2150    4.2685   -0.2410 N.pl3     1 <0>        -0.7176
     13 C11         2.7105    4.1897    1.0265 C.2       1 <0>         0.6391
     14 N2          2.1345    3.0747    1.4402 N.2       1 <0>        -0.6063
     15 C12         1.7087    2.9673    2.7221 C.1       1 <0>         0.4269
     16 N3          1.3517    2.8773    3.7967 N.1       1 <0>        -0.5565
     17 N4          2.8016    5.2649    1.8668 N.2       1 <0>        -0.7104
     18 C13         3.7856    6.2365    1.6554 C.ar      1 <0>         0.1642
     19 C14         3.5772    7.5531    2.0597 C.ar      1 <0>        -0.1450
     20 C15         4.5810    8.4790    1.8285 C.ar      1 <0>        -0.1343
     21 C16         5.7476    8.0699    1.2092 C.ar      1 <0>        -0.0047
     22 N5          5.9140    6.8155    0.8384 N.ar      1 <0>        -0.4581
     23 C17         4.9868    5.9015    1.0445 C.ar      1 <0>        -0.0263
     24 H1         -1.4225    3.8266   -1.2633 H         1 <0>         0.1241
     25 H2          0.8827    4.4986   -0.7178 H         1 <0>         0.1235
     26 H3          2.3311    0.8026   -2.2765 H         1 <0>         0.1293
     27 H4         -1.8516    1.6455   -2.3215 H         1 <0>         0.1246
     28 H5          3.7625    2.5920   -3.1923 H         1 <0>         0.0922
     29 H6          4.2955    4.2404   -2.6447 H         1 <0>         0.0712
     30 H7          5.7857    1.8446   -2.0285 H         1 <0>         0.0670
     31 H8          5.7716    3.2937   -0.9326 H         1 <0>         0.0821
     32 H9          4.2389    1.9306    0.4087 H         1 <0>         0.0822
     33 H10         3.7226    0.9646   -1.0409 H         1 <0>         0.0853
     34 H11         3.6108    5.0966   -0.5548 H         1 <0>         0.4055
     35 H12         2.6556    7.8448    2.5411 H         1 <0>         0.1181
     36 H13         4.4538    9.5087    2.1283 H         1 <0>         0.1153
     37 H14         6.5334    8.7879    1.0263 H         1 <0>         0.1339
     38 H15         5.1612    4.8828    0.7310 H         1 <0>         0.1409
@<TRIPOS>BOND
     1    1    6 ar
     2    1    2 ar
     3    1   24 1
     4    2    3 ar
     5    2   25 1
     6    3    4 ar
     7    3    8 1
     8    4    5 ar
     9    4   26 1
    10    5    6 ar
    11    5    7 1
    12    6   27 1
    13    8   11 1
    14    8    9 1
    15    8   12 1
    16    9   10 1
    17    9   28 1
    18    9   29 1
    19   10   11 1
    20   10   30 1
    21   10   31 1
    22   11   32 1
    23   11   33 1
    24   12   13 1
    25   12   34 1
    26   13   14 2
    27   13   17 1
    28   14   15 1
    29   15   16 3
    30   17   18 1
    31   18   23 ar
    32   18   19 ar
    33   19   20 ar
    34   19   35 1
    35   20   21 ar
    36   20   36 1
    37   21   22 ar
    38   21   37 1
    39   22   23 ar
    40   23   38 1
@<TRIPOS>MOLECULE
ZINC03946466
   39    41     0     0     0
SMALL
USER_CHARGES

@<TRIPOS>ATOM
      1 C1         -0.9294    1.6907    1.3446 C.ar      1 <0>        -0.0997
      2 C2          0.2272    2.2777    0.8658 C.ar      1 <0>        -0.1017
      3 C3          1.2654    1.4882    0.4084 C.ar      1 <0>        -0.0942
      4 C4          1.1477    0.1110    0.4290 C.ar      1 <0>        -0.0999
      5 C5         -0.0092   -0.4769    0.9079 C.ar      1 <0>        -0.0312
      6 C6         -1.0481    0.3141    1.3661 C.ar      1 <0>        -0.1029
      7 Cl1        -0.1580   -2.2063    0.9336 Cl        1 <0>        -0.0606
      8 C7          2.5258    2.1288   -0.1133 C.3       1 <0>         0.1700
      9 C8          2.8085    1.8172   -1.5924 C.3       1 <0>        -0.1234
     10 C9          4.2894    1.6846   -1.2000 C.3       1 <0>        -0.1347
     11 C10         3.8017    1.3361    0.2162 C.3       1 <0>        -0.1554
     12 N1          2.6183    3.5533    0.2163 N.pl3     1 <0>        -0.7189
     13 C11         2.7380    3.9484    1.5251 C.2       1 <0>         0.6572
     14 N2          2.7955    3.0051    2.5266 N.pl3     1 <0>        -0.5838
     15 C12         3.0170    3.3890    3.8070 C.1       1 <0>         0.4277
     16 N3          3.2028    3.7109    4.8805 N.1       1 <0>        -0.3835
     17 N4          2.7977    5.2249    1.8221 N.2       1 <0>        -0.5963
     18 C13         2.8678    6.1584    0.8217 C.ar      1 <0>         0.0919
     19 C14         1.9231    7.1887    0.7419 C.ar      1 <0>        -0.0887
     20 C15         2.0385    8.1058   -0.2875 C.ar      1 <0>        -0.1458
     21 C16         3.0734    7.9771   -1.1965 C.ar      1 <0>         0.0712
     22 N5          3.9494    6.9961   -1.0969 N.ar      1 <0>        -0.4626
     23 C17         3.8857    6.1019   -0.1319 C.ar      1 <0>         0.0431
     24 H1         -1.7385    2.3080    1.7060 H         1 <0>         0.1353
     25 H2          0.3194    3.3537    0.8488 H         1 <0>         0.1270
     26 H3          1.9587   -0.5058    0.0710 H         1 <0>         0.1402
     27 H4         -1.9516   -0.1444    1.7400 H         1 <0>         0.1370
     28 H5          2.3622    0.8836   -1.9349 H         1 <0>         0.1041
     29 H6          2.6073    2.6541   -2.2611 H         1 <0>         0.0807
     30 H7          4.8017    0.8625   -1.6999 H         1 <0>         0.0812
     31 H8          4.8410    2.6232   -1.2532 H         1 <0>         0.0875
     32 H9          4.4022    1.7847    1.0076 H         1 <0>         0.0808
     33 H10         3.6269    0.2710    0.3681 H         1 <0>         0.1044
     34 H11         2.5950    4.2172   -0.4906 H         1 <0>         0.4250
     35 H12         1.1246    7.2654    1.4651 H         1 <0>         0.1360
     36 H13         1.3277    8.9136   -0.3807 H         1 <0>         0.1376
     37 H14         3.1654    8.6915   -2.0012 H         1 <0>         0.1560
     38 H15         4.6245    5.3158   -0.0806 H         1 <0>         0.1499
     39 H16         2.6774    2.0657    2.3154 H         1 <0>         0.4394
@<TRIPOS>BOND
     1    1    6 ar
     2    1    2 ar
     3    1   24 1
     4    2    3 ar
     5    2   25 1
     6    3    4 ar
     7    3    8 1
     8    4    5 ar
     9    4   26 1
    10    5    6 ar
    11    5    7 1
    12    6   27 1
    13    8   11 1
    14    8    9 1
    15    8   12 1
    16    9   10 1
    17    9   28 1
    18    9   29 1
    19   10   11 1
    20   10   30 1
    21   10   31 1
    22   11   32 1
    23   11   33 1
    24   12   13 1
    25   12   34 1
    26   13   14 1
    27   13   17 2
    28   14   15 1
    29   14   39 1
    30   15   16 3
    31   17   18 1
    32   18   23 ar
    33   18   19 ar
    34   19   20 ar
    35   19   35 1
    36   20   21 ar
    37   20   36 1
    38   21   22 ar
    39   21   37 1
    40   22   23 ar
    41   23   38 1
@<TRIPOS>MOLECULE
ZINC00537805
   60    62     0     0     0
SMALL
USER_CHARGES

@<TRIPOS>ATOM
      1 C1         -0.0173    1.4248    0.0099 C.3       1 <0>         0.0182
      2 O1          0.0021   -0.0041    0.0020 O.3       1 <0>        -0.2748
      3 C2          0.6248   -0.6173    1.0397 C.ar      1 <0>         0.1920
      4 C3          1.2017    0.1376    2.0502 C.ar      1 <0>        -0.2078
      5 C4          1.8351   -0.4872    3.1057 C.ar      1 <0>        -0.0422
      6 C5          1.9003   -1.8709    3.1645 C.ar      1 <0>        -0.0840
      7 C6          1.3321   -2.6365    2.1684 C.ar      1 <0>        -0.0380
      8 C7          0.6827   -2.0162    1.0981 C.ar      1 <0>        -0.1597
      9 C8          0.0667   -2.8292    0.0322 C.2       1 <0>         0.5595
     10 O2         -0.4933   -2.2858   -0.9002 O.2       1 <0>        -0.5093
     11 N1          0.1246   -4.1744    0.0921 N.am      1 <0>        -0.7295
     12 C9         -0.4871   -4.9818   -0.9663 C.3       1 <0>         0.1248
     13 C10        -0.2807   -6.4663   -0.6591 C.3       1 <0>        -0.0921
     14 C11        -0.9099   -7.2969   -1.7479 C.ar      1 <0>        -0.0513
     15 C12        -2.2308   -7.6903   -1.6410 C.ar      1 <0>        -0.1388
     16 C13        -2.8080   -8.4521   -2.6397 C.ar      1 <0>        -0.0201
     17 C14        -2.0644   -8.8201   -3.7454 C.ar      1 <0>        -0.6264
     18 C15        -0.7438   -8.4259   -3.8527 C.ar      1 <0>        -0.0200
     19 C16        -0.1679   -7.6605   -2.8560 C.ar      1 <0>        -0.1388
     20 S1         -2.7998   -9.7921   -5.0179 S.o2      1 <0>         2.6734
     21 O3         -1.7374  -10.4617   -5.6828 O.2       1 <0>        -1.0097
     22 O4         -3.8845  -10.4894   -4.4207 O.2       1 <0>        -1.0098
     23 N2         -3.4590   -8.7429   -6.1164 N.2       1 <0>        -1.1046
     24 C17        -4.0714   -9.2023   -7.1683 C.2       1 <0>         0.6850
     25 O5         -4.1695  -10.5353   -7.3644 O.3       1 <0>        -0.7480
     26 N3         -4.6181   -8.3321   -8.0794 N.pl3     1 <0>        -0.7202
     27 C18        -5.3077   -8.8494   -9.2639 C.3       1 <0>         0.1652
     28 C19        -4.2854   -9.1312  -10.3668 C.3       1 <0>        -0.1304
     29 C20        -5.0055   -9.6715  -11.6039 C.3       1 <0>        -0.1163
     30 C21        -6.0168   -8.6353  -12.0985 C.3       1 <0>        -0.1184
     31 C22        -7.0391   -8.3536  -10.9956 C.3       1 <0>        -0.1141
     32 C23        -6.3189   -7.8133   -9.7585 C.3       1 <0>        -0.1258
     33 Cl1         2.7012   -2.6426    4.4974 Cl        1 <0>        -0.0634
     34 H1          1.0053    1.8021    0.0021 H         1 <0>         0.0584
     35 H2         -0.5445    1.7859   -0.8732 H         1 <0>         0.1066
     36 H3         -0.5275    1.7763    0.9067 H         1 <0>         0.0584
     37 H4          1.1556    1.2159    2.0109 H         1 <0>         0.1455
     38 H5          2.2828    0.1052    3.8899 H         1 <0>         0.1414
     39 H6          1.3849   -3.7141    2.2178 H         1 <0>         0.1433
     40 H7          0.5714   -4.6080    0.8360 H         1 <0>         0.3973
     41 H8         -1.5543   -4.7662   -1.0169 H         1 <0>         0.0750
     42 H9         -0.0220   -4.7405   -1.9221 H         1 <0>         0.0750
     43 H10         0.7866   -6.6820   -0.6085 H         1 <0>         0.0813
     44 H11        -0.7458   -6.7077    0.2967 H         1 <0>         0.0814
     45 H12        -2.8117   -7.4028   -0.7772 H         1 <0>         0.1262
     46 H13        -3.8397   -8.7601   -2.5559 H         1 <0>         0.1378
     47 H14        -0.1628   -8.7137   -4.7164 H         1 <0>         0.1377
     48 H15         0.8628   -7.3493   -2.9416 H         1 <0>         0.1261
     49 H16        -4.5477   -7.3750   -7.9386 H         1 <0>         0.3913
     50 H17        -5.8287   -9.7718   -9.0072 H         1 <0>         0.0815
     51 H18        -3.7644   -8.2088  -10.6236 H         1 <0>         0.0553
     52 H19        -3.5649   -9.8694  -10.0144 H         1 <0>         0.0710
     53 H20        -4.2772   -9.8722  -12.3896 H         1 <0>         0.0572
     54 H21        -5.5265  -10.5939  -11.3471 H         1 <0>         0.0624
     55 H22        -5.4958   -7.7129  -12.3552 H         1 <0>         0.0590
     56 H23        -6.5298   -9.0202  -12.9798 H         1 <0>         0.0564
     57 H24        -7.7595   -7.6154  -11.3480 H         1 <0>         0.0595
     58 H25        -7.5601   -9.2759  -10.7388 H         1 <0>         0.0632
     59 H26        -7.0473   -7.6126   -8.9728 H         1 <0>         0.0650
     60 H27        -5.7980   -6.8909  -10.0153 H         1 <0>         0.0622
@<TRIPOS>BOND
     1    1    2 1
     2    1   34 1
     3    1   35 1
     4    1   36 1
     5    2    3 1
     6    3    8 ar
     7    3    4 ar
     8    4    5 ar
     9    4   37 1
    10    5    6 ar
    11    5   38 1
    12    6    7 ar
    13    6   33 1
    14    7    8 ar
    15    7   39 1
    16    8    9 1
    17    9   10 2
    18    9   11 am
    19   11   12 1
    20   11   40 1
    21   12   13 1
    22   12   41 1
    23   12   42 1
    24   13   14 1
    25   13   43 1
    26   13   44 1
    27   14   19 ar
    28   14   15 ar
    29   15   16 ar
    30   15   45 1
    31   16   17 ar
    32   16   46 1
    33   17   18 ar
    34   17   20 1
    35   18   19 ar
    36   18   47 1
    37   19   48 1
    38   20   21 2
    39   20   22 2
    40   20   23 1
    41   23   24 2
    42   24   25 1
    43   24   26 1
    44   26   27 1
    45   26   49 1
    46   27   32 1
    47   27   28 1
    48   27   50 1
    49   28   29 1
    50   28   51 1
    51   28   52 1
    52   29   30 1
    53   29   53 1
    54   29   54 1
    55   30   31 1
    56   30   55 1
    57   30   56 1
    58   31   32 1
    59   31   57 1
    60   31   58 1
    61   32   59 1
    62   32   60 1
@<TRIPOS>MOLECULE
ZINC43206250
   54    56     0     0     0
SMALL
USER_CHARGES

@<TRIPOS>ATOM
      1 C1         -0.0173    1.4248    0.0099 C.3       1 <0>         0.0265
      2 O1          0.0021   -0.0041    0.0020 O.3       1 <0>        -0.3182
      3 C2          0.6058   -0.6071   -1.0557 C.ar      1 <0>         0.1265
      4 C3          1.1730    0.1607   -2.0624 C.ar      1 <0>        -0.2059
      5 C4          1.7865   -0.4547   -3.1363 C.ar      1 <0>        -0.0709
      6 C5          1.8352   -1.8346   -3.2086 C.ar      1 <0>        -0.1219
      7 C6          1.2702   -2.6021   -2.2068 C.ar      1 <0>        -0.0734
      8 C7          0.6609   -1.9915   -1.1277 C.ar      1 <0>        -0.1505
      9 C8          2.5046   -2.5033   -4.3815 C.3       1 <0>        -0.0933
     10 C9          3.9857   -2.7227   -4.0663 C.3       1 <0>         0.1572
     11 N1          4.6365   -3.3728   -5.2065 N.am      1 <0>        -0.6137
     12 C10         4.7519   -4.8250   -5.4075 C.3       1 <0>         0.1735
     13 H1          3.7645   -5.2801   -5.4849 H         1 <0>         0.1094
     14 C11         5.5129   -4.9538   -6.7413 C.3       1 <0>         0.0977
     15 N2          5.7455   -3.5605   -7.1502 N.am      1 <0>        -0.4252
     16 C12         5.2159   -2.7389   -6.2344 C.2       1 <0>         0.6980
     17 O2          5.2606   -1.5273   -6.3259 O.2       1 <0>        -0.5638
     18 N3          6.4102   -3.1567   -8.3155 N.pl3     1 <0>        -0.8666
     19 S1          5.5574   -2.9186   -9.7149 S.o2      1 <0>         2.6109
     20 O3          6.5154   -2.4328  -10.6452 O.2       1 <0>        -0.9411
     21 O4          4.8849   -4.1493   -9.9436 O.2       1 <0>        -0.9454
     22 C13         4.3591   -1.6168   -9.3149 C.3       1 <0>        -0.6549
     23 C14         5.5360   -5.4537   -4.2847 C.ar      1 <0>        -0.1487
     24 C15         6.6460   -4.8081   -3.7721 C.ar      1 <0>        -0.0536
     25 C16         7.3669   -5.3826   -2.7431 C.ar      1 <0>        -0.1512
     26 C17         6.9759   -6.6082   -2.2239 C.ar      1 <0>         0.1390
     27 C18         5.8615   -7.2538   -2.7396 C.ar      1 <0>        -0.2082
     28 C19         5.1410   -6.6726   -3.7651 C.ar      1 <0>        -0.0571
     29 O5          7.6836   -7.1757   -1.2119 O.3       1 <0>        -0.3163
     30 C20         7.2232   -8.4385   -0.7268 C.3       1 <0>         0.0257
     31 H2          1.0053    1.8021    0.0021 H         1 <0>         0.0562
     32 H3         -0.5445    1.7859   -0.8732 H         1 <0>         0.0560
     33 H4         -0.5275    1.7763    0.9067 H         1 <0>         0.1012
     34 H5          1.1347    1.2385   -2.0068 H         1 <0>         0.1283
     35 H6          2.2283    0.1425   -3.9203 H         1 <0>         0.1261
     36 H7          1.3092   -3.6798   -2.2657 H         1 <0>         0.1292
     37 H8          0.2237   -2.5913   -0.3432 H         1 <0>         0.1309
     38 H9          2.0276   -3.4646   -4.5726 H         1 <0>         0.0763
     39 H10         2.4108   -1.8695   -5.2632 H         1 <0>         0.0771
     40 H11         4.4627   -1.7615   -3.8752 H         1 <0>         0.0892
     41 H12         4.0795   -3.3566   -3.1846 H         1 <0>         0.0884
     42 H13         6.4602   -5.4722   -6.5928 H         1 <0>         0.0954
     43 H14         4.9034   -5.4729   -7.4810 H         1 <0>         0.1049
     44 H15         7.3699   -3.0165   -8.3026 H         1 <0>         0.4233
     45 H16         4.8903   -0.7158   -9.0082 H         1 <0>         0.1373
     46 H17         3.7520   -1.3993  -10.1936 H         1 <0>         0.1321
     47 H18         3.7150   -1.9531   -8.5024 H         1 <0>         0.1257
     48 H19         6.9500   -3.8540   -4.1767 H         1 <0>         0.1255
     49 H20         8.2342   -4.8782   -2.3435 H         1 <0>         0.1322
     50 H21         5.5551   -8.2080   -2.3371 H         1 <0>         0.1319
     51 H22         4.2709   -7.1727   -4.1640 H         1 <0>         0.1308
     52 H23         7.8754   -8.7784    0.0776 H         1 <0>         0.1023
     53 H24         6.2058   -8.3339   -0.3500 H         1 <0>         0.0575
     54 H25         7.2372   -9.1664   -1.5381 H         1 <0>         0.0576
@<TRIPOS>BOND
     1    1    2 1
     2    1   31 1
     3    1   32 1
     4    1   33 1
     5    2    3 1
     6    3    8 ar
     7    3    4 ar
     8    4    5 ar
     9    4   34 1
    10    5    6 ar
    11    5   35 1
    12    6    7 ar
    13    6    9 1
    14    7    8 ar
    15    7   36 1
    16    8   37 1
    17    9   10 1
    18    9   38 1
    19    9   39 1
    20   10   11 1
    21   10   40 1
    22   10   41 1
    23   11   16 am
    24   11   12 1
    25   12   13 1
    26   12   14 1
    27   12   23 1
    28   14   15 1
    29   14   42 1
    30   14   43 1
    31   15   16 am
    32   15   18 1
    33   16   17 2
    34   18   19 1
    35   18   44 1
    36   19   20 2
    37   19   21 2
    38   19   22 1
    39   22   45 1
    40   22   46 1
    41   22   47 1
    42   23   28 ar
    43   23   24 ar
    44   24   25 ar
    45   24   48 1
    46   25   26 ar
    47   25   49 1
    48   26   27 ar
    49   26   29 1
    50   27   28 ar
    51   27   50 1
    52   28   51 1
    53   29   30 1
    54   30   52 1
    55   30   53 1
    56   30   54 1
