@<TRIPOS>MOLECULE
ZINC19364229
   52    54     0     0     0
SMALL
USER_CHARGES

@<TRIPOS>ATOM
      1 C1          6.5838    1.7354   -2.0449 C.ar      1 <0>        -0.1107
      2 C2          6.6402    1.5890   -0.6715 C.ar      1 <0>        -0.1163
      3 C3          5.7105    0.7987   -0.0219 C.ar      1 <0>        -0.1082
      4 C4          4.7241    0.1552   -0.7456 C.ar      1 <0>        -0.0914
      5 C5          4.6671    0.3024   -2.1190 C.ar      1 <0>        -0.0934
      6 C6          5.5977    1.0915   -2.7687 C.ar      1 <0>        -0.1225
      7 C7          3.7112   -0.7071   -0.0376 C.3       1 <0>         0.1743
      8 H1          4.0605   -0.9234    0.9720 H         1 <0>         0.0708
      9 C8          2.3932    0.0203    0.0319 C.ar      1 <0>        -0.0842
     10 C9          1.5996    0.1215   -1.0955 C.ar      1 <0>        -0.0811
     11 C10         0.3907    0.7885   -1.0324 C.ar      1 <0>        -0.1132
     12 C11        -0.0252    1.3549    0.1595 C.ar      1 <0>        -0.0286
     13 C12         0.7695    1.2532    1.2874 C.ar      1 <0>        -0.1076
     14 C13         1.9756    0.5811    1.2245 C.ar      1 <0>        -0.0960
     15 Cl1        -1.5432    2.1933    0.2394 Cl        1 <0>        -0.0629
     16 N1          3.5378   -1.9653   -0.7758 N.3       1 <0>        -0.5298
     17 C14         2.5169   -2.8115   -0.1418 C.3       1 <0>         0.0222
     18 C15         2.3244   -4.0823   -0.9724 C.3       1 <0>         0.0017
     19 N2          3.5990   -4.8067   -1.0618 N.4       1 <0>        -0.3864
     20 C16         4.6016   -3.9580   -1.7191 C.3       1 <0>        -0.0032
     21 C17         4.8130   -2.6862   -0.8947 C.3       1 <0>         0.0253
     22 C18         3.4096   -6.0357   -1.8439 C.3       1 <0>         0.0041
     23 C19         4.7036   -6.8519   -1.8326 C.3       1 <0>         0.0167
     24 O1          4.9787   -7.2902   -0.5006 O.3       1 <0>        -0.3695
     25 C20         6.1728   -8.0657   -0.3788 C.3       1 <0>        -0.0010
     26 C21         6.3633   -8.4720    1.0598 C.2       1 <0>         0.4965
     27 O2          5.5518   -8.1293    1.9027 O.co2     1 <0>        -0.6775
     28 O3          7.3291   -9.1434    1.3809 O.co2     1 <0>        -0.6784
     29 H2          7.3074    2.3565   -2.5519 H         1 <0>         0.1239
     30 H3          7.4108    2.0918   -0.1060 H         1 <0>         0.1254
     31 H4          5.7550    0.6838    1.0511 H         1 <0>         0.1218
     32 H5          3.8967   -0.2007   -2.6845 H         1 <0>         0.1274
     33 H6          5.5534    1.2062   -3.8417 H         1 <0>         0.1236
     34 H7          1.9245   -0.3203   -2.0259 H         1 <0>         0.1377
     35 H8         -0.2290    0.8679   -1.9133 H         1 <0>         0.1350
     36 H9          0.4455    1.6953    2.2180 H         1 <0>         0.1366
     37 H10         2.5937    0.4975    2.1061 H         1 <0>         0.1321
     38 H11         2.8403   -3.0799    0.8639 H         1 <0>         0.0657
     39 H12         1.5747   -2.2661   -0.0878 H         1 <0>         0.1233
     40 H13         1.5779   -4.7179   -0.4962 H         1 <0>         0.1355
     41 H14         1.9879   -3.8142   -1.9739 H         1 <0>         0.1340
     42 H15         5.5432   -4.5015   -1.7965 H         1 <0>         0.1351
     43 H16         4.2534   -3.6906   -2.7167 H         1 <0>         0.1344
     44 H17         5.5460   -2.0494   -1.3900 H         1 <0>         0.1243
     45 H18         5.1743   -2.9525    0.0986 H         1 <0>         0.0662
     46 H19         2.6044   -6.6250   -1.4053 H         1 <0>         0.1376
     47 H20         3.1524   -5.7767   -2.8710 H         1 <0>         0.1358
     48 H21         4.5924   -7.7184   -2.4845 H         1 <0>         0.0876
     49 H22         5.5270   -6.2327   -2.1887 H         1 <0>         0.0629
     50 H23         6.0920   -8.9573   -1.0005 H         1 <0>         0.0560
     51 H24         7.0266   -7.4716   -0.7047 H         1 <0>         0.0519
     52 H25         3.9163   -5.0446   -0.1339 H         1 <0>         0.4362
@<TRIPOS>BOND
     1    1    6 ar
     2    1    2 ar
     3    1   29 1
     4    2    3 ar
     5    2   30 1
     6    3    4 ar
     7    3   31 1
     8    4    5 ar
     9    4    7 1
    10    5    6 ar
    11    5   32 1
    12    6   33 1
    13    7    8 1
    14    7    9 1
    15    7   16 1
    16    9   14 ar
    17    9   10 ar
    18   10   11 ar
    19   10   34 1
    20   11   12 ar
    21   11   35 1
    22   12   13 ar
    23   12   15 1
    24   13   14 ar
    25   13   36 1
    26   14   37 1
    27   16   21 1
    28   16   17 1
    29   17   18 1
    30   17   38 1
    31   17   39 1
    32   18   19 1
    33   18   40 1
    34   18   41 1
    35   19   20 1
    36   19   22 1
    37   19   52 1
    38   20   21 1
    39   20   42 1
    40   20   43 1
    41   21   44 1
    42   21   45 1
    43   22   23 1
    44   22   46 1
    45   22   47 1
    46   23   24 1
    47   23   48 1
    48   23   49 1
    49   24   25 1
    50   25   26 1
    51   25   50 1
    52   25   51 1
    53   26   27 2
    54   26   28 1
@<TRIPOS>MOLECULE
ZINC19364229
   52    54     0     0     0
SMALL
USER_CHARGES

@<TRIPOS>ATOM
      1 C1         -0.0167    1.3781    0.0096 C.ar      1 <0>        -0.0938
      2 C2          1.1709    2.0855    0.0021 C.ar      1 <0>        -0.1039
      3 C3          2.3773    1.4107   -0.0130 C.ar      1 <0>        -0.0846
      4 C4          2.3960    0.0285   -0.0201 C.ar      1 <0>        -0.1289
      5 C5          1.2084   -0.6789   -0.0117 C.ar      1 <0>        -0.1207
      6 C6          0.0021   -0.0041    0.0020 C.ar      1 <0>        -0.1038
      7 C7          3.7112   -0.7071   -0.0376 C.3       1 <0>         0.1307
      8 H1          4.4960   -0.0399   -0.3940 H         1 <0>         0.1535
      9 C8          4.0438   -1.1746    1.3559 C.ar      1 <0>        -0.1230
     10 C9          3.4553   -2.3197    1.8594 C.ar      1 <0>        -0.1076
     11 C10         3.7599   -2.7490    3.1374 C.ar      1 <0>        -0.0962
     12 C11         4.6540   -2.0325    3.9128 C.ar      1 <0>        -0.0164
     13 C12         5.2427   -0.8866    3.4084 C.ar      1 <0>        -0.0964
     14 C13         4.9415   -0.4614    2.1282 C.ar      1 <0>        -0.0716
     15 Cl1         5.0367   -2.5708    5.5182 Cl        1 <0>        -0.0442
     16 N1          3.6112   -1.8677   -0.9326 N.4       1 <0>        -0.3824
     17 C14         4.8926   -2.5855   -0.9481 C.3       1 <0>        -0.0053
     18 C15         4.7832   -3.8052   -1.8657 C.3       1 <0>         0.0318
     19 N2          4.4330   -3.3636   -3.2231 N.3       1 <0>        -0.5227
     20 C16         3.1643   -2.6216   -3.2195 C.3       1 <0>         0.0268
     21 C17         3.2871   -1.4117   -2.2908 C.3       1 <0>        -0.0033
     22 C18         4.3739   -4.5029   -4.1485 C.3       1 <0>         0.0634
     23 C19         4.2557   -3.9880   -5.5844 C.3       1 <0>         0.0513
     24 O1          5.4449   -3.2774   -5.9351 O.3       1 <0>        -0.3439
     25 C20         5.4375   -2.7520   -7.2639 C.3       1 <0>        -0.0031
     26 C21         6.7324   -2.0264   -7.5244 C.2       1 <0>         0.4973
     27 O2          7.5828   -1.9651   -6.6529 O.co2     1 <0>        -0.6762
     28 O3          6.9297   -1.5009   -8.6067 O.co2     1 <0>        -0.6917
     29 H2         -0.9591    1.9053    0.0259 H         1 <0>         0.1345
     30 H3          1.1563    3.1654    0.0076 H         1 <0>         0.1368
     31 H4          3.3051    1.9634   -0.0196 H         1 <0>         0.1349
     32 H5          1.2231   -1.7588   -0.0176 H         1 <0>         0.1142
     33 H6         -0.9258   -0.5567    0.0082 H         1 <0>         0.1340
     34 H7          2.7571   -2.8788    1.2541 H         1 <0>         0.1242
     35 H8          3.2998   -3.6435    3.5307 H         1 <0>         0.1450
     36 H9          5.9405   -0.3266    4.0133 H         1 <0>         0.1476
     37 H10         5.4046    0.4305    1.7325 H         1 <0>         0.1449
     38 H11         5.6758   -1.9229   -1.3163 H         1 <0>         0.1445
     39 H12         5.1384   -2.9120    0.0624 H         1 <0>         0.1326
     40 H13         5.7385   -4.3296   -1.8890 H         1 <0>         0.1260
     41 H14         4.0094   -4.4747   -1.4901 H         1 <0>         0.0529
     42 H15         2.9384   -2.2826   -4.2306 H         1 <0>         0.1263
     43 H16         2.3638   -3.2716   -2.8662 H         1 <0>         0.0536
     44 H17         2.3425   -0.8679   -2.2757 H         1 <0>         0.1338
     45 H18         4.0785   -0.7551   -2.6521 H         1 <0>         0.1444
     46 H19         5.2814   -5.0987   -4.0497 H         1 <0>         0.0976
     47 H20         3.5069   -5.1194   -3.9110 H         1 <0>         0.0530
     48 H21         4.1227   -4.8308   -6.2628 H         1 <0>         0.0514
     49 H22         3.3975   -3.3205   -5.6616 H         1 <0>         0.0377
     50 H23         5.3290   -3.5690   -7.9771 H         1 <0>         0.0441
     51 H24         4.6038   -2.0588   -7.3759 H         1 <0>         0.0411
     52 H25         2.8844   -2.4849   -0.6028 H         1 <0>         0.4098
@<TRIPOS>BOND
     1    1    6 ar
     2    1    2 ar
     3    1   29 1
     4    2    3 ar
     5    2   30 1
     6    3    4 ar
     7    3   31 1
     8    4    5 ar
     9    4    7 1
    10    5    6 ar
    11    5   32 1
    12    6   33 1
    13    7    8 1
    14    7    9 1
    15    7   16 1
    16    9   14 ar
    17    9   10 ar
    18   10   11 ar
    19   10   34 1
    20   11   12 ar
    21   11   35 1
    22   12   13 ar
    23   12   15 1
    24   13   14 ar
    25   13   36 1
    26   14   37 1
    27   16   21 1
    28   16   17 1
    29   16   52 1
    30   17   18 1
    31   17   38 1
    32   17   39 1
    33   18   19 1
    34   18   40 1
    35   18   41 1
    36   19   20 1
    37   19   22 1
    38   20   21 1
    39   20   42 1
    40   20   43 1
    41   21   44 1
    42   21   45 1
    43   22   23 1
    44   22   46 1
    45   22   47 1
    46   23   24 1
    47   23   48 1
    48   23   49 1
    49   24   25 1
    50   25   26 1
    51   25   50 1
    52   25   51 1
    53   26   27 2
    54   26   28 1
@<TRIPOS>MOLECULE
ZINC19364229
   51    53     0     0     0
SMALL
USER_CHARGES

@<TRIPOS>ATOM
      1 C1          6.5912    1.7379   -2.0312 C.ar      1 <0>        -0.1201
      2 C2          6.6450    1.5865   -0.6583 C.ar      1 <0>        -0.1210
      3 C3          5.7129    0.7954   -0.0131 C.ar      1 <0>        -0.1114
      4 C4          4.7267    0.1561   -0.7408 C.ar      1 <0>        -0.0735
      5 C5          4.6724    0.3082   -2.1137 C.ar      1 <0>        -0.0888
      6 C6          5.6053    1.0982   -2.7590 C.ar      1 <0>        -0.1250
      7 C7          3.7112   -0.7071   -0.0376 C.3       1 <0>         0.1625
      8 H1          4.0570   -0.9251    0.9729 H         1 <0>         0.0613
      9 C8          2.3931    0.0205    0.0286 C.ar      1 <0>        -0.0653
     10 C9          1.6019    0.1210   -1.1005 C.ar      1 <0>        -0.0767
     11 C10         0.3930    0.7882   -1.0405 C.ar      1 <0>        -0.1145
     12 C11        -0.0253    1.3555    0.1500 C.ar      1 <0>        -0.0345
     13 C12         0.7669    1.2545    1.2798 C.ar      1 <0>        -0.1109
     14 C13         1.9731    0.5822    1.2199 C.ar      1 <0>        -0.0996
     15 Cl1        -1.5434    2.1941    0.2261 Cl        1 <0>        -0.0764
     16 N1          3.5400   -1.9641   -0.7783 N.3       1 <0>        -0.5277
     17 C14         2.5171   -2.8110   -0.1492 C.3       1 <0>         0.0560
     18 C15         2.3125   -4.0714   -0.9930 C.3       1 <0>         0.0629
     19 N2          3.5884   -4.7911   -1.1110 N.3       1 <0>        -0.5250
     20 C16         4.6113   -3.9442   -1.7402 C.3       1 <0>         0.0598
     21 C17         4.8158   -2.6838   -0.8963 C.3       1 <0>         0.0581
     22 C18         3.4172   -6.0481   -1.8518 C.3       1 <0>         0.0645
     23 C19         4.6945   -6.8831   -1.7415 C.3       1 <0>         0.0561
     24 O1          4.8943   -7.2705   -0.3807 O.3       1 <0>        -0.3413
     25 C20         6.0670   -8.0586   -0.1669 C.3       1 <0>        -0.0020
     26 C21         6.1776   -8.4084    1.2947 C.2       1 <0>         0.4980
     27 O2          5.3307   -8.0190    2.0806 O.co2     1 <0>        -0.6734
     28 O3          7.1140   -9.0809    1.6914 O.co2     1 <0>        -0.7012
     29 H2          7.3167    2.3596   -2.5348 H         1 <0>         0.1186
     30 H3          7.4155    2.0860   -0.0897 H         1 <0>         0.1206
     31 H4          5.7554    0.6766    1.0595 H         1 <0>         0.1199
     32 H5          3.9021   -0.1915   -2.6823 H         1 <0>         0.1279
     33 H6          5.5631    1.2168   -3.8317 H         1 <0>         0.1198
     34 H7          1.9288   -0.3216   -2.0299 H         1 <0>         0.1384
     35 H8         -0.2249    0.8670   -1.9228 H         1 <0>         0.1316
     36 H9          0.4411    1.6975    2.2093 H         1 <0>         0.1322
     37 H10         2.5894    0.4992    2.1028 H         1 <0>         0.1305
     38 H11         2.8436   -3.0927    0.8519 H         1 <0>         0.0488
     39 H12         1.5785   -2.2605   -0.0845 H         1 <0>         0.0791
     40 H13         1.5751   -4.7148   -0.5130 H         1 <0>         0.0800
     41 H14         1.9599   -3.7912   -1.9856 H         1 <0>         0.0361
     42 H15         5.5498   -4.4947   -1.8049 H         1 <0>         0.0809
     43 H16         4.2848   -3.6625   -2.7413 H         1 <0>         0.0361
     44 H17         5.5532   -2.0404   -1.3764 H         1 <0>         0.0800
     45 H18         5.1684   -2.9640    0.0963 H         1 <0>         0.0488
     46 H19         2.5807   -6.6064   -1.4315 H         1 <0>         0.0829
     47 H20         3.2166   -5.8275   -2.9002 H         1 <0>         0.0407
     48 H21         4.6011   -7.7737   -2.3629 H         1 <0>         0.0405
     49 H22         5.5454   -6.2917   -2.0797 H         1 <0>         0.0376
     50 H23         6.0021   -8.9737   -0.7556 H         1 <0>         0.0389
     51 H24         6.9464   -7.4917   -0.4724 H         1 <0>         0.0392
@<TRIPOS>BOND
     1    1    6 ar
     2    1    2 ar
     3    1   29 1
     4    2    3 ar
     5    2   30 1
     6    3    4 ar
     7    3   31 1
     8    4    5 ar
     9    4    7 1
    10    5    6 ar
    11    5   32 1
    12    6   33 1
    13    7    8 1
    14    7    9 1
    15    7   16 1
    16    9   14 ar
    17    9   10 ar
    18   10   11 ar
    19   10   34 1
    20   11   12 ar
    21   11   35 1
    22   12   13 ar
    23   12   15 1
    24   13   14 ar
    25   13   36 1
    26   14   37 1
    27   16   21 1
    28   16   17 1
    29   17   18 1
    30   17   38 1
    31   17   39 1
    32   18   19 1
    33   18   40 1
    34   18   41 1
    35   19   20 1
    36   19   22 1
    37   20   21 1
    38   20   42 1
    39   20   43 1
    40   21   44 1
    41   21   45 1
    42   22   23 1
    43   22   46 1
    44   22   47 1
    45   23   24 1
    46   23   48 1
    47   23   49 1
    48   24   25 1
    49   25   26 1
    50   25   50 1
    51   25   51 1
    52   26   27 2
    53   26   28 1
@<TRIPOS>MOLECULE
ZINC19364230
   52    54     0     0     0
SMALL
USER_CHARGES

@<TRIPOS>ATOM
      1 C1          7.1006    1.9749    1.2595 C.ar      1 <0>        -0.1109
      2 C2          7.1296    1.6479   -0.0833 C.ar      1 <0>        -0.1164
      3 C3          6.2125    0.7495   -0.5959 C.ar      1 <0>        -0.1084
      4 C4          5.2666    0.1778    0.2344 C.ar      1 <0>        -0.0910
      5 C5          5.2381    0.5042    1.5774 C.ar      1 <0>        -0.0938
      6 C6          6.1544    1.4036    2.0897 C.ar      1 <0>        -0.1223
      7 C7          4.2661   -0.8007   -0.3246 C.3       1 <0>         0.1743
      8 H1          4.5900   -1.1267   -1.3130 H         1 <0>         0.0708
      9 C8          2.9183   -0.1352   -0.4318 C.ar      1 <0>        -0.0847
     10 C9          2.1639    0.0845    0.7056 C.ar      1 <0>        -0.0804
     11 C10         0.9276    0.6948    0.6080 C.ar      1 <0>        -0.1135
     12 C11         0.4453    1.0860   -0.6283 C.ar      1 <0>        -0.0282
     13 C12         1.2008    0.8659   -1.7663 C.ar      1 <0>        -0.1077
     14 C13         2.4394    0.2606   -1.6667 C.ar      1 <0>        -0.0957
     15 Cl1        -1.1076    1.8522   -0.7518 Cl        1 <0>        -0.0629
     16 N1          4.1683   -1.9641    0.5670 N.3       1 <0>        -0.5297
     17 C14         3.1882   -2.9351    0.0603 C.3       1 <0>         0.0239
     18 C15         3.0729   -4.1004    1.0454 C.3       1 <0>        -0.0027
     19 N2          4.3856   -4.7404    1.2028 N.4       1 <0>        -0.3865
     20 C16         5.3475   -3.7650    1.7327 C.3       1 <0>         0.0017
     21 C17         5.4817   -2.5969    0.7532 C.3       1 <0>         0.0236
     22 C18         4.2706   -5.8702    2.1347 C.3       1 <0>         0.0043
     23 C19         3.3954   -6.9590    1.5106 C.3       1 <0>         0.0168
     24 O1          4.0336   -7.4696    0.3384 O.3       1 <0>        -0.3700
     25 C20         3.2950   -8.4977   -0.3245 C.3       1 <0>        -0.0010
     26 C21         4.0570   -8.9597   -1.5398 C.2       1 <0>         0.4967
     27 O2          5.1328   -8.4552   -1.8129 O.co2     1 <0>        -0.6778
     28 O3          3.5976   -9.8378   -2.2499 O.co2     1 <0>        -0.6781
     29 H2          7.8199    2.6733    1.6609 H         1 <0>         0.1238
     30 H3          7.8686    2.0945   -0.7320 H         1 <0>         0.1253
     31 H4          6.2347    0.4946   -1.6451 H         1 <0>         0.1219
     32 H5          4.4989    0.0578    2.2260 H         1 <0>         0.1275
     33 H6          6.1319    1.6588    3.1389 H         1 <0>         0.1237
     34 H7          2.5403   -0.2213    1.6706 H         1 <0>         0.1374
     35 H8          0.3381    0.8661    1.4966 H         1 <0>         0.1350
     36 H9          0.8247    1.1708   -2.7316 H         1 <0>         0.1368
     37 H10         3.0314    0.0930   -2.5543 H         1 <0>         0.1321
     38 H11         2.2175   -2.4507   -0.0453 H         1 <0>         0.1229
     39 H12         3.5155   -3.3098   -0.9096 H         1 <0>         0.0666
     40 H13         2.7325   -3.7272    2.0113 H         1 <0>         0.1344
     41 H14         2.3569   -4.8287    0.6645 H         1 <0>         0.1348
     42 H15         4.9954   -3.3935    2.6951 H         1 <0>         0.1338
     43 H16         6.3178   -4.2446    1.8613 H         1 <0>         0.1354
     44 H17         5.8467   -2.9661   -0.2052 H         1 <0>         0.0654
     45 H18         6.1842   -1.8658    1.1532 H         1 <0>         0.1246
     46 H19         5.2619   -6.2742    2.3400 H         1 <0>         0.1373
     47 H20         3.8174   -5.5288    3.0654 H         1 <0>         0.1357
     48 H21         3.2537   -7.7670    2.2283 H         1 <0>         0.0876
     49 H22         2.4267   -6.5372    1.2424 H         1 <0>         0.0628
     50 H23         3.1512   -9.3376    0.3552 H         1 <0>         0.0561
     51 H24         2.3243   -8.1078   -0.6308 H         1 <0>         0.0520
     52 H25         4.7058   -5.0755    0.3065 H         1 <0>         0.4365
@<TRIPOS>BOND
     1    1    6 ar
     2    1    2 ar
     3    1   29 1
     4    2    3 ar
     5    2   30 1
     6    3    4 ar
     7    3   31 1
     8    4    5 ar
     9    4    7 1
    10    5    6 ar
    11    5   32 1
    12    6   33 1
    13    7    8 1
    14    7    9 1
    15    7   16 1
    16    9   14 ar
    17    9   10 ar
    18   10   11 ar
    19   10   34 1
    20   11   12 ar
    21   11   35 1
    22   12   13 ar
    23   12   15 1
    24   13   14 ar
    25   13   36 1
    26   14   37 1
    27   16   21 1
    28   16   17 1
    29   17   18 1
    30   17   38 1
    31   17   39 1
    32   18   19 1
    33   18   40 1
    34   18   41 1
    35   19   20 1
    36   19   22 1
    37   19   52 1
    38   20   21 1
    39   20   42 1
    40   20   43 1
    41   21   44 1
    42   21   45 1
    43   22   23 1
    44   22   46 1
    45   22   47 1
    46   23   24 1
    47   23   48 1
    48   23   49 1
    49   24   25 1
    50   25   26 1
    51   25   50 1
    52   25   51 1
    53   26   27 2
    54   26   28 1
@<TRIPOS>MOLECULE
ZINC19364230
   52    54     0     0     0
SMALL
USER_CHARGES

@<TRIPOS>ATOM
      1 C1          0.2441    2.1500    1.0851 C.ar      1 <0>        -0.0940
      2 C2          1.4939    2.7339    0.9954 C.ar      1 <0>        -0.1039
      3 C3          2.6102    1.9476    0.7797 C.ar      1 <0>        -0.0846
      4 C4          2.4768    0.5775    0.6541 C.ar      1 <0>        -0.1285
      5 C5          1.2272   -0.0065    0.7448 C.ar      1 <0>        -0.1206
      6 C6          0.1107    0.7799    0.9591 C.ar      1 <0>        -0.1037
      7 C7          3.6937   -0.2796    0.4180 C.3       1 <0>         0.1307
      8 H1          4.5870    0.2661    0.7221 H         1 <0>         0.1535
      9 C8          3.7893   -0.6237   -1.0461 C.ar      1 <0>        -0.1238
     10 C9          3.0093   -1.6378   -1.5698 C.ar      1 <0>        -0.1073
     11 C10         3.0966   -1.9539   -2.9125 C.ar      1 <0>        -0.0965
     12 C11         3.9647   -1.2552   -3.7324 C.ar      1 <0>        -0.0162
     13 C12         4.7451   -0.2404   -3.2076 C.ar      1 <0>        -0.0966
     14 C13         4.6528    0.0786   -1.8660 C.ar      1 <0>        -0.0713
     15 Cl1         4.0752   -1.6520   -5.4188 Cl        1 <0>        -0.0441
     16 N1          3.5828   -1.5149    1.2052 N.4       1 <0>        -0.3822
     17 C14         4.7682   -2.3508    0.9734 C.3       1 <0>        -0.0048
     18 C15         4.6444   -3.6462    1.7786 C.3       1 <0>         0.0283
     19 N2          4.5238   -3.3221    3.2071 N.3       1 <0>        -0.5233
     20 C16         3.3552   -2.4648    3.4511 C.3       1 <0>         0.0328
     21 C17         3.4897   -1.1792    2.6321 C.3       1 <0>        -0.0043
     22 C18         4.4596   -4.5437    4.0205 C.3       1 <0>         0.0631
     23 C19         5.8560   -5.1599    4.1264 C.3       1 <0>         0.0542
     24 O1          6.7168   -4.2694    4.8391 O.3       1 <0>        -0.3446
     25 C20         8.0526   -4.7525    4.9947 C.3       1 <0>        -0.0026
     26 C21         8.8678   -3.7391    5.7561 C.2       1 <0>         0.4976
     27 O2          8.3525   -2.6996    6.1308 O.co2     1 <0>        -0.6771
     28 O3         10.0425   -3.9589    5.9975 O.co2     1 <0>        -0.6919
     29 H2         -0.6275    2.7638    1.2581 H         1 <0>         0.1344
     30 H3          1.5981    3.8043    1.0935 H         1 <0>         0.1367
     31 H4          3.5866    2.4039    0.7089 H         1 <0>         0.1349
     32 H5          1.1229   -1.0769    0.6464 H         1 <0>         0.1143
     33 H6         -0.8657    0.3237    1.0295 H         1 <0>         0.1340
     34 H7          2.3319   -2.1834   -0.9296 H         1 <0>         0.1243
     35 H8          2.4874   -2.7464   -3.3215 H         1 <0>         0.1450
     36 H9          5.4232    0.3052   -3.8471 H         1 <0>         0.1477
     37 H10         5.2584    0.8739   -1.4572 H         1 <0>         0.1449
     38 H11         4.8434   -2.5884   -0.0877 H         1 <0>         0.1324
     39 H12         5.6609   -1.8108    1.2890 H         1 <0>         0.1444
     40 H13         3.7592   -4.1931    1.4538 H         1 <0>         0.0539
     41 H14         5.5307   -4.2601    1.6185 H         1 <0>         0.1241
     42 H15         2.4488   -2.9923    3.1538 H         1 <0>         0.0527
     43 H16         3.3011   -2.2168    4.5111 H         1 <0>         0.1270
     44 H17         4.3889   -0.6452    2.9391 H         1 <0>         0.1444
     45 H18         2.6171   -0.5481    2.8006 H         1 <0>         0.1340
     46 H19         4.0944   -4.2975    5.0176 H         1 <0>         0.0952
     47 H20         3.7822   -5.2573    3.5514 H         1 <0>         0.0552
     48 H21         5.7947   -6.1094    4.6584 H         1 <0>         0.0501
     49 H22         6.2554   -5.3288    3.1264 H         1 <0>         0.0374
     50 H23         8.0370   -5.6934    5.5446 H         1 <0>         0.0436
     51 H24         8.4977   -4.9129    4.0127 H         1 <0>         0.0414
     52 H25         2.7557   -2.0196    0.9239 H         1 <0>         0.4098
@<TRIPOS>BOND
     1    1    6 ar
     2    1    2 ar
     3    1   29 1
     4    2    3 ar
     5    2   30 1
     6    3    4 ar
     7    3   31 1
     8    4    5 ar
     9    4    7 1
    10    5    6 ar
    11    5   32 1
    12    6   33 1
    13    7    8 1
    14    7    9 1
    15    7   16 1
    16    9   14 ar
    17    9   10 ar
    18   10   11 ar
    19   10   34 1
    20   11   12 ar
    21   11   35 1
    22   12   13 ar
    23   12   15 1
    24   13   14 ar
    25   13   36 1
    26   14   37 1
    27   16   21 1
    28   16   17 1
    29   16   52 1
    30   17   18 1
    31   17   38 1
    32   17   39 1
    33   18   19 1
    34   18   40 1
    35   18   41 1
    36   19   20 1
    37   19   22 1
    38   20   21 1
    39   20   42 1
    40   20   43 1
    41   21   44 1
    42   21   45 1
    43   22   23 1
    44   22   46 1
    45   22   47 1
    46   23   24 1
    47   23   48 1
    48   23   49 1
    49   24   25 1
    50   25   26 1
    51   25   50 1
    52   25   51 1
    53   26   27 2
    54   26   28 1
@<TRIPOS>MOLECULE
ZINC19364230
   51    53     0     0     0
SMALL
USER_CHARGES

@<TRIPOS>ATOM
      1 C1          7.2854    1.9516    1.2585 C.ar      1 <0>        -0.1202
      2 C2          7.2598    1.6346   -0.0868 C.ar      1 <0>        -0.1212
      3 C3          6.3151    0.7488   -0.5704 C.ar      1 <0>        -0.1114
      4 C4          5.3962    0.1798    0.2914 C.ar      1 <0>        -0.0728
      5 C5          5.4223    0.4961    1.6368 C.ar      1 <0>        -0.0883
      6 C6          6.3662    1.3829    2.1202 C.ar      1 <0>        -0.1250
      7 C7          4.3657   -0.7851   -0.2359 C.3       1 <0>         0.1624
      8 H1          4.6445   -1.1010   -1.2412 H         1 <0>         0.0613
      9 C8          3.0194   -0.1092   -0.2771 C.ar      1 <0>        -0.0658
     10 C9          2.3144    0.0986    0.8938 C.ar      1 <0>        -0.0773
     11 C10         1.0796    0.7184    0.8566 C.ar      1 <0>        -0.1145
     12 C11         0.5491    1.1310   -0.3527 C.ar      1 <0>        -0.0345
     13 C12         1.2551    0.9228   -1.5242 C.ar      1 <0>        -0.1106
     14 C13         2.4923    0.3079   -1.4851 C.ar      1 <0>        -0.0995
     15 Cl1        -1.0020    1.9091   -0.4002 Cl        1 <0>        -0.0762
     16 N1          4.2976   -1.9587    0.6450 N.3       1 <0>        -0.5274
     17 C14         3.2491   -2.8887    0.2032 C.3       1 <0>         0.0562
     18 C15         3.1570   -4.0554    1.1895 C.3       1 <0>         0.0610
     19 N2          4.4591   -4.7323    1.2664 N.3       1 <0>        -0.5251
     20 C16         5.5077   -3.8023    1.7083 C.3       1 <0>         0.0638
     21 C17         5.5997   -2.6356    0.7219 C.3       1 <0>         0.0577
     22 C18         4.3911   -5.9059    2.1473 C.3       1 <0>         0.0640
     23 C19         3.6793   -7.0487    1.4204 C.3       1 <0>         0.0590
     24 O1          4.4519   -7.4458    0.2857 O.3       1 <0>        -0.3414
     25 C20         3.8724   -8.5132   -0.4672 C.3       1 <0>        -0.0018
     26 C21         4.7661   -8.8481   -1.6336 C.2       1 <0>         0.4982
     27 O2          5.8030   -8.2299   -1.8042 O.co2     1 <0>        -0.6738
     28 O3          4.4521   -9.7371   -2.4065 O.co2     1 <0>        -0.7014
     29 H2          8.0263    2.6401    1.6370 H         1 <0>         0.1185
     30 H3          7.9778    2.0792   -0.7601 H         1 <0>         0.1205
     31 H4          6.2947    0.5017   -1.6215 H         1 <0>         0.1200
     32 H5          4.7042    0.0517    2.3101 H         1 <0>         0.1276
     33 H6          6.3863    1.6303    3.1713 H         1 <0>         0.1197
     34 H7          2.7285   -0.2239    1.8377 H         1 <0>         0.1383
     35 H8          0.5288    0.8803    1.7714 H         1 <0>         0.1316
     36 H9          0.8413    1.2444   -2.4685 H         1 <0>         0.1324
     37 H10         3.0456    0.1496   -2.3990 H         1 <0>         0.1306
     38 H11         2.2925   -2.3674    0.1662 H         1 <0>         0.0788
     39 H12         3.4947   -3.2693   -0.7883 H         1 <0>         0.0486
     40 H13         2.8847   -3.6777    2.1751 H         1 <0>         0.0365
     41 H14         2.3998   -4.7612    0.8482 H         1 <0>         0.0783
     42 H15         5.2620   -3.4218    2.6997 H         1 <0>         0.0357
     43 H16         6.4642   -4.3236    1.7452 H         1 <0>         0.0811
     44 H17         5.8720   -3.0133   -0.2636 H         1 <0>         0.0492
     45 H18         6.3569   -1.9298    1.0632 H         1 <0>         0.0800
     46 H19         5.4005   -6.2184    2.4149 H         1 <0>         0.0809
     47 H20         3.8383   -5.6502    3.0513 H         1 <0>         0.0431
     48 H21         3.5664   -7.8954    2.0974 H         1 <0>         0.0396
     49 H22         2.6960   -6.7131    1.0910 H         1 <0>         0.0361
     50 H23         3.7635   -9.3903    0.1706 H         1 <0>         0.0385
     51 H24         2.8931   -8.2080   -0.8358 H         1 <0>         0.0391
@<TRIPOS>BOND
     1    1    6 ar
     2    1    2 ar
     3    1   29 1
     4    2    3 ar
     5    2   30 1
     6    3    4 ar
     7    3   31 1
     8    4    5 ar
     9    4    7 1
    10    5    6 ar
    11    5   32 1
    12    6   33 1
    13    7    8 1
    14    7    9 1
    15    7   16 1
    16    9   14 ar
    17    9   10 ar
    18   10   11 ar
    19   10   34 1
    20   11   12 ar
    21   11   35 1
    22   12   13 ar
    23   12   15 1
    24   13   14 ar
    25   13   36 1
    26   14   37 1
    27   16   21 1
    28   16   17 1
    29   17   18 1
    30   17   38 1
    31   17   39 1
    32   18   19 1
    33   18   40 1
    34   18   41 1
    35   19   20 1
    36   19   22 1
    37   20   21 1
    38   20   42 1
    39   20   43 1
    40   21   44 1
    41   21   45 1
    42   22   23 1
    43   22   46 1
    44   22   47 1
    45   23   24 1
    46   23   48 1
    47   23   49 1
    48   24   25 1
    49   25   26 1
    50   25   50 1
    51   25   51 1
    52   26   27 2
    53   26   28 1
@<TRIPOS>MOLECULE
ZINC03812918
   62    64     0     0     0
SMALL
USER_CHARGES

@<TRIPOS>ATOM
      1 C1          0.0184    1.1674    0.0635 C.3       1 <0>        -0.1474
      2 C2          0.0287   -0.3496   -0.1352 C.3       1 <0>        -0.0947
      3 C3          0.8187   -1.0070    0.9982 C.3       1 <0>        -0.1518
      4 C4         -1.4083   -0.8748   -0.1267 C.3       1 <0>         0.0663
      5 O1         -2.1137   -0.3508   -1.2536 O.3       1 <0>        -0.3920
      6 C5         -3.4732   -0.7822   -1.3402 C.3       1 <0>         0.0403
      7 C6         -4.1268   -0.1633   -2.5774 C.3       1 <0>         0.0087
      8 H1         -3.5364   -0.4070   -3.4606 H         1 <0>         0.1470
      9 C7         -5.5419   -0.7218   -2.7399 C.3       1 <0>         0.1111
     10 N1         -5.4715   -2.1608   -3.0055 N.pl3     1 <0>        -0.6164
     11 C8         -5.6171   -3.1168   -1.9050 C.3       1 <0>         0.1596
     12 C9         -7.0717   -3.4743   -1.7394 C.ar      1 <0>        -0.1190
     13 C10        -7.8753   -2.7280   -0.8979 C.ar      1 <0>        -0.1104
     14 C11        -9.2096   -3.0559   -0.7459 C.ar      1 <0>        -0.1193
     15 C12        -9.7403   -4.1299   -1.4358 C.ar      1 <0>        -0.1083
     16 C13        -8.9368   -4.8756   -2.2780 C.ar      1 <0>        -0.1151
     17 C14        -7.6036   -4.5451   -2.4332 C.ar      1 <0>        -0.0996
     18 C15        -5.2654   -2.6213   -4.3080 C.ar      1 <0>         0.2010
     19 C16        -5.2314   -1.7228   -5.3668 C.ar      1 <0>        -0.1983
     20 C17        -5.0270   -2.1814   -6.6533 C.ar      1 <0>        -0.0720
     21 C18        -4.8568   -3.5335   -6.8881 C.ar      1 <0>        -0.1599
     22 C19        -4.8901   -4.4307   -5.8364 C.ar      1 <0>        -0.0679
     23 C20        -5.0883   -3.9782   -4.5467 C.ar      1 <0>        -0.1821
     24 N2         -4.1915    1.2957   -2.4189 N.4       1 <0>        -0.3869
     25 C21        -2.8266    1.8785   -2.4802 C.3       1 <0>         0.0043
     26 C22        -3.0891    3.3561   -2.8654 C.3       1 <0>        -0.1475
     27 C23        -4.2702    3.2502   -3.8572 C.3       1 <0>        -0.1425
     28 C24        -4.9382    1.8984   -3.5443 C.3       1 <0>        -0.0147
     29 H2          1.0421    1.5416    0.0574 H         1 <0>         0.0626
     30 H3         -0.5444    1.6358   -0.7440 H         1 <0>         0.0530
     31 H4         -0.4499    1.4056    1.0185 H         1 <0>         0.0556
     32 H5          0.4969   -0.5878   -1.0902 H         1 <0>         0.0817
     33 H6          0.3504   -0.7688    1.9533 H         1 <0>         0.0592
     34 H7          0.8260   -2.0878    0.8567 H         1 <0>         0.0601
     35 H8          1.8424   -0.6328    0.9922 H         1 <0>         0.0686
     36 H9         -1.3976   -1.9635   -0.1789 H         1 <0>         0.0597
     37 H10        -1.9048   -0.5600    0.7912 H         1 <0>         0.0577
     38 H11        -3.5053   -1.8690   -1.4177 H         1 <0>         0.0975
     39 H12        -4.0126   -0.4655   -0.4475 H         1 <0>         0.0706
     40 H13        -6.1083   -0.5485   -1.8249 H         1 <0>         0.0990
     41 H14        -6.0362   -0.2223   -3.5732 H         1 <0>         0.1014
     42 H15        -5.0447   -4.0172   -2.1278 H         1 <0>         0.0941
     43 H16        -5.2457   -2.6690   -0.9832 H         1 <0>         0.0829
     44 H17        -7.4607   -1.8890   -0.3589 H         1 <0>         0.1141
     45 H18        -9.8373   -2.4733   -0.0880 H         1 <0>         0.1242
     46 H19       -10.7826   -4.3865   -1.3165 H         1 <0>         0.1261
     47 H20        -9.3514   -5.7149   -2.8167 H         1 <0>         0.1263
     48 H21        -6.9768   -5.1254   -3.0940 H         1 <0>         0.1228
     49 H22        -5.3650   -0.6667   -5.1842 H         1 <0>         0.1104
     50 H23        -5.0005   -1.4834   -7.4770 H         1 <0>         0.1243
     51 H24        -4.6978   -3.8896   -7.8953 H         1 <0>         0.1246
     52 H25        -4.7568   -5.4861   -6.0232 H         1 <0>         0.1273
     53 H26        -5.1097   -4.6790   -3.7252 H         1 <0>         0.1251
     54 H27        -2.3374    1.8155   -1.5082 H         1 <0>         0.1430
     55 H28        -2.2301    1.3816   -3.2452 H         1 <0>         0.1326
     56 H29        -3.3725    3.9388   -1.9889 H         1 <0>         0.0961
     57 H30        -2.2148    3.7891   -3.3516 H         1 <0>         0.1156
     58 H31        -4.9743    4.0665   -3.6956 H         1 <0>         0.1049
     59 H32        -3.9044    3.2628   -4.8839 H         1 <0>         0.1035
     60 H33        -4.8847    1.2471   -4.4166 H         1 <0>         0.1285
     61 H34        -5.9782    2.0555   -3.2582 H         1 <0>         0.1323
     62 H35        -4.6326    1.5317   -1.5426 H         1 <0>         0.4221
@<TRIPOS>BOND
     1    1    2 1
     2    1   29 1
     3    1   30 1
     4    1   31 1
     5    2    3 1
     6    2    4 1
     7    2   32 1
     8    3   33 1
     9    3   34 1
    10    3   35 1
    11    4    5 1
    12    4   36 1
    13    4   37 1
    14    5    6 1
    15    6    7 1
    16    6   38 1
    17    6   39 1
    18    7    8 1
    19    7    9 1
    20    7   24 1
    21    9   10 1
    22    9   40 1
    23    9   41 1
    24   10   11 1
    25   10   18 1
    26   11   12 1
    27   11   42 1
    28   11   43 1
    29   12   17 ar
    30   12   13 ar
    31   13   14 ar
    32   13   44 1
    33   14   15 ar
    34   14   45 1
    35   15   16 ar
    36   15   46 1
    37   16   17 ar
    38   16   47 1
    39   17   48 1
    40   18   23 ar
    41   18   19 ar
    42   19   20 ar
    43   19   49 1
    44   20   21 ar
    45   20   50 1
    46   21   22 ar
    47   21   51 1
    48   22   23 ar
    49   22   52 1
    50   23   53 1
    51   24   28 1
    52   24   25 1
    53   24   62 1
    54   25   26 1
    55   25   54 1
    56   25   55 1
    57   26   27 1
    58   26   56 1
    59   26   57 1
    60   27   28 1
    61   27   58 1
    62   27   59 1
    63   28   60 1
    64   28   61 1
@<TRIPOS>MOLECULE
ZINC03830283
   62    64     0     0     0
SMALL
USER_CHARGES

@<TRIPOS>ATOM
      1 C1          0.2141    1.5244   -0.3937 C.3       1 <0>        -0.1472
      2 C2          0.1828   -0.0046   -0.4414 C.3       1 <0>        -0.0916
      3 C3          1.0078   -0.5679    0.7174 C.3       1 <0>        -0.1523
      4 C4         -1.2634   -0.4891   -0.3208 C.3       1 <0>         0.0673
      5 O1         -2.0064   -0.0600   -1.4635 O.3       1 <0>        -0.3943
      6 C5         -3.3774   -0.4626   -1.4501 C.3       1 <0>         0.0400
      7 C6         -4.0716    0.0488   -2.7140 C.3       1 <0>         0.0084
      8 H1         -3.9361    1.1276   -2.7917 H         1 <0>         0.1440
      9 C7         -5.5654   -0.2737   -2.6415 C.3       1 <0>         0.1067
     10 N1         -6.1702    0.4616   -1.5280 N.pl3     1 <0>        -0.6157
     11 C8         -6.6124    1.8453   -1.7182 C.3       1 <0>         0.1618
     12 C9         -8.0199    1.8534   -2.2567 C.ar      1 <0>        -0.1184
     13 C10        -8.2378    1.8344   -3.6217 C.ar      1 <0>        -0.1123
     14 C11        -9.5288    1.8418   -4.1157 C.ar      1 <0>        -0.1189
     15 C12       -10.6020    1.8677   -3.2448 C.ar      1 <0>        -0.1086
     16 C13       -10.3841    1.8857   -1.8798 C.ar      1 <0>        -0.1141
     17 C14        -9.0931    1.8740   -1.3857 C.ar      1 <0>        -0.0997
     18 C15        -6.3253   -0.1565   -0.2851 C.ar      1 <0>         0.1996
     19 C16        -5.9013   -1.4665   -0.1015 C.ar      1 <0>        -0.2011
     20 C17        -6.0557   -2.0746    1.1288 C.ar      1 <0>        -0.0722
     21 C18        -6.6320   -1.3810    2.1772 C.ar      1 <0>        -0.1599
     22 C19        -7.0551   -0.0767    1.9978 C.ar      1 <0>        -0.0677
     23 C20        -6.8986    0.5393    0.7717 C.ar      1 <0>        -0.1828
     24 N2         -3.4863   -0.6043   -3.8925 N.4       1 <0>        -0.3840
     25 C21        -2.0641   -0.2208   -4.0189 C.3       1 <0>         0.0051
     26 C22        -1.8182   -0.1105   -5.5443 C.3       1 <0>        -0.1458
     27 C23        -3.1600    0.4939   -6.0352 C.3       1 <0>        -0.1396
     28 C24        -4.1998   -0.1684   -5.1069 C.3       1 <0>        -0.0198
     29 H2          1.2444    1.8696   -0.4797 H         1 <0>         0.0598
     30 H3         -0.3736    1.9257   -1.2193 H         1 <0>         0.0567
     31 H4         -0.2063    1.8670    0.5518 H         1 <0>         0.0558
     32 H5          0.6032   -0.3472   -1.3869 H         1 <0>         0.0771
     33 H6          0.5874   -0.2253    1.6629 H         1 <0>         0.0602
     34 H7          0.9855   -1.6572    0.6834 H         1 <0>         0.0585
     35 H8          2.0381   -0.2227    0.6315 H         1 <0>         0.0682
     36 H9         -1.2784   -1.5776   -0.2654 H         1 <0>         0.0564
     37 H10        -1.7119   -0.0732    0.5814 H         1 <0>         0.0597
     38 H11        -3.4364   -1.5505   -1.4181 H         1 <0>         0.0704
     39 H12        -3.8698   -0.0461   -0.5713 H         1 <0>         0.1022
     40 H13        -6.0463    0.0199   -3.5746 H         1 <0>         0.1013
     41 H14        -5.6989   -1.3441   -2.4851 H         1 <0>         0.1019
     42 H15        -6.5859    2.3698   -0.7630 H         1 <0>         0.0958
     43 H16        -5.9500    2.3445   -2.4253 H         1 <0>         0.0814
     44 H17        -7.3993    1.8141   -4.3021 H         1 <0>         0.1126
     45 H18        -9.6990    1.8277   -5.1821 H         1 <0>         0.1242
     46 H19       -11.6106    1.8742   -3.6308 H         1 <0>         0.1262
     47 H20       -11.2226    1.9063   -1.1994 H         1 <0>         0.1265
     48 H21        -8.9230    1.8844   -0.3193 H         1 <0>         0.1229
     49 H22        -5.4518   -2.0090   -0.9201 H         1 <0>         0.1144
     50 H23        -5.7262   -3.0930    1.2723 H         1 <0>         0.1244
     51 H24        -6.7521   -1.8590    3.1381 H         1 <0>         0.1246
     52 H25        -7.5048    0.4622    2.8187 H         1 <0>         0.1275
     53 H26        -7.2252    1.5594    0.6335 H         1 <0>         0.1260
     54 H27        -1.8856    0.7396   -3.5353 H         1 <0>         0.1385
     55 H28        -1.4239   -0.9894   -3.5859 H         1 <0>         0.1341
     56 H29        -0.9863    0.5606   -5.7582 H         1 <0>         0.1156
     57 H30        -1.6483   -1.0931   -5.9845 H         1 <0>         0.0965
     58 H31        -3.1644    1.5765   -5.9083 H         1 <0>         0.0977
     59 H32        -3.3459    0.2260   -7.0752 H         1 <0>         0.1123
     60 H33        -4.6455   -1.0298   -5.6044 H         1 <0>         0.1336
     61 H34        -4.9741    0.5521   -4.8436 H         1 <0>         0.1293
     62 H35        -3.5586   -1.6062   -3.7973 H         1 <0>         0.4213
@<TRIPOS>BOND
     1    1    2 1
     2    1   29 1
     3    1   30 1
     4    1   31 1
     5    2    3 1
     6    2    4 1
     7    2   32 1
     8    3   33 1
     9    3   34 1
    10    3   35 1
    11    4    5 1
    12    4   36 1
    13    4   37 1
    14    5    6 1
    15    6    7 1
    16    6   38 1
    17    6   39 1
    18    7    8 1
    19    7    9 1
    20    7   24 1
    21    9   10 1
    22    9   40 1
    23    9   41 1
    24   10   11 1
    25   10   18 1
    26   11   12 1
    27   11   42 1
    28   11   43 1
    29   12   17 ar
    30   12   13 ar
    31   13   14 ar
    32   13   44 1
    33   14   15 ar
    34   14   45 1
    35   15   16 ar
    36   15   46 1
    37   16   17 ar
    38   16   47 1
    39   17   48 1
    40   18   23 ar
    41   18   19 ar
    42   19   20 ar
    43   19   49 1
    44   20   21 ar
    45   20   50 1
    46   21   22 ar
    47   21   51 1
    48   22   23 ar
    49   22   52 1
    50   23   53 1
    51   24   28 1
    52   24   25 1
    53   24   62 1
    54   25   26 1
    55   25   54 1
    56   25   55 1
    57   26   27 1
    58   26   56 1
    59   26   57 1
    60   27   28 1
    61   27   58 1
    62   27   59 1
    63   28   60 1
    64   28   61 1
@<TRIPOS>MOLECULE
ZINC00001148
   43    45     0     0     0
SMALL
USER_CHARGES

@<TRIPOS>ATOM
      1 C1         -0.0178    1.4648    0.0101 C.3       1 <0>        -0.0558
      2 N1          0.0021   -0.0041    0.0020 N.4       1 <0>        -0.3873
      3 C2          0.6897   -0.4778   -1.2066 C.3       1 <0>        -0.0474
      4 C3          0.7126   -0.4907    1.1921 C.3       1 <0>        -0.0076
      5 C4         -0.0711   -0.1034    2.4478 C.3       1 <0>        -0.1233
      6 C5          0.6578   -0.6026    3.6687 C.2       1 <0>        -0.1603
      7 C6          0.9869    0.2498    4.6469 C.2       1 <0>         0.0007
      8 C7          1.7090   -0.2510    5.8404 C.ar      1 <0>        -0.0503
      9 C8          2.7507   -1.1606    5.6006 C.ar      1 <0>        -0.1071
     10 C9          3.4786   -1.6867    6.6423 C.ar      1 <0>        -0.1150
     11 C10         3.1773   -1.3124    7.9400 C.ar      1 <0>        -0.1025
     12 C11         2.1575   -0.4193    8.1800 C.ar      1 <0>        -0.1174
     13 C12         1.4095    0.1263    7.1358 C.ar      1 <0>        -0.1008
     14 C13         0.3358    1.0943    7.5587 C.3       1 <0>         0.1159
     15 O1         -0.5748    1.4438    6.5480 O.3       1 <0>        -0.3234
     16 C14        -0.1903    2.2131    5.5112 C.ar      1 <0>         0.1199
     17 C15         0.6298    1.6819    4.5188 C.ar      1 <0>        -0.0929
     18 C16         1.0795    2.4600    3.4611 C.ar      1 <0>        -0.1007
     19 C17         0.6870    3.7845    3.3850 C.ar      1 <0>        -0.1290
     20 C18        -0.1447    4.3182    4.3534 C.ar      1 <0>        -0.0936
     21 C19        -0.5926    3.5387    5.4214 C.ar      1 <0>        -0.1252
     22 H1          1.0047    1.8421    0.0024 H         1 <0>         0.1228
     23 H2         -0.5450    1.8259   -0.8730 H         1 <0>         0.1262
     24 H3         -0.5280    1.8163    0.9069 H         1 <0>         0.1244
     25 H4          1.7123   -0.1005   -1.2143 H         1 <0>         0.1218
     26 H5          0.7044   -1.5677   -1.2126 H         1 <0>         0.1237
     27 H6          0.1625   -0.1167   -2.0897 H         1 <0>         0.1249
     28 H7          0.8051   -1.5756    1.1418 H         1 <0>         0.1332
     29 H8          1.7055   -0.0428    1.2310 H         1 <0>         0.1297
     30 H9         -0.1636    0.9815    2.4982 H         1 <0>         0.1009
     31 H10        -1.0640   -0.5514    2.4090 H         1 <0>         0.0963
     32 H11         0.9146   -1.6482    3.7545 H         1 <0>         0.1317
     33 H12         2.9831   -1.4509    4.5866 H         1 <0>         0.1235
     34 H13         4.2783   -2.3864    6.4492 H         1 <0>         0.1311
     35 H14         3.7421   -1.7213    8.7647 H         1 <0>         0.1316
     36 H15         1.9314   -0.1356    9.1973 H         1 <0>         0.1298
     37 H16        -0.2203    0.6520    8.3853 H         1 <0>         0.1233
     38 H17         0.8154    2.0042    7.9197 H         1 <0>         0.0703
     39 H18         1.7275    2.0372    2.7077 H         1 <0>         0.1246
     40 H19         1.0305    4.4028    2.5688 H         1 <0>         0.1317
     41 H20        -0.4542    5.3504    4.2816 H         1 <0>         0.1346
     42 H21        -1.2404    3.9617    6.1749 H         1 <0>         0.1395
     43 H22        -0.9445   -0.3533    0.0092 H         1 <0>         0.4275
@<TRIPOS>BOND
     1    1    2 1
     2    1   22 1
     3    1   23 1
     4    1   24 1
     5    2    3 1
     6    2    4 1
     7    2   43 1
     8    3   25 1
     9    3   26 1
    10    3   27 1
    11    4    5 1
    12    4   28 1
    13    4   29 1
    14    5    6 1
    15    5   30 1
    16    5   31 1
    17    6    7 2
    18    6   32 1
    19    7   17 1
    20    7    8 1
    21    8   13 ar
    22    8    9 ar
    23    9   10 ar
    24    9   33 1
    25   10   11 ar
    26   10   34 1
    27   11   12 ar
    28   11   35 1
    29   12   13 ar
    30   12   36 1
    31   13   14 1
    32   14   15 1
    33   14   37 1
    34   14   38 1
    35   15   16 1
    36   16   21 ar
    37   16   17 ar
    38   17   18 ar
    39   18   19 ar
    40   18   39 1
    41   19   20 ar
    42   19   40 1
    43   20   21 ar
    44   20   41 1
    45   21   42 1
@<TRIPOS>MOLECULE
ZINC03807804
   42    45     0     0     0
SMALL
USER_CHARGES

@<TRIPOS>ATOM
      1 C1         -0.1404    1.0961   -0.4391 C.ar      1 <0>        -0.1020
      2 C2          0.9979    1.8788   -0.4898 C.ar      1 <0>        -0.1176
      3 C3          2.2443    1.2953   -0.3597 C.ar      1 <0>        -0.1015
      4 C4          2.3524   -0.0709   -0.1784 C.ar      1 <0>        -0.0957
      5 C5          1.2140   -0.8534   -0.1268 C.ar      1 <0>        -0.0879
      6 C6         -0.0323   -0.2701   -0.2583 C.ar      1 <0>        -0.1206
      7 C7          3.7112   -0.7071   -0.0376 C.3       1 <0>         0.3033
      8 C8          3.5548   -2.1991    0.1055 C.ar      1 <0>        -0.0980
      9 C9          4.1018   -3.0454   -0.8408 C.ar      1 <0>        -0.0924
     10 C10         3.9584   -4.4140   -0.7096 C.ar      1 <0>        -0.1192
     11 C11         3.2684   -4.9364    0.3683 C.ar      1 <0>        -0.1040
     12 C12         2.7222   -4.0902    1.3152 C.ar      1 <0>        -0.1220
     13 C13         2.8693   -2.7218    1.1862 C.ar      1 <0>        -0.0909
     14 C14         4.5372   -0.4037   -1.2609 C.ar      1 <0>        -0.0899
     15 C15         5.7856    0.1744   -1.1262 C.ar      1 <0>        -0.0993
     16 C16         6.5434    0.4528   -2.2482 C.ar      1 <0>        -0.1105
     17 C17         6.0533    0.1533   -3.5058 C.ar      1 <0>        -0.0985
     18 C18         4.8053   -0.4246   -3.6418 C.ar      1 <0>        -0.1111
     19 C19         4.0487   -0.7087   -2.5187 C.ar      1 <0>        -0.0192
     20 Cl1         2.4837   -1.4408   -2.6883 Cl        1 <0>        -0.0484
     21 N1          4.3811   -0.1702    1.1495 N.pl3     1 <0>        -0.4460
     22 C20         5.5751   -0.5924    1.6690 C.2       1 <0>        -0.0513
     23 C21         5.8188    0.1680    2.7534 C.2       1 <0>        -0.0258
     24 N2          4.8014    1.0309    2.8923 N.2       1 <0>        -0.4890
     25 C22         3.9390    0.8376    1.9322 C.2       1 <0>         0.1875
     26 H1         -1.1143    1.5526   -0.5363 H         1 <0>         0.1257
     27 H2          0.9135    2.9461   -0.6315 H         1 <0>         0.1275
     28 H3          3.1337    1.9067   -0.4001 H         1 <0>         0.1221
     29 H4          1.2985   -1.9209    0.0142 H         1 <0>         0.1329
     30 H5         -0.9216   -0.8816   -0.2183 H         1 <0>         0.1255
     31 H6          4.6409   -2.6372   -1.6830 H         1 <0>         0.1253
     32 H7          4.3851   -5.0750   -1.4493 H         1 <0>         0.1258
     33 H8          3.1557   -6.0056    0.4705 H         1 <0>         0.1257
     34 H9          2.1828   -4.4983    2.1571 H         1 <0>         0.1266
     35 H10         2.4458   -2.0608    1.9279 H         1 <0>         0.1217
     36 H11         6.1689    0.4089   -0.1441 H         1 <0>         0.1411
     37 H12         7.5185    0.9047   -2.1424 H         1 <0>         0.1336
     38 H13         6.6456    0.3714   -4.3821 H         1 <0>         0.1361
     39 H14         4.4225   -0.6582   -4.6243 H         1 <0>         0.1382
     40 H15         6.2011   -1.3835    1.2836 H         1 <0>         0.1702
     41 H16         6.6821    0.0956    3.3983 H         1 <0>         0.1703
     42 H17         3.0222    1.3901    1.7888 H         1 <0>         0.2017
@<TRIPOS>BOND
     1    1    6 ar
     2    1    2 ar
     3    1   26 1
     4    2    3 ar
     5    2   27 1
     6    3    4 ar
     7    3   28 1
     8    4    5 ar
     9    4    7 1
    10    5    6 ar
    11    5   29 1
    12    6   30 1
    13    7    8 1
    14    7   14 1
    15    7   21 1
    16    8   13 ar
    17    8    9 ar
    18    9   10 ar
    19    9   31 1
    20   10   11 ar
    21   10   32 1
    22   11   12 ar
    23   11   33 1
    24   12   13 ar
    25   12   34 1
    26   13   35 1
    27   14   19 ar
    28   14   15 ar
    29   15   16 ar
    30   15   36 1
    31   16   17 ar
    32   16   37 1
    33   17   18 ar
    34   17   38 1
    35   18   19 ar
    36   18   39 1
    37   19   20 1
    38   21   25 1
    39   21   22 1
    40   22   23 2
    41   22   40 1
    42   23   24 1
    43   23   41 1
    44   24   25 2
    45   25   42 1
@<TRIPOS>MOLECULE
ZINC03807804
   43    46     0     0     0
SMALL
USER_CHARGES

@<TRIPOS>ATOM
      1 C1          0.5987    1.7832    1.4981 C.ar      1 <0>        -0.0892
      2 C2          0.3739    1.0091    0.3751 C.ar      1 <0>        -0.1131
      3 C3          1.3811    0.2033   -0.1220 C.ar      1 <0>        -0.1073
      4 C4          2.6134    0.1720    0.5037 C.ar      1 <0>        -0.1169
      5 C5          2.8385    0.9468    1.6262 C.ar      1 <0>        -0.0809
      6 C6          1.8308    1.7515    2.1240 C.ar      1 <0>        -0.1100
      7 C7          3.7112   -0.7071   -0.0376 C.3       1 <0>         0.3108
      8 C8          4.1045   -0.2308   -1.4122 C.ar      1 <0>        -0.1114
      9 C9          4.1390   -1.1216   -2.4687 C.ar      1 <0>        -0.1224
     10 C10         4.4997   -0.6846   -3.7296 C.ar      1 <0>        -0.1050
     11 C11         4.8255    0.6431   -3.9340 C.ar      1 <0>        -0.0966
     12 C12         4.7901    1.5341   -2.8777 C.ar      1 <0>        -0.1040
     13 C13         4.4252    1.0980   -1.6177 C.ar      1 <0>        -0.0870
     14 C14         4.9061   -0.6400    0.8783 C.ar      1 <0>        -0.1243
     15 C15         6.0946   -0.0984    0.4255 C.ar      1 <0>        -0.0806
     16 C16         7.1906   -0.0368    1.2654 C.ar      1 <0>        -0.1064
     17 C17         7.0990   -0.5167    2.5588 C.ar      1 <0>        -0.0779
     18 C18         5.9114   -1.0584    3.0126 C.ar      1 <0>        -0.1060
     19 C19         4.8121   -1.1151    2.1740 C.ar      1 <0>        -0.0235
     20 Cl1         3.3179   -1.7894    2.7455 Cl        1 <0>        -0.0546
     21 N1          3.2345   -2.0901   -0.1178 N.pl3     1 <0>        -0.3928
     22 C20         1.9543   -2.5219    0.1018 C.2       1 <0>         0.0325
     23 C21         1.9573   -3.8567   -0.0767 C.2       1 <0>         0.0033
     24 N2          3.2053   -4.2297   -0.3965 N.pl3     1 <0>        -0.4715
     25 C22         3.9747   -3.1761   -0.4280 C.cat     1 <0>         0.2859
     26 H1         -0.1868    2.4161    1.8838 H         1 <0>         0.1340
     27 H2         -0.5889    1.0335   -0.1137 H         1 <0>         0.1343
     28 H3          1.2053   -0.4020   -0.9989 H         1 <0>         0.1246
     29 H4          3.8010    0.9218    2.1154 H         1 <0>         0.1290
     30 H5          2.0066    2.3566    3.0012 H         1 <0>         0.1338
     31 H6          3.8845   -2.1589   -2.3090 H         1 <0>         0.1110
     32 H7          4.5274   -1.3807   -4.5549 H         1 <0>         0.1325
     33 H8          5.1080    0.9843   -4.9190 H         1 <0>         0.1349
     34 H9          5.0450    2.5713   -3.0374 H         1 <0>         0.1371
     35 H10         4.3939    1.7949   -0.7931 H         1 <0>         0.1317
     36 H11         6.1669    0.2763   -0.5848 H         1 <0>         0.1476
     37 H12         8.1191    0.3861    0.9110 H         1 <0>         0.1431
     38 H13         7.9558   -0.4686    3.2145 H         1 <0>         0.1451
     39 H14         5.8400   -1.4335    4.0228 H         1 <0>         0.1446
     40 H15         1.1050   -1.9099    0.3675 H         1 <0>         0.2211
     41 H16         1.1044   -4.5120    0.0207 H         1 <0>         0.2258
     42 H17         5.0293   -3.1735   -0.6609 H         1 <0>         0.2540
     43 H18         3.4903   -5.1387   -0.5793 H         1 <0>         0.4647
@<TRIPOS>BOND
     1    1    6 ar
     2    1    2 ar
     3    1   26 1
     4    2    3 ar
     5    2   27 1
     6    3    4 ar
     7    3   28 1
     8    4    5 ar
     9    4    7 1
    10    5    6 ar
    11    5   29 1
    12    6   30 1
    13    7    8 1
    14    7   14 1
    15    7   21 1
    16    8   13 ar
    17    8    9 ar
    18    9   10 ar
    19    9   31 1
    20   10   11 ar
    21   10   32 1
    22   11   12 ar
    23   11   33 1
    24   12   13 ar
    25   12   34 1
    26   13   35 1
    27   14   19 ar
    28   14   15 ar
    29   15   16 ar
    30   15   36 1
    31   16   17 ar
    32   16   37 1
    33   17   18 ar
    34   17   38 1
    35   18   19 ar
    36   18   39 1
    37   19   20 1
    38   21   25 1
    39   21   22 1
    40   22   23 2
    41   22   40 1
    42   23   24 1
    43   23   41 1
    44   24   25 2
    45   24   43 1
    46   25   42 1
@<TRIPOS>MOLECULE
ZINC49035878
   55    57     0     0     0
SMALL
USER_CHARGES

@<TRIPOS>ATOM
      1 C1          1.1571   -0.7804   -0.8292 C.ar      1 <0>        -0.0505
      2 C2          2.3897   -0.1616   -0.8639 C.ar      1 <0>        -0.1576
      3 C3          2.6059    0.9977   -0.1363 C.ar      1 <0>         0.1124
      4 C4          1.5862    1.5410    0.6285 C.ar      1 <0>        -0.1556
      5 C5          0.3505    0.9290    0.6692 C.ar      1 <0>        -0.0718
      6 C6          0.1284   -0.2374   -0.0611 C.ar      1 <0>        -0.0634
      7 C7         -1.1983   -0.8987   -0.0210 C.ar      1 <0>         0.1569
      8 C8         -2.2222   -0.3445    0.7458 C.ar      1 <0>        -0.1399
      9 C9         -3.4549   -0.9696    0.7756 C.ar      1 <0>        -0.0720
     10 C10        -3.6259   -2.1368    0.0329 C.ar      1 <0>         0.1069
     11 C11        -2.5602   -2.6314   -0.7083 C.ar      1 <0>         0.0888
     12 N1         -1.4000   -2.0084   -0.7194 N.ar      1 <0>        -0.4554
     13 N2         -4.8564   -2.8027    0.0344 N.am      1 <0>        -0.6775
     14 C12        -6.0020   -2.1014    0.1456 C.2       1 <0>         0.7052
     15 O1         -5.9729   -0.8859    0.1475 O.2       1 <0>        -0.5674
     16 N3         -7.1798   -2.7475    0.2547 N.am      1 <0>        -0.7443
     17 C13        -8.4250   -1.9852    0.3756 C.3       1 <0>         0.1372
     18 C14        -9.6061   -2.9517    0.4838 C.3       1 <0>        -0.1301
     19 C15       -10.9066   -2.1556    0.6101 C.3       1 <0>        -0.1465
     20 C16       -12.0877   -3.1220    0.7182 C.3       1 <0>        -0.0090
     21 N4        -13.3363   -2.3577    0.8395 N.4       1 <0>        -0.3832
     22 C17       -13.3255   -1.6021    2.0978 C.3       1 <0>        -0.0125
     23 C18       -14.5873   -0.7415    2.1913 C.3       1 <0>        -0.1464
     24 C19       -15.8210   -1.6477    2.1488 C.3       1 <0>        -0.1399
     25 C20       -15.7833   -2.4851    0.8672 C.3       1 <0>        -0.1468
     26 C21       -14.4772   -3.2811    0.8228 C.3       1 <0>        -0.0065
     27 F1          3.8147    1.5999   -0.1725 F         1 <0>        -0.1351
     28 H1          0.9882   -1.6816   -1.3998 H         1 <0>         0.1456
     29 H2          3.1873   -0.5815   -1.4587 H         1 <0>         0.1411
     30 H3          1.7592    2.4447    1.1940 H         1 <0>         0.1413
     31 H4         -0.4436    1.3529    1.2659 H         1 <0>         0.1372
     32 H5         -2.0545    0.5613    1.3095 H         1 <0>         0.1433
     33 H6         -4.2664   -0.5633    1.3610 H         1 <0>         0.1483
     34 H7         -2.6859   -3.5354   -1.2857 H         1 <0>         0.1611
     35 H8         -4.8851   -3.7690   -0.0447 H         1 <0>         0.4112
     36 H9         -7.2029   -3.7172    0.2531 H         1 <0>         0.4007
     37 H10        -8.3835   -1.3608    1.2681 H         1 <0>         0.0725
     38 H11        -8.5514   -1.3539   -0.5040 H         1 <0>         0.0728
     39 H12        -9.6476   -3.5761   -0.4087 H         1 <0>         0.0831
     40 H13        -9.4797   -3.5829    1.3633 H         1 <0>         0.0827
     41 H14       -10.8651   -1.5311    1.5025 H         1 <0>         0.0920
     42 H15       -11.0330   -1.5243   -0.2695 H         1 <0>         0.0923
     43 H16       -12.1292   -3.7465   -0.1742 H         1 <0>         0.1320
     44 H17       -11.9613   -3.7533    1.5978 H         1 <0>         0.1302
     45 H18       -13.2967   -2.2963    2.9377 H         1 <0>         0.1284
     46 H19       -12.4452   -0.9600    2.1280 H         1 <0>         0.1316
     47 H20       -14.5782   -0.1826    3.1271 H         1 <0>         0.1121
     48 H21       -14.6170   -0.0467    1.3520 H         1 <0>         0.0877
     49 H22       -15.8181   -2.3082    3.0160 H         1 <0>         0.0816
     50 H23       -16.7231   -1.0360    2.1581 H         1 <0>         0.0944
     51 H24       -16.6291   -3.1726    0.8565 H         1 <0>         0.1123
     52 H25       -15.8378   -1.8265    0.0004 H         1 <0>         0.0877
     53 H26       -14.4471   -3.8786   -0.0884 H         1 <0>         0.1299
     54 H27       -14.4238   -3.9395    1.6898 H         1 <0>         0.1280
     55 H28       -13.4131   -1.7158    0.0648 H         1 <0>         0.4227
@<TRIPOS>BOND
     1    1    6 ar
     2    1    2 ar
     3    1   28 1
     4    2    3 ar
     5    2   29 1
     6    3    4 ar
     7    3   27 1
     8    4    5 ar
     9    4   30 1
    10    5    6 ar
    11    5   31 1
    12    6    7 1
    13    7   12 ar
    14    7    8 ar
    15    8    9 ar
    16    8   32 1
    17    9   10 ar
    18    9   33 1
    19   10   11 ar
    20   10   13 1
    21   11   12 ar
    22   11   34 1
    23   13   14 am
    24   13   35 1
    25   14   15 2
    26   14   16 am
    27   16   17 1
    28   16   36 1
    29   17   18 1
    30   17   37 1
    31   17   38 1
    32   18   19 1
    33   18   39 1
    34   18   40 1
    35   19   20 1
    36   19   41 1
    37   19   42 1
    38   20   21 1
    39   20   43 1
    40   20   44 1
    41   21   26 1
    42   21   22 1
    43   21   55 1
    44   22   23 1
    45   22   45 1
    46   22   46 1
    47   23   24 1
    48   23   47 1
    49   23   48 1
    50   24   25 1
    51   24   49 1
    52   24   50 1
    53   25   26 1
    54   25   51 1
    55   25   52 1
    56   26   53 1
    57   26   54 1
@<TRIPOS>MOLECULE
ZINC03831041
   53    56     0     0     0
SMALL
USER_CHARGES

@<TRIPOS>ATOM
      1 C1          3.1768    3.9958    0.6573 C.3       1 <0>        -0.0546
      2 N1          2.2593    3.2864   -0.2444 N.4       1 <0>        -0.3795
      3 C2          2.9880    2.8603   -1.4453 C.3       1 <0>        -0.0074
      4 C3          2.0196    2.1923   -2.4238 C.3       1 <0>        -0.1462
      5 C4          1.3833    0.9725   -1.7512 C.3       1 <0>        -0.1373
      6 C5          0.6893    1.4176   -0.4607 C.3       1 <0>        -0.1450
      7 C6          1.7069    2.1143    0.4451 C.3       1 <0>         0.0301
      8 H1          2.5131    1.4212    0.6854 H         1 <0>         0.1407
      9 C7          1.0179    2.5607    1.7362 C.3       1 <0>        -0.1792
     10 C8          0.5179    1.3320    2.4986 C.3       1 <0>         0.1190
     11 N2         -0.2067    1.7623    3.6969 N.pl3     1 <0>        -0.5639
     12 C9         -1.5768    1.9796    3.5768 C.ar      1 <0>         0.1870
     13 C10        -2.1020    2.2720    2.3221 C.ar      1 <0>        -0.1668
     14 C11        -3.4579    2.4874    2.1657 C.ar      1 <0>        -0.0769
     15 C12        -4.3042    2.4143    3.2558 C.ar      1 <0>        -0.1293
     16 C13        -3.7931    2.1263    4.5080 C.ar      1 <0>        -0.0517
     17 C14        -2.4323    1.9106    4.6727 C.ar      1 <0>        -0.1553
     18 S1         -1.7982    1.5547    6.2770 S.3       1 <0>         0.0407
     19 C15        -0.0682    1.8492    6.1262 C.ar      1 <0>        -0.1150
     20 C16         0.5259    1.9175    4.8706 C.ar      1 <0>         0.1707
     21 C17         1.8940    2.1512    4.7813 C.ar      1 <0>        -0.1010
     22 C18         2.6526    2.3044    5.9265 C.ar      1 <0>        -0.4278
     23 C19         2.0570    2.2271    7.1707 C.ar      1 <0>        -0.0518
     24 C20         0.7003    2.0081    7.2700 C.ar      1 <0>        -0.0729
     25 S2          4.3852    2.5986    5.7991 S.o       1 <0>         1.3398
     26 O1          4.7350    2.0506    4.5356 O.2       1 <0>        -0.8591
     27 C21         4.5195    4.4064    5.7323 C.3       1 <0>        -0.4960
     28 H2          3.9116    3.2947    1.0530 H         1 <0>         0.1260
     29 H3          3.6880    4.7860    0.1074 H         1 <0>         0.1274
     30 H4          2.6116    4.4329    1.4804 H         1 <0>         0.1203
     31 H5          3.4429    3.7291   -1.9211 H         1 <0>         0.1322
     32 H6          3.7669    2.1513   -1.1647 H         1 <0>         0.1294
     33 H7          1.2403    2.9006   -2.7053 H         1 <0>         0.0878
     34 H8          2.5628    1.8751   -3.3140 H         1 <0>         0.1139
     35 H9          0.6508    0.5262   -2.4238 H         1 <0>         0.0970
     36 H10         2.1566    0.2414   -1.5157 H         1 <0>         0.0834
     37 H11        -0.1176    2.1098   -0.7015 H         1 <0>         0.0902
     38 H12         0.2816    0.5466    0.0523 H         1 <0>         0.1127
     39 H13         1.7276    3.1088    2.3559 H         1 <0>         0.0943
     40 H14         0.1737    3.2059    1.4932 H         1 <0>         0.0976
     41 H15        -0.1488    0.7539    1.8588 H         1 <0>         0.0981
     42 H16         1.3676    0.7146    2.7900 H         1 <0>         0.0950
     43 H17        -1.4464    2.3312    1.4659 H         1 <0>         0.1242
     44 H18        -3.8575    2.7139    1.1883 H         1 <0>         0.1328
     45 H19        -5.3636    2.5824    3.1299 H         1 <0>         0.1373
     46 H20        -4.4546    2.0692    5.3598 H         1 <0>         0.1388
     47 H21         2.3662    2.2130    3.8119 H         1 <0>         0.1285
     48 H22         2.6530    2.3455    8.0636 H         1 <0>         0.1512
     49 H23         0.2363    1.9486    8.2434 H         1 <0>         0.1450
     50 H24         4.0956    4.8360    6.6399 H         1 <0>         0.1168
     51 H25         5.5689    4.6900    5.6518 H         1 <0>         0.1114
     52 H26         3.9748    4.7794    4.8650 H         1 <0>         0.0753
     53 H27         1.5073    3.9039   -0.5112 H         1 <0>         0.4217
@<TRIPOS>BOND
     1    1    2 1
     2    1   28 1
     3    1   29 1
     4    1   30 1
     5    2    7 1
     6    2    3 1
     7    2   53 1
     8    3    4 1
     9    3   31 1
    10    3   32 1
    11    4    5 1
    12    4   33 1
    13    4   34 1
    14    5    6 1
    15    5   35 1
    16    5   36 1
    17    6    7 1
    18    6   37 1
    19    6   38 1
    20    7    8 1
    21    7    9 1
    22    9   10 1
    23    9   39 1
    24    9   40 1
    25   10   11 1
    26   10   41 1
    27   10   42 1
    28   11   20 1
    29   11   12 1
    30   12   17 ar
    31   12   13 ar
    32   13   14 ar
    33   13   43 1
    34   14   15 ar
    35   14   44 1
    36   15   16 ar
    37   15   45 1
    38   16   17 ar
    39   16   46 1
    40   17   18 1
    41   18   19 1
    42   19   24 ar
    43   19   20 ar
    44   20   21 ar
    45   21   22 ar
    46   21   47 1
    47   22   23 ar
    48   22   25 1
    49   23   24 ar
    50   23   48 1
    51   24   49 1
    52   25   26 2
    53   25   27 1
    54   27   50 1
    55   27   51 1
    56   27   52 1
@<TRIPOS>MOLECULE
ZINC03831042
   53    56     0     0     0
SMALL
USER_CHARGES
10-[2-(1-methyl-2-piperidyl)ethyl]-2-methylsulfinyl-phenothiazine
@<TRIPOS>ATOM
      1 C1          2.7528    3.4866   -3.1898 C.3       1 <0>        -0.0547
      2 C2          1.4574    5.5214   -2.9845 C.3       1 <0>        -0.0014
      3 C3          0.0396    6.0694   -2.8075 C.3       1 <0>        -0.1488
      4 C4         -0.5021    5.6386   -1.4416 C.3       1 <0>        -0.1374
      5 C5         -0.4718    4.1106   -1.3484 C.3       1 <0>        -0.1468
      6 C6          0.9610    3.6194   -1.5674 C.3       1 <0>         0.0342
      7 H1          1.6089    4.0332   -0.7948 H         1 <0>         0.1444
      8 C7          0.9927    2.0914   -1.4948 C.3       1 <0>        -0.1851
      9 C8          0.5905    1.6392   -0.0896 C.3       1 <0>         0.1172
     10 N1          0.6783    0.1794   -0.0026 N.pl3     1 <0>        -0.5633
     11 C9         -0.4514   -0.5546   -0.3542 C.ar      1 <0>         0.1869
     12 C10        -1.3906    0.0249   -1.2014 C.ar      1 <0>        -0.1655
     13 C11        -2.5261   -0.6724   -1.5669 C.ar      1 <0>        -0.0777
     14 C12        -2.7375   -1.9539   -1.0944 C.ar      1 <0>        -0.1288
     15 C13        -1.8095   -2.5410   -0.2538 C.ar      1 <0>        -0.0526
     16 C14        -0.6670   -1.8464    0.1172 C.ar      1 <0>        -0.1541
     17 S1          0.5048   -2.6123    1.1865 S.3       1 <0>         0.0394
     18 C15         1.9585   -1.6367    0.9933 C.ar      1 <0>        -0.1141
     19 C16         1.8868   -0.3677    0.4201 C.ar      1 <0>         0.1705
     20 C17         3.0488    0.3801    0.2807 C.ar      1 <0>        -0.0899
     21 C18         4.2635   -0.1296    0.6990 C.ar      1 <0>        -0.4281
     22 C19         4.3315   -1.3882    1.2649 C.ar      1 <0>        -0.0625
     23 C20         3.1807   -2.1416    1.4123 C.ar      1 <0>        -0.0702
     24 S2          5.7300    0.8284    0.5095 S.o       1 <0>         1.3272
     25 O1          6.6047    0.3191    1.5068 O.2       1 <0>        -0.8367
     26 C21         6.3485    0.3642   -1.1314 C.3       1 <0>        -0.4994
     27 H2          2.6937    2.3986   -3.1627 H         1 <0>         0.1230
     28 H3          3.0690    3.8087   -4.1820 H         1 <0>         0.1250
     29 H4          3.4750    3.8299   -2.4491 H         1 <0>         0.1285
     30 H5          2.1032    5.9262   -2.2052 H         1 <0>         0.1319
     31 H6          1.8407    5.8144   -3.9619 H         1 <0>         0.1298
     32 H7          0.0604    7.1578   -2.8639 H         1 <0>         0.1128
     33 H8         -0.6036    5.6759   -3.5946 H         1 <0>         0.0870
     34 H9          0.1183    6.0642   -0.6530 H         1 <0>         0.0835
     35 H10        -1.5274    5.9911   -1.3287 H         1 <0>         0.0954
     36 H11        -1.1228    3.6862   -2.1127 H         1 <0>         0.0895
     37 H12        -0.8164    3.7994   -0.3623 H         1 <0>         0.1126
     38 H13         1.9998    1.7380   -1.7159 H         1 <0>         0.0997
     39 H14         0.2947    1.6785   -2.2231 H         1 <0>         0.0984
     40 H15        -0.4328    1.9544    0.1146 H         1 <0>         0.0978
     41 H16         1.2619    2.0878    0.6426 H         1 <0>         0.0980
     42 H17        -1.2314    1.0256   -1.5752 H         1 <0>         0.1260
     43 H18        -3.2508   -0.2146   -2.2239 H         1 <0>         0.1329
     44 H19        -3.6266   -2.4960   -1.3809 H         1 <0>         0.1368
     45 H20        -1.9746   -3.5425    0.1150 H         1 <0>         0.1378
     46 H21         3.0031    1.3645   -0.1613 H         1 <0>         0.1336
     47 H22         5.2820   -1.7835    1.5915 H         1 <0>         0.1389
     48 H23         3.2340   -3.1256    1.8544 H         1 <0>         0.1408
     49 H24         5.5989    0.6074   -1.8844 H         1 <0>         0.1058
     50 H25         7.2665    0.9126   -1.3423 H         1 <0>         0.1107
     51 H26         6.5517   -0.7065   -1.1536 H         1 <0>         0.0865
     52 N2          1.4144    4.0457   -2.9085 N.4       1 <0>        -0.3925
     53 H27         0.7524    3.6952   -3.6108 H         1 <0>         0.4269
@<TRIPOS>BOND
     1    1   27 1
     2    1   28 1
     3    1   29 1
     4    1   52 1
     5    2    3 1
     6    2   30 1
     7    2   31 1
     8    2   52 1
     9    3    4 1
    10    3   32 1
    11    3   33 1
    12    4    5 1
    13    4   34 1
    14    4   35 1
    15    5    6 1
    16    5   36 1
    17    5   37 1
    18    6    7 1
    19    6    8 1
    20    6   52 1
    21    8    9 1
    22    8   38 1
    23    8   39 1
    24    9   10 1
    25    9   40 1
    26    9   41 1
    27   10   19 1
    28   10   11 1
    29   11   16 ar
    30   11   12 ar
    31   12   13 ar
    32   12   42 1
    33   13   14 ar
    34   13   43 1
    35   14   15 ar
    36   14   44 1
    37   15   16 ar
    38   15   45 1
    39   16   17 1
    40   17   18 1
    41   18   23 ar
    42   18   19 ar
    43   19   20 ar
    44   20   21 ar
    45   20   46 1
    46   21   22 ar
    47   21   24 1
    48   22   23 ar
    49   22   47 1
    50   23   48 1
    51   24   25 2
    52   24   26 1
    53   26   49 1
    54   26   50 1
    55   26   51 1
    56   52   53 1
@<TRIPOS>MOLECULE
ZINC49070819
   53    55     0     0     0
SMALL
USER_CHARGES

@<TRIPOS>ATOM
      1 C1         -0.0187    1.5258    0.0104 C.3       1 <0>        -0.1607
      2 C2          0.0021   -0.0041    0.0020 C.3       1 <0>        -0.1144
      3 C3          0.7421   -0.5109    1.2415 C.3       1 <0>        -0.0618
      4 C4          2.1775    0.0187    1.2307 C.3       1 <0>        -0.1556
      5 C5          0.0259   -0.0175    2.5003 C.3       1 <0>        -0.1534
      6 C6          0.7628   -2.0407    1.2331 C.3       1 <0>        -0.0574
      7 C7          1.4917   -2.5400    2.4540 C.2       1 <0>         0.0768
      8 C8          2.8227   -2.6959    2.5865 C.2       1 <0>        -0.0017
      9 N1          3.0652   -3.1605    3.8211 N.pl3     1 <0>        -0.4694
     10 C9          1.9350   -3.2985    4.4588 C.cat     1 <0>         0.3253
     11 N2          0.9285   -2.9165    3.6434 N.pl3     1 <0>        -0.5070
     12 H1         -0.0171   -2.9118    3.8596 H         1 <0>         0.4620
     13 C10         1.7793   -3.7962    5.8726 C.3       1 <0>        -0.0731
     14 C11         1.8364   -2.6118    6.8395 C.3       1 <0>        -0.0756
     15 C12         1.6806   -3.1095    8.2534 C.ar      1 <0>        -0.0971
     16 C13         0.4195   -3.2148    8.8118 C.ar      1 <0>        -0.1143
     17 C14         0.2709   -3.6701   10.1062 C.ar      1 <0>        -0.0765
     18 C15         1.3945   -4.0240   10.8508 C.ar      1 <0>        -0.0321
     19 C16         2.6626   -3.9158   10.2831 C.ar      1 <0>        -0.0983
     20 C17         2.7989   -3.4648    8.9859 C.ar      1 <0>        -0.1125
     21 C18         1.2412   -4.5135   12.2428 C.ar      1 <0>         0.1528
     22 C19         2.3706   -4.8596   12.9817 C.ar      1 <0>        -0.1605
     23 C20         2.2118   -5.3147   14.2791 C.ar      1 <0>        -0.0708
     24 C21         0.9270   -5.4088   14.7955 C.ar      1 <0>        -0.1664
     25 C22        -0.1491   -5.0483   14.0061 C.ar      1 <0>         0.1070
     26 N3          0.0304   -4.6129   12.7755 N.ar      1 <0>        -0.4776
     27 H2          1.0039    1.9031    0.0027 H         1 <0>         0.0599
     28 H3         -0.5459    1.8868   -0.8726 H         1 <0>         0.0609
     29 H4         -0.5289    1.8773    0.9072 H         1 <0>         0.0584
     30 H5         -1.0205   -0.3814    0.0098 H         1 <0>         0.0679
     31 H6          0.5123   -0.3556   -0.8948 H         1 <0>         0.0704
     32 H7          2.1627    1.1086    1.2367 H         1 <0>         0.0716
     33 H8          2.7046   -0.3424    2.1137 H         1 <0>         0.0500
     34 H9          2.6876   -0.3328    0.3339 H         1 <0>         0.0652
     35 H10        -0.9967   -0.3948    2.5081 H         1 <0>         0.0610
     36 H11         0.5531   -0.3786    3.3834 H         1 <0>         0.0428
     37 H12         0.0111    1.0724    2.5063 H         1 <0>         0.0743
     38 H13        -0.2598   -2.4180    1.2409 H         1 <0>         0.0982
     39 H14         1.2730   -2.3923    0.3363 H         1 <0>         0.1149
     40 H15         3.5649   -2.4839    1.8311 H         1 <0>         0.2239
     41 H16         0.8200   -4.3034    5.9757 H         1 <0>         0.1251
     42 H17         2.5852   -4.4928    6.1035 H         1 <0>         0.1256
     43 H18         2.7956   -2.1046    6.7365 H         1 <0>         0.0859
     44 H19         1.0304   -1.9152    6.6087 H         1 <0>         0.0861
     45 H20        -0.4505   -2.9400    8.2339 H         1 <0>         0.1264
     46 H21        -0.7142   -3.7516   10.5413 H         1 <0>         0.1401
     47 H22         3.5367   -4.1887   10.8557 H         1 <0>         0.1317
     48 H23         3.7808   -3.3851    8.5433 H         1 <0>         0.1271
     49 H24         3.3560   -4.7744   12.5481 H         1 <0>         0.1373
     50 H25         3.0684   -5.5908   14.8761 H         1 <0>         0.1404
     51 H26         0.7694   -5.7607   15.8044 H         1 <0>         0.1410
     52 H27        -1.1502   -5.1204   14.4049 H         1 <0>         0.1623
     53 H28         3.9423   -3.3625    4.1829 H         1 <0>         0.4641
@<TRIPOS>BOND
     1    1    2 1
     2    1   27 1
     3    1   28 1
     4    1   29 1
     5    2    3 1
     6    2   30 1
     7    2   31 1
     8    3    4 1
     9    3    5 1
    10    3    6 1
    11    4   32 1
    12    4   33 1
    13    4   34 1
    14    5   35 1
    15    5   36 1
    16    5   37 1
    17    6    7 1
    18    6   38 1
    19    6   39 1
    20    7   11 1
    21    7    8 2
    22    8    9 1
    23    8   40 1
    24    9   10 2
    25    9   53 1
    26   10   11 1
    27   10   13 1
    28   11   12 1
    29   13   14 1
    30   13   41 1
    31   13   42 1
    32   14   15 1
    33   14   43 1
    34   14   44 1
    35   15   20 ar
    36   15   16 ar
    37   16   17 ar
    38   16   45 1
    39   17   18 ar
    40   17   46 1
    41   18   19 ar
    42   18   21 1
    43   19   20 ar
    44   19   47 1
    45   20   48 1
    46   21   26 ar
    47   21   22 ar
    48   22   23 ar
    49   22   49 1
    50   23   24 ar
    51   23   50 1
    52   24   25 ar
    53   24   51 1
    54   25   26 ar
    55   25   52 1
@<TRIPOS>MOLECULE
ZINC00020245
   46    48     0     0     0
SMALL
USER_CHARGES

@<TRIPOS>ATOM
      1 C1         -5.6836    1.3838    0.0162 C.3       1 <0>        -0.0473
      2 N1         -5.6620   -0.0833   -0.0564 N.4       1 <0>        -0.3868
      3 C2         -6.3713   -0.5242   -1.2649 C.3       1 <0>        -0.0522
      4 C3         -4.2702   -0.5505   -0.1076 C.3       1 <0>        -0.0086
      5 C4         -4.2434   -2.0795   -0.0575 C.3       1 <0>        -0.1781
      6 C5         -2.7938   -2.5661   -0.1108 C.3       1 <0>         0.1490
      7 N2         -2.7704   -4.0309   -0.1190 N.pl3     1 <0>        -0.6108
      8 C6         -2.7295   -4.7451   -1.3212 C.ar      1 <0>         0.1758
      9 C7         -1.6865   -4.4783   -2.2022 C.ar      1 <0>        -0.1411
     10 C8         -1.5734   -5.1772   -3.3856 C.ar      1 <0>        -0.1022
     11 C9         -2.5089   -6.1508   -3.6854 C.ar      1 <0>        -0.1266
     12 C10        -3.5489   -6.4041   -2.8209 C.ar      1 <0>        -0.1101
     13 C11        -3.6933   -5.6947   -1.6266 C.ar      1 <0>        -0.0998
     14 C12        -4.9357   -6.0340   -0.8354 C.3       1 <0>        -0.0687
     15 C13        -5.1005   -5.1892    0.4158 C.3       1 <0>        -0.0773
     16 C14        -3.9592   -5.4030    1.3779 C.ar      1 <0>        -0.0996
     17 C15        -2.7824   -4.7590    1.0748 C.ar      1 <0>         0.1523
     18 C16        -1.6837   -4.8488    1.9126 C.ar      1 <0>        -0.1184
     19 C17        -1.7825   -5.6251    3.0560 C.ar      1 <0>        -0.1094
     20 C18        -2.9565   -6.2950    3.3488 C.ar      1 <0>        -0.1165
     21 C19        -4.0679   -6.1865    2.5030 C.ar      1 <0>        -0.1028
     22 H1         -6.7163    1.7305    0.0542 H         1 <0>         0.1245
     23 H2         -5.1573    1.7109    0.9129 H         1 <0>         0.1235
     24 H3         -5.1933    1.7984   -0.8646 H         1 <0>         0.1221
     25 H4         -6.3552   -1.6128   -1.3188 H         1 <0>         0.1231
     26 H5         -7.4040   -0.1775   -1.2269 H         1 <0>         0.1246
     27 H6         -5.8810   -0.1096   -2.1457 H         1 <0>         0.1227
     28 H7         -3.8061   -0.2091   -1.0329 H         1 <0>         0.1308
     29 H8         -3.7207   -0.1494    0.7440 H         1 <0>         0.1320
     30 H9         -4.7075   -2.4209    0.8678 H         1 <0>         0.0908
     31 H10        -4.7929   -2.4806   -0.9091 H         1 <0>         0.0915
     32 H11        -2.3174   -2.1901   -1.0161 H         1 <0>         0.0824
     33 H12        -2.2550   -2.1990    0.7627 H         1 <0>         0.0801
     34 H13        -0.9599   -3.7176   -1.9576 H         1 <0>         0.1215
     35 H14        -0.7646   -4.9667   -4.0697 H         1 <0>         0.1276
     36 H15        -2.4229   -6.7145   -4.6025 H         1 <0>         0.1250
     37 H16        -4.2693   -7.1687   -3.0712 H         1 <0>         0.1222
     38 H17        -5.8074   -5.8880   -1.4734 H         1 <0>         0.0793
     39 H18        -4.8898   -7.0837   -0.5452 H         1 <0>         0.0765
     40 H19        -5.1365   -4.1371    0.1334 H         1 <0>         0.0724
     41 H20        -6.0358   -5.4578    0.9068 H         1 <0>         0.0709
     42 H21        -0.7686   -4.3248    1.6795 H         1 <0>         0.1257
     43 H22        -0.9372   -5.7074    3.7231 H         1 <0>         0.1275
     44 H23        -3.0178   -6.9071    4.2365 H         1 <0>         0.1269
     45 H24        -4.9880   -6.7067    2.7249 H         1 <0>         0.1290
     46 H25        -6.1159   -0.4671    0.7589 H         1 <0>         0.4268
@<TRIPOS>BOND
     1    1    2 1
     2    1   22 1
     3    1   23 1
     4    1   24 1
     5    2    3 1
     6    2    4 1
     7    2   46 1
     8    3   25 1
     9    3   26 1
    10    3   27 1
    11    4    5 1
    12    4   28 1
    13    4   29 1
    14    5    6 1
    15    5   30 1
    16    5   31 1
    17    6    7 1
    18    6   32 1
    19    6   33 1
    20    7   17 1
    21    7    8 1
    22    8   13 ar
    23    8    9 ar
    24    9   10 ar
    25    9   34 1
    26   10   11 ar
    27   10   35 1
    28   11   12 ar
    29   11   36 1
    30   12   13 ar
    31   12   37 1
    32   13   14 1
    33   14   15 1
    34   14   38 1
    35   14   39 1
    36   15   16 1
    37   15   40 1
    38   15   41 1
    39   16   21 ar
    40   16   17 ar
    41   17   18 ar
    42   18   19 ar
    43   18   42 1
    44   19   20 ar
    45   19   43 1
    46   20   21 ar
    47   20   44 1
    48   21   45 1
@<TRIPOS>MOLECULE
ZINC00006157
   35    38     0     0     0
SMALL
USER_CHARGES

@<TRIPOS>ATOM
      1 C1         -0.0165    1.3692    0.0096 C.ar      1 <0>        -0.0974
      2 C2          1.1790    2.0645    0.0019 C.ar      1 <0>        -0.1042
      3 C3          2.3606    1.3636   -0.0383 C.ar      1 <0>        -0.1159
      4 C4          2.3823   -0.0351   -0.0554 C.ar      1 <0>        -0.1129
      5 C5          1.2046   -0.7251   -0.0050 C.ar      1 <0>        -0.0524
      6 C6          0.0021   -0.0041    0.0020 C.ar      1 <0>        -0.1159
      7 C7          1.0264   -2.2044    0.1084 C.3       1 <0>        -0.0513
      8 C8          1.8107   -3.0316   -0.8557 C.ar      1 <0>        -0.0543
      9 C9          1.1842   -3.8049   -1.8132 C.ar      1 <0>        -0.0952
     10 C10         1.9355   -4.6202   -2.6401 C.ar      1 <0>        -0.0843
     11 C11         3.3112   -4.6696   -2.5058 C.ar      1 <0>        -0.1013
     12 C12         3.9445   -3.8747   -1.5698 C.ar      1 <0>        -0.1067
     13 C13         3.1936   -3.0257   -0.7684 C.ar      1 <0>         0.0947
     14 N1          3.8201   -2.0705    0.0290 N.pl3     1 <0>        -0.5190
     15 C14         3.7550   -0.6312   -0.1656 C.3       1 <0>         0.1707
     16 H1          4.1908   -0.3718   -1.1304 H         1 <0>         0.1321
     17 C15         4.6448   -0.0681    0.9629 C.3       1 <0>         0.0789
     18 N2          5.0933   -1.2676    1.6846 N.pl3     1 <0>        -0.6478
     19 C16         4.6065   -2.3282    1.1266 C.cat     1 <0>         0.7172
     20 N3          4.8535   -3.5991    1.5897 N.pl3     1 <0>        -0.8015
     21 H2         -0.9562    1.9014    0.0259 H         1 <0>         0.1349
     22 H3          1.1840    3.1442    0.0268 H         1 <0>         0.1365
     23 H4          3.2946    1.9056   -0.0576 H         1 <0>         0.1294
     24 H5         -0.9340   -0.5427    0.0015 H         1 <0>         0.1296
     25 H6          1.3043   -2.5042    1.1188 H         1 <0>         0.0858
     26 H7         -0.0307   -2.4315   -0.0297 H         1 <0>         0.0961
     27 H8          0.1095   -3.7733   -1.9158 H         1 <0>         0.1424
     28 H9          1.4463   -5.2205   -3.3930 H         1 <0>         0.1417
     29 H10         3.8910   -5.3300   -3.1335 H         1 <0>         0.1425
     30 H11         5.0184   -3.9140   -1.4620 H         1 <0>         0.1330
     31 H12         5.4968    0.4695    0.5468 H         1 <0>         0.1309
     32 H13         4.0654    0.5802    1.6202 H         1 <0>         0.1289
     33 H14         4.4655   -4.3642    1.1369 H         1 <0>         0.4389
     34 H15         5.4157   -3.7306    2.3691 H         1 <0>         0.4389
     35 H16         5.6696   -1.2644    2.4648 H         1 <0>         0.4567
@<TRIPOS>BOND
     1    1    6 ar
     2    1    2 ar
     3    1   21 1
     4    2    3 ar
     5    2   22 1
     6    3    4 ar
     7    3   23 1
     8    4   15 1
     9    4    5 ar
    10    5    6 ar
    11    5    7 1
    12    6   24 1
    13    7    8 1
    14    7   25 1
    15    7   26 1
    16    8   13 ar
    17    8    9 ar
    18    9   10 ar
    19    9   27 1
    20   10   11 ar
    21   10   28 1
    22   11   12 ar
    23   11   29 1
    24   12   13 ar
    25   12   30 1
    26   13   14 1
    27   14   19 1
    28   14   15 1
    29   15   16 1
    30   15   17 1
    31   17   18 1
    32   17   31 1
    33   17   32 1
    34   18   19 2
    35   18   35 1
    36   19   20 1
    37   20   33 1
    38   20   34 1
@<TRIPOS>MOLECULE
ZINC01999487
   35    38     0     0     0
SMALL
USER_CHARGES

@<TRIPOS>ATOM
      1 C1         -0.0165    1.3692    0.0096 C.ar      1 <0>        -0.0974
      2 C2          1.1790    2.0645    0.0019 C.ar      1 <0>        -0.1041
      3 C3          2.3611    1.3633    0.0120 C.ar      1 <0>        -0.1159
      4 C4          2.3830   -0.0355    0.0128 C.ar      1 <0>        -0.1129
      5 C5          1.2044   -0.7250   -0.0226 C.ar      1 <0>        -0.0524
      6 C6          0.0021   -0.0041    0.0020 C.ar      1 <0>        -0.1159
      7 C7          1.0239   -2.2029   -0.1493 C.3       1 <0>        -0.0513
      8 C8          1.8268   -3.0410    0.7898 C.ar      1 <0>        -0.0543
      9 C9          1.2189   -3.8252    1.7504 C.ar      1 <0>        -0.0952
     10 C10         1.9861   -4.6498    2.5533 C.ar      1 <0>        -0.0842
     11 C11         3.3590   -4.6971    2.3919 C.ar      1 <0>        -0.1013
     12 C12         3.9740   -3.8919    1.4526 C.ar      1 <0>        -0.1067
     13 C13         3.2077   -3.0339    0.6757 C.ar      1 <0>         0.0947
     14 N1          3.8186   -2.0697   -0.1229 N.pl3     1 <0>        -0.5190
     15 C14         3.7575   -0.6327    0.0894 C.3       1 <0>         0.1707
     16 H1          4.2121   -0.3842    1.0484 H         1 <0>         0.1321
     17 C15         4.6252   -0.0566   -1.0498 C.3       1 <0>         0.0789
     18 N2          5.0594   -1.2478   -1.7937 N.pl3     1 <0>        -0.6478
     19 C16         4.5835   -2.3147   -1.2384 C.cat     1 <0>         0.7172
     20 N3          4.8212   -3.5802   -1.7207 N.pl3     1 <0>        -0.8015
     21 H2         -0.9562    1.9014    0.0259 H         1 <0>         0.1349
     22 H3          1.1837    3.1444   -0.0123 H         1 <0>         0.1365
     23 H4          3.2953    1.9052    0.0192 H         1 <0>         0.1294
     24 H5         -0.9339   -0.5428    0.0154 H         1 <0>         0.1296
     25 H6         -0.0303   -2.4317    0.0068 H         1 <0>         0.0961
     26 H7          1.2821   -2.4912   -1.1683 H         1 <0>         0.0859
     27 H8          0.1466   -3.7944    1.8748 H         1 <0>         0.1424
     28 H9          1.5116   -5.2584    3.3088 H         1 <0>         0.1417
     29 H10         3.9510   -5.3641    3.0011 H         1 <0>         0.1425
     30 H11         5.0455   -3.9301    1.3232 H         1 <0>         0.1330
     31 H12         4.0332    0.5991   -1.6882 H         1 <0>         0.1289
     32 H13         5.4852    0.4764   -0.6442 H         1 <0>         0.1309
     33 H14         4.4420   -4.3505   -1.2692 H         1 <0>         0.4389
     34 H15         5.3681   -3.7027   -2.5124 H         1 <0>         0.4389
     35 H16         5.6205   -1.2356   -2.5849 H         1 <0>         0.4567
@<TRIPOS>BOND
     1    1    6 ar
     2    1    2 ar
     3    1   21 1
     4    2    3 ar
     5    2   22 1
     6    3    4 ar
     7    3   23 1
     8    4   15 1
     9    4    5 ar
    10    5    6 ar
    11    5    7 1
    12    6   24 1
    13    7    8 1
    14    7   25 1
    15    7   26 1
    16    8   13 ar
    17    8    9 ar
    18    9   10 ar
    19    9   27 1
    20   10   11 ar
    21   10   28 1
    22   11   12 ar
    23   11   29 1
    24   12   13 ar
    25   12   30 1
    26   13   14 1
    27   14   19 1
    28   14   15 1
    29   15   16 1
    30   15   17 1
    31   17   18 1
    32   17   31 1
    33   17   32 1
    34   18   19 2
    35   18   35 1
    36   19   20 1
    37   20   33 1
    38   20   34 1
@<TRIPOS>MOLECULE
ZINC01530866
   64    66     0     0     0
SMALL
USER_CHARGES

@<TRIPOS>ATOM
      1 C1         -4.3937    1.7853    1.5002 C.3       1 <0>        -0.1590
      2 C2         -4.3539    0.2865    1.8054 C.3       1 <0>        -0.1209
      3 C3         -3.6089   -0.4425    0.6854 C.3       1 <0>        -0.1491
      4 C4         -3.5692   -1.9412    0.9906 C.3       1 <0>        -0.0170
      5 N1         -2.8539   -2.6411   -0.0848 N.4       1 <0>        -0.3852
      6 C5         -1.4496   -2.2102   -0.1001 C.3       1 <0>        -0.0155
      7 C6         -0.7452   -2.8104   -1.3185 C.3       1 <0>        -0.1494
      8 C7          0.7206   -2.3721   -1.3274 C.3       1 <0>        -0.1207
      9 C8          1.4250   -2.9723   -2.5458 C.3       1 <0>        -0.1589
     10 C9         -2.9190   -4.0904    0.1464 C.3       1 <0>        -0.0130
     11 C10        -4.3698   -4.5612    0.0270 C.3       1 <0>        -0.1837
     12 C11        -4.4263   -6.0827    0.1781 C.3       1 <0>         0.1567
     13 H1         -3.9509   -6.3726    1.1152 H         1 <0>         0.1253
     14 C12        -5.8641   -6.5339    0.1835 C.ar      1 <0>        -0.1192
     15 C13        -6.4290   -6.9510   -0.9679 C.ar      1 <0>        -0.0626
     16 C14        -7.7741   -7.3840   -1.0153 C.ar      1 <0>        -0.0481
     17 C15        -8.5542   -7.3851    0.1630 C.ar      1 <0>        -0.0058
     18 C16        -9.8826   -7.8121    0.1148 C.ar      1 <0>        -0.0964
     19 C17       -10.4202   -8.2285   -1.0824 C.ar      1 <0>        -0.0060
     20 C18        -9.6515   -8.2276   -2.2418 C.ar      1 <0>        -0.0949
     21 C19        -8.3509   -7.8147   -2.2198 C.ar      1 <0>        -0.0053
     22 Cl1        -7.4119   -7.8215   -3.6799 Cl        1 <0>        -0.0379
     23 Cl2       -12.0716   -8.7600   -1.1456 Cl        1 <0>        -0.0327
     24 C20        -7.9403   -6.9329    1.4146 C.ar      1 <0>        -0.0383
     25 C21        -6.5899   -6.5164    1.3968 C.ar      1 <0>        -0.0073
     26 C22        -5.9921   -6.0865    2.5901 C.ar      1 <0>        -0.1163
     27 C23        -6.7159   -6.0805    3.7461 C.ar      1 <0>        -0.0642
     28 C24        -8.0423   -6.4960    3.7604 C.ar      1 <0>        -0.1681
     29 C25        -8.6564   -6.9103    2.6130 C.ar      1 <0>        -0.0381
     30 C26        -8.8146   -6.4785    5.0543 C.3       1 <0>         0.5062
     31 F1         -7.9902   -6.0108    6.0832 F         1 <0>        -0.1733
     32 F2         -9.9228   -5.6345    4.9245 F         1 <0>        -0.1721
     33 F3         -9.2479   -7.7739    5.3563 F         1 <0>        -0.1704
     34 O1         -3.7387   -6.6957   -0.9144 O.3       1 <0>        -0.5443
     35 H2         -4.9244    2.3046    2.2981 H         1 <0>         0.0672
     36 H3         -3.3758    2.1691    1.4310 H         1 <0>         0.0591
     37 H4         -4.9091    1.9498    0.5540 H         1 <0>         0.0591
     38 H5         -3.8385    0.1220    2.7517 H         1 <0>         0.0733
     39 H6         -5.3717   -0.0973    1.8746 H         1 <0>         0.0730
     40 H7         -4.1244   -0.2779   -0.2608 H         1 <0>         0.0861
     41 H8         -2.5911   -0.0586    0.6162 H         1 <0>         0.0872
     42 H9         -3.0537   -2.1057    1.9369 H         1 <0>         0.1312
     43 H10        -4.5870   -2.3250    1.0598 H         1 <0>         0.1313
     44 H11        -1.4039   -1.1225   -0.1532 H         1 <0>         0.1333
     45 H12        -0.9552   -2.5507    0.8097 H         1 <0>         0.1305
     46 H13        -0.7990   -3.8980   -1.2700 H         1 <0>         0.0880
     47 H14        -1.2340   -2.4627   -2.2286 H         1 <0>         0.0859
     48 H15         0.7743   -1.2845   -1.3759 H         1 <0>         0.0727
     49 H16         1.2094   -2.7198   -0.4173 H         1 <0>         0.0731
     50 H17         2.4693   -2.6600   -2.5522 H         1 <0>         0.0669
     51 H18         1.3712   -4.0599   -2.4974 H         1 <0>         0.0596
     52 H19         0.9362   -2.6245   -3.4559 H         1 <0>         0.0590
     53 H20        -2.3079   -4.6044   -0.5956 H         1 <0>         0.1424
     54 H21        -2.5446   -4.3162    1.1448 H         1 <0>         0.1328
     55 H22        -4.9684   -4.0959    0.8100 H         1 <0>         0.1024
     56 H23        -4.7645   -4.2781   -0.9488 H         1 <0>         0.0955
     57 H24        -5.8410   -6.9539   -1.8739 H         1 <0>         0.1379
     58 H25       -10.4849   -7.8160    1.0113 H         1 <0>         0.1505
     59 H26       -10.0898   -8.5580   -3.1718 H         1 <0>         0.1547
     60 H27        -4.9621   -5.7616    2.5938 H         1 <0>         0.1381
     61 H28        -6.2520   -5.7487    4.6632 H         1 <0>         0.1464
     62 H29        -9.6879   -7.2296    2.6346 H         1 <0>         0.1458
     63 H30        -4.1084   -6.4813   -1.7818 H         1 <0>         0.3807
     64 H31        -3.2825   -2.4224   -0.9716 H         1 <0>         0.4219
@<TRIPOS>BOND
     1    1    2 1
     2    1   35 1
     3    1   36 1
     4    1   37 1
     5    2    3 1
     6    2   38 1
     7    2   39 1
     8    3    4 1
     9    3   40 1
    10    3   41 1
    11    4    5 1
    12    4   42 1
    13    4   43 1
    14    5    6 1
    15    5   10 1
    16    5   64 1
    17    6    7 1
    18    6   44 1
    19    6   45 1
    20    7    8 1
    21    7   46 1
    22    7   47 1
    23    8    9 1
    24    8   48 1
    25    8   49 1
    26    9   50 1
    27    9   51 1
    28    9   52 1
    29   10   11 1
    30   10   53 1
    31   10   54 1
    32   11   12 1
    33   11   55 1
    34   11   56 1
    35   12   13 1
    36   12   14 1
    37   12   34 1
    38   14   25 ar
    39   14   15 ar
    40   15   16 ar
    41   15   57 1
    42   16   21 ar
    43   16   17 ar
    44   17   18 ar
    45   17   24 ar
    46   18   19 ar
    47   18   58 1
    48   19   20 ar
    49   19   23 1
    50   20   21 ar
    51   20   59 1
    52   21   22 1
    53   24   29 ar
    54   24   25 ar
    55   25   26 ar
    56   26   27 ar
    57   26   60 1
    58   27   28 ar
    59   27   61 1
    60   28   29 ar
    61   28   30 1
    62   29   62 1
    63   30   31 1
    64   30   32 1
    65   30   33 1
    66   34   63 1
@<TRIPOS>MOLECULE
ZINC01542393
   64    66     0     0     0
SMALL
USER_CHARGES

@<TRIPOS>ATOM
      1 C1         -4.5771    1.7197    1.2656 C.3       1 <0>        -0.1590
      2 C2         -4.4910    0.2364    1.6310 C.3       1 <0>        -0.1209
      3 C3         -3.7023   -0.5094    0.5529 C.3       1 <0>        -0.1492
      4 C4         -3.6161   -1.9927    0.9182 C.3       1 <0>        -0.0158
      5 N1         -2.8588   -2.7088   -0.1169 N.4       1 <0>        -0.3855
      6 C5         -1.4702   -2.2298   -0.1273 C.3       1 <0>        -0.0158
      7 C6         -0.7230   -2.8573   -1.3058 C.3       1 <0>        -0.1494
      8 C7          0.7406   -2.4123   -1.2769 C.3       1 <0>        -0.1210
      9 C8          1.4878   -3.0398   -2.4554 C.3       1 <0>        -0.1589
     10 C9         -2.8779   -4.1492    0.1707 C.3       1 <0>        -0.0117
     11 C10        -4.3105   -4.6736    0.0547 C.3       1 <0>        -0.1838
     12 C11        -4.3133   -6.1932    0.2324 C.3       1 <0>         0.1568
     13 H1         -3.6262   -6.6441   -0.4836 H         1 <0>         0.1249
     14 C12        -5.7040   -6.7240   -0.0032 C.ar      1 <0>        -0.1188
     15 C13        -6.5253   -6.9127    1.0497 C.ar      1 <0>        -0.0630
     16 C14        -7.8387   -7.4083    0.8813 C.ar      1 <0>        -0.0479
     17 C15        -8.3134   -7.7160   -0.4137 C.ar      1 <0>        -0.0058
     18 C16        -9.6102   -8.2062   -0.5786 C.ar      1 <0>        -0.0963
     19 C17       -10.4151   -8.3852    0.5241 C.ar      1 <0>        -0.0061
     20 C18        -9.9472   -8.0817    1.7984 C.ar      1 <0>        -0.0949
     21 C19        -8.6836   -7.6014    1.9849 C.ar      1 <0>        -0.0053
     22 Cl1        -8.1218   -7.2309    3.5852 Cl        1 <0>        -0.0380
     23 Cl2       -12.0280   -8.9945    0.3222 Cl        1 <0>        -0.0327
     24 C20        -7.4214   -7.5100   -1.5582 C.ar      1 <0>        -0.0382
     25 C21        -6.1213   -7.0077   -1.3240 C.ar      1 <0>        -0.0075
     26 C22        -5.2620   -6.8028   -2.4129 C.ar      1 <0>        -0.1162
     27 C23        -5.6913   -7.0846   -3.6765 C.ar      1 <0>        -0.0642
     28 C24        -6.9726   -7.5734   -3.9031 C.ar      1 <0>        -0.1682
     29 C25        -7.8297   -7.7940   -2.8628 C.ar      1 <0>        -0.0381
     30 C26        -7.4171   -7.8741   -5.3113 C.3       1 <0>         0.5062
     31 F1         -6.3772   -7.5831   -6.2007 F         1 <0>        -0.1733
     32 F2         -7.7543   -9.2279   -5.4148 F         1 <0>        -0.1705
     33 F3         -8.5325   -7.0903   -5.6255 F         1 <0>        -0.1720
     34 O1         -3.8982   -6.5183    1.5606 O.3       1 <0>        -0.5439
     35 H2         -5.1391    2.2510    2.0337 H         1 <0>         0.0671
     36 H3         -3.5721    2.1360    1.1973 H         1 <0>         0.0592
     37 H4         -5.0816    1.8287    0.3056 H         1 <0>         0.0593
     38 H5         -3.9865    0.1274    2.5911 H         1 <0>         0.0732
     39 H6         -5.4961   -0.1799    1.6994 H         1 <0>         0.0728
     40 H7         -4.2068   -0.4005   -0.4072 H         1 <0>         0.0862
     41 H8         -2.6972   -0.0931    0.4845 H         1 <0>         0.0871
     42 H9         -3.1116   -2.1017    1.8783 H         1 <0>         0.1311
     43 H10        -4.6212   -2.4090    0.9866 H         1 <0>         0.1307
     44 H11        -1.4609   -1.1445   -0.2276 H         1 <0>         0.1335
     45 H12        -0.9813   -2.5127    0.8050 H         1 <0>         0.1309
     46 H13        -0.7740   -3.9436   -1.2315 H         1 <0>         0.0863
     47 H14        -1.1823   -2.5351   -2.2403 H         1 <0>         0.0869
     48 H15         0.7916   -1.3261   -1.3512 H         1 <0>         0.0732
     49 H16         1.2000   -2.7346   -0.3424 H         1 <0>         0.0732
     50 H17         2.5304   -2.7228   -2.4349 H         1 <0>         0.0670
     51 H18         1.4367   -4.1261   -2.3811 H         1 <0>         0.0591
     52 H19         1.0284   -2.7176   -3.3899 H         1 <0>         0.0593
     53 H20        -2.2410   -4.6709   -0.5437 H         1 <0>         0.1355
     54 H21        -2.5081   -4.3228    1.1813 H         1 <0>         0.1387
     55 H22        -4.9285   -4.2163    0.8274 H         1 <0>         0.0967
     56 H23        -4.7111   -4.4219   -0.9272 H         1 <0>         0.1016
     57 H24        -6.1718   -6.6805    2.0435 H         1 <0>         0.1377
     58 H25        -9.9800   -8.4431   -1.5653 H         1 <0>         0.1505
     59 H26       -10.5928   -8.2282    2.6518 H         1 <0>         0.1547
     60 H27        -4.2640   -6.4228   -2.2517 H         1 <0>         0.1381
     61 H28        -5.0265   -6.9254   -4.5127 H         1 <0>         0.1465
     62 H29        -8.8226   -8.1755   -3.0496 H         1 <0>         0.1458
     63 H30        -4.4654   -6.1492    2.2514 H         1 <0>         0.3805
     64 H31        -3.2794   -2.5403   -1.0185 H         1 <0>         0.4216
@<TRIPOS>BOND
     1    1    2 1
     2    1   35 1
     3    1   36 1
     4    1   37 1
     5    2    3 1
     6    2   38 1
     7    2   39 1
     8    3    4 1
     9    3   40 1
    10    3   41 1
    11    4    5 1
    12    4   42 1
    13    4   43 1
    14    5    6 1
    15    5   10 1
    16    5   64 1
    17    6    7 1
    18    6   44 1
    19    6   45 1
    20    7    8 1
    21    7   46 1
    22    7   47 1
    23    8    9 1
    24    8   48 1
    25    8   49 1
    26    9   50 1
    27    9   51 1
    28    9   52 1
    29   10   11 1
    30   10   53 1
    31   10   54 1
    32   11   12 1
    33   11   55 1
    34   11   56 1
    35   12   13 1
    36   12   14 1
    37   12   34 1
    38   14   25 ar
    39   14   15 ar
    40   15   16 ar
    41   15   57 1
    42   16   21 ar
    43   16   17 ar
    44   17   18 ar
    45   17   24 ar
    46   18   19 ar
    47   18   58 1
    48   19   20 ar
    49   19   23 1
    50   20   21 ar
    51   20   59 1
    52   21   22 1
    53   24   29 ar
    54   24   25 ar
    55   25   26 ar
    56   26   27 ar
    57   26   60 1
    58   27   28 ar
    59   27   61 1
    60   28   29 ar
    61   28   30 1
    62   29   62 1
    63   30   31 1
    64   30   32 1
    65   30   33 1
    66   34   63 1
@<TRIPOS>MOLECULE
ZINC19796080
   50    53     0     0     0
SMALL
USER_CHARGES

@<TRIPOS>ATOM
      1 C1          1.1999   -4.3108    0.6033 C.ar      1 <0>        -0.1045
      2 C2          2.5727   -4.4705    0.6845 C.ar      1 <0>        -0.1087
      3 C3          3.4121   -3.3916    0.4876 C.ar      1 <0>        -0.1058
      4 C4          2.8775   -2.1434    0.2069 C.ar      1 <0>         0.0821
      5 C5          1.4929   -1.9824    0.1246 C.ar      1 <0>         0.0920
      6 C6          0.6582   -3.0714    0.3243 C.ar      1 <0>        -0.1043
      7 N1          1.2602   -0.6400   -0.1657 N.am      1 <0>        -0.6411
      8 H1          0.3903   -0.2272   -0.2826 H         1 <0>         0.4374
      9 C7          2.4482   -0.0129   -0.2558 C.2       1 <0>         0.6805
     10 O1          2.5995    1.1696   -0.4994 O.2       1 <0>        -0.5388
     11 N2          3.4433   -0.8928   -0.0361 N.am      1 <0>        -0.4782
     12 C8          4.8068   -0.6025   -0.0486 C.2       1 <0>         0.1066
     13 C9          5.1801    0.6473   -0.1413 C.2       1 <0>        -0.1957
     14 C10         6.6194    1.0744   -0.1715 C.3       1 <0>         0.0972
     15 N3          7.4817   -0.0094    0.3161 N.3       1 <0>        -0.5354
     16 C11         7.1733   -1.2631   -0.3915 C.3       1 <0>         0.0574
     17 C12         5.7857   -1.7388    0.0512 C.3       1 <0>        -0.0777
     18 C13         8.9009    0.3414    0.1713 C.3       1 <0>         0.0546
     19 C14         9.2330    1.5146    1.0955 C.3       1 <0>        -0.1100
     20 C15        10.7111    1.8800    0.9447 C.3       1 <0>        -0.1656
     21 C16        11.0383    3.0356    1.8550 C.2       1 <0>         0.3976
     22 O2         10.1744    3.5193    2.5554 O.2       1 <0>        -0.4447
     23 C17        12.4047    3.5766    1.8940 C.ar      1 <0>        -0.1839
     24 C18        13.4025    3.0245    1.0830 C.ar      1 <0>        -0.0433
     25 C19        14.6808    3.5361    1.1244 C.ar      1 <0>        -0.1671
     26 C20        14.9801    4.5958    1.9680 C.ar      1 <0>         0.1315
     27 C21        13.9956    5.1477    2.7746 C.ar      1 <0>        -0.1661
     28 C22        12.7118    4.6496    2.7382 C.ar      1 <0>        -0.0318
     29 F1         16.2360    5.0923    2.0046 F         1 <0>        -0.1320
     30 H2          0.5499   -5.1600    0.7544 H         1 <0>         0.1363
     31 H3          2.9889   -5.4428    0.9031 H         1 <0>         0.1365
     32 H4          4.4825   -3.5198    0.5524 H         1 <0>         0.1388
     33 H5         -0.4133   -2.9507    0.2617 H         1 <0>         0.1339
     34 H6          4.4166    1.4090   -0.1993 H         1 <0>         0.1534
     35 H7          6.8997    1.3264   -1.1943 H         1 <0>         0.0497
     36 H8          6.7489    1.9517    0.4622 H         1 <0>         0.0942
     37 H9          7.1779   -1.0872   -1.4672 H         1 <0>         0.0436
     38 H10         7.9166   -2.0191   -0.1381 H         1 <0>         0.0880
     39 H11         5.8307   -2.0892    1.0823 H         1 <0>         0.0922
     40 H12         5.4611   -2.5548   -0.5945 H         1 <0>         0.0852
     41 H13         9.5166   -0.5174    0.4387 H         1 <0>         0.0791
     42 H14         9.1015    0.6247   -0.8619 H         1 <0>         0.0377
     43 H15         8.6174    2.3734    0.8281 H         1 <0>         0.0709
     44 H16         9.0324    1.2313    2.1287 H         1 <0>         0.0801
     45 H17        11.3268    1.0212    1.2121 H         1 <0>         0.1024
     46 H18        10.9118    2.1633   -0.0885 H         1 <0>         0.1002
     47 H19        13.1710    2.1990    0.4263 H         1 <0>         0.1436
     48 H20        15.4518    3.1109    0.4990 H         1 <0>         0.1437
     49 H21        14.2351    5.9726    3.4292 H         1 <0>         0.1436
     50 H22        11.9452    5.0830    3.3634 H         1 <0>         0.1448
@<TRIPOS>BOND
     1    1    6 ar
     2    1    2 ar
     3    1   30 1
     4    2    3 ar
     5    2   31 1
     6    3    4 ar
     7    3   32 1
     8    4   11 1
     9    4    5 ar
    10    5    6 ar
    11    5    7 1
    12    6   33 1
    13    7    8 1
    14    7    9 am
    15    9   10 2
    16    9   11 am
    17   11   12 1
    18   12   17 1
    19   12   13 2
    20   13   14 1
    21   13   34 1
    22   14   15 1
    23   14   35 1
    24   14   36 1
    25   15   16 1
    26   15   18 1
    27   16   17 1
    28   16   37 1
    29   16   38 1
    30   17   39 1
    31   17   40 1
    32   18   19 1
    33   18   41 1
    34   18   42 1
    35   19   20 1
    36   19   43 1
    37   19   44 1
    38   20   21 1
    39   20   45 1
    40   20   46 1
    41   21   22 2
    42   21   23 1
    43   23   28 ar
    44   23   24 ar
    45   24   25 ar
    46   24   47 1
    47   25   26 ar
    48   25   48 1
    49   26   27 ar
    50   26   29 1
    51   27   28 ar
    52   27   49 1
    53   28   50 1
@<TRIPOS>MOLECULE
ZINC01540228
   51    54     0     0     0
SMALL
USER_CHARGES

@<TRIPOS>ATOM
      1 C1          0.4170    1.4732    0.0360 C.3       1 <0>        -0.0850
      2 C2          0.1935   -0.0170    0.0132 C.2       1 <0>        -0.1034
      3 C3          0.1739   -0.8345   -1.0823 C.2       1 <0>         0.0475
      4 N1         -0.0613   -2.1006   -0.6256 N.pl3     1 <0>        -0.2296
      5 N2         -0.1813   -2.0898    0.6532 N.2       1 <0>        -0.2348
      6 C4         -0.0338   -0.8645    1.1195 C.2       1 <0>        -0.0016
      7 C5         -0.0985   -0.4542    2.5368 C.2       1 <0>         0.6243
      8 O1          0.0512    0.7138    2.8390 O.2       1 <0>        -0.4953
      9 N3         -0.3236   -1.3747    3.4952 N.am      1 <0>        -0.5719
     10 N4         -0.3835   -0.9953    4.8060 N.3       1 <0>        -0.2924
     11 C6          0.7092   -1.5991    5.5791 C.3       1 <0>         0.0381
     12 C7          0.6976   -1.0401    7.0037 C.3       1 <0>        -0.1138
     13 C8         -0.6503   -1.3540    7.6589 C.3       1 <0>        -0.1252
     14 C9         -1.7740   -0.7554    6.8084 C.3       1 <0>        -0.1137
     15 C10        -1.6907   -1.3226    5.3895 C.3       1 <0>         0.0385
     16 C11        -0.1580   -3.2413   -1.4326 C.ar      1 <0>         0.1383
     17 C12        -0.9653   -3.2277   -2.5625 C.ar      1 <0>        -0.0784
     18 C13        -1.0587   -4.3534   -3.3568 C.ar      1 <0>        -0.0881
     19 C14        -0.3490   -5.4954   -3.0279 C.ar      1 <0>        -0.0132
     20 C15         0.4560   -5.5128   -1.9027 C.ar      1 <0>        -0.0912
     21 C16         0.5581   -4.3870   -1.1074 C.ar      1 <0>        -0.0121
     22 Cl1         1.5741   -4.4064    0.3001 Cl        1 <0>        -0.0235
     23 Cl2        -0.4696   -6.9086   -4.0289 Cl        1 <0>        -0.0385
     24 C17         0.3696   -0.4268   -2.4910 C.ar      1 <0>        -0.0243
     25 C18        -0.4173    0.5843   -3.0431 C.ar      1 <0>        -0.0792
     26 C19        -0.2304    0.9603   -4.3572 C.ar      1 <0>        -0.1055
     27 C20         0.7359    0.3363   -5.1279 C.ar      1 <0>        -0.0237
     28 C21         1.5198   -0.6678   -4.5852 C.ar      1 <0>        -0.1047
     29 C22         1.3457   -1.0481   -3.2706 C.ar      1 <0>        -0.0846
     30 Cl3         0.9651    0.8142   -6.7810 Cl        1 <0>        -0.0608
     31 H1          1.4830    1.6792    0.1325 H         1 <0>         0.0742
     32 H2          0.0448    1.9106   -0.8905 H         1 <0>         0.0668
     33 H3         -0.1151    1.9075    0.8823 H         1 <0>         0.0894
     34 H4         -0.4431   -2.3066    3.2541 H         1 <0>         0.3863
     35 H5          0.5763   -2.6805    5.6122 H         1 <0>         0.0400
     36 H6          1.6623   -1.3649    5.1049 H         1 <0>         0.0813
     37 H7          1.4991   -1.5002    7.5817 H         1 <0>         0.0737
     38 H8          0.8443    0.0395    6.9722 H         1 <0>         0.0774
     39 H9         -0.7801   -2.4342    7.7259 H         1 <0>         0.0604
     40 H10        -0.6793   -0.9200    8.6584 H         1 <0>         0.0702
     41 H11        -2.7384   -1.0119    7.2468 H         1 <0>         0.0741
     42 H12        -1.6662    0.3287    6.7738 H         1 <0>         0.0774
     43 H13        -2.4808   -0.8875    4.7774 H         1 <0>         0.0821
     44 H14        -1.8124   -2.4053    5.4234 H         1 <0>         0.0406
     45 H15        -1.5200   -2.3374   -2.8196 H         1 <0>         0.1511
     46 H16        -1.6865   -4.3429   -4.2355 H         1 <0>         0.1550
     47 H17         1.0081   -6.4054   -1.6480 H         1 <0>         0.1575
     48 H18        -1.1716    1.0715   -2.4430 H         1 <0>         0.1405
     49 H19        -0.8392    1.7427   -4.7858 H         1 <0>         0.1417
     50 H20         2.2721   -1.1511   -5.1910 H         1 <0>         0.1392
     51 H21         1.9607   -1.8283   -2.8471 H         1 <0>         0.1290
@<TRIPOS>BOND
     1    1    2 1
     2    1   31 1
     3    1   32 1
     4    1   33 1
     5    2    6 1
     6    2    3 2
     7    3    4 1
     8    3   24 1
     9    4    5 1
    10    4   16 1
    11    5    6 2
    12    6    7 1
    13    7    8 2
    14    7    9 am
    15    9   10 1
    16    9   34 1
    17   10   15 1
    18   10   11 1
    19   11   12 1
    20   11   35 1
    21   11   36 1
    22   12   13 1
    23   12   37 1
    24   12   38 1
    25   13   14 1
    26   13   39 1
    27   13   40 1
    28   14   15 1
    29   14   41 1
    30   14   42 1
    31   15   43 1
    32   15   44 1
    33   16   21 ar
    34   16   17 ar
    35   17   18 ar
    36   17   45 1
    37   18   19 ar
    38   18   46 1
    39   19   20 ar
    40   19   23 1
    41   20   21 ar
    42   20   47 1
    43   21   22 1
    44   24   29 ar
    45   24   25 ar
    46   25   26 ar
    47   25   48 1
    48   26   27 ar
    49   26   49 1
    50   27   28 ar
    51   27   30 1
    52   28   29 ar
    53   28   50 1
    54   29   51 1
@<TRIPOS>MOLECULE
ZINC13537284
   41    44     0     0     0
SMALL
USER_CHARGES

@<TRIPOS>ATOM
      1 C1         -0.0184    1.5028    0.0103 C.3       1 <0>        -0.1074
      2 C2          0.0021   -0.0041    0.0020 C.2       1 <0>         0.0729
      3 C3          0.0081   -0.8009   -1.0836 C.2       1 <0>         0.0067
      4 N1          0.0272   -2.0745   -0.6635 N.pl3     1 <0>        -0.4619
      5 C4          0.0333   -2.0972    0.6413 C.cat     1 <0>         0.3082
      6 N2          0.0241   -0.8258    1.0965 N.pl3     1 <0>        -0.5120
      7 H1          0.0299   -0.5470    2.0255 H         1 <0>         0.4650
      8 C5         -0.0046   -0.3419   -2.5190 C.3       1 <0>         0.1714
      9 N3          1.3486    0.0537   -2.9171 N.am      1 <0>        -0.6193
     10 C6          1.7630    1.4364   -2.7185 C.3       1 <0>         0.1135
     11 C7          3.2156    1.5553   -2.2571 C.3       1 <0>        -0.0758
     12 C8          4.0766    0.6665   -3.1201 C.2       1 <0>         0.1242
     13 C9          3.5653   -0.4837   -3.6832 C.2       1 <0>        -0.2492
     14 C10         4.6378   -1.0930   -4.4423 C.ar      1 <0>        -0.0510
     15 C11         4.7227   -2.2516   -5.2155 C.ar      1 <0>        -0.0707
     16 C12         5.9436   -2.5221   -5.8077 C.ar      1 <0>        -0.1300
     17 C13         7.0361   -1.6872   -5.6458 C.ar      1 <0>        -0.0985
     18 C14         6.9746   -0.5333   -4.8838 C.ar      1 <0>        -0.1175
     19 C15         5.7571   -0.2374   -4.2758 C.ar      1 <0>         0.0786
     20 N4          5.3710    0.8047   -3.4733 N.pl3     1 <0>        -0.4467
     21 C16         6.2392    1.9096   -3.0592 C.3       1 <0>         0.0636
     22 C17         2.1706   -0.8798   -3.4511 C.2       1 <0>         0.6060
     23 O1          1.7715   -1.9949   -3.7298 O.2       1 <0>        -0.5289
     24 H2          1.0042    1.8801    0.0026 H         1 <0>         0.1036
     25 H3         -0.5455    1.8639   -0.8728 H         1 <0>         0.1092
     26 H4         -0.5286    1.8543    0.9071 H         1 <0>         0.0982
     27 H5          0.0476   -2.9856    1.2553 H         1 <0>         0.2673
     28 H6         -0.3479   -1.1558   -3.1577 H         1 <0>         0.1191
     29 H7         -0.6772    0.5095   -2.6223 H         1 <0>         0.1263
     30 H8          1.6465    1.9773   -3.6576 H         1 <0>         0.0824
     31 H9          1.1170    1.8933   -1.9689 H         1 <0>         0.0965
     32 H10         3.5460    2.5894   -2.3543 H         1 <0>         0.1072
     33 H11         3.2949    1.2412   -1.2164 H         1 <0>         0.0935
     34 H12         3.8744   -2.9072   -5.3454 H         1 <0>         0.1367
     35 H13         6.0474   -3.4102   -6.4134 H         1 <0>         0.1265
     36 H14         7.9665   -1.9444   -6.1301 H         1 <0>         0.1290
     37 H15         7.8342    0.1096   -4.7652 H         1 <0>         0.1321
     38 H16         6.7383    1.6495   -2.1258 H         1 <0>         0.0804
     39 H17         6.9861    2.0939   -3.8315 H         1 <0>         0.0931
     40 H18         5.6393    2.8077   -2.9124 H         1 <0>         0.0896
     41 H19         0.0350   -2.8555   -1.2387 H         1 <0>         0.4680
@<TRIPOS>BOND
     1    1    2 1
     2    1   24 1
     3    1   25 1
     4    1   26 1
     5    2    6 1
     6    2    3 2
     7    3    4 1
     8    3    8 1
     9    4    5 2
    10    4   41 1
    11    5    6 1
    12    5   27 1
    13    6    7 1
    14    8    9 1
    15    8   28 1
    16    8   29 1
    17    9   22 am
    18    9   10 1
    19   10   11 1
    20   10   30 1
    21   10   31 1
    22   11   12 1
    23   11   32 1
    24   11   33 1
    25   12   20 1
    26   12   13 2
    27   13   14 1
    28   13   22 1
    29   14   19 ar
    30   14   15 ar
    31   15   16 ar
    32   15   34 1
    33   16   17 ar
    34   16   35 1
    35   17   18 ar
    36   17   36 1
    37   18   19 ar
    38   18   37 1
    39   19   20 1
    40   20   21 1
    41   21   38 1
    42   21   39 1
    43   21   40 1
    44   22   23 2
@<TRIPOS>MOLECULE
ZINC13537284
   41    44     0     0     0
SMALL
USER_CHARGES

@<TRIPOS>ATOM
      1 C1         -0.0184    1.5028    0.0103 C.3       1 <0>        -0.1071
      2 C2          0.0021   -0.0041    0.0020 C.2       1 <0>         0.0427
      3 C3          0.0078   -0.7894   -1.0919 C.2       1 <0>         0.0370
      4 N1          0.0283   -2.0846   -0.6496 N.pl3     1 <0>        -0.4973
      5 H1          0.0368   -2.8816   -1.2024 H         1 <0>         0.4684
      6 C4          0.0343   -2.0456    0.7003 C.cat     1 <0>         0.3079
      7 N2          0.0236   -0.7980    1.0829 N.pl3     1 <0>        -0.4758
      8 C5         -0.0061   -0.3305   -2.5273 C.3       1 <0>         0.1714
      9 N3          1.3466    0.0662   -2.9263 N.am      1 <0>        -0.6190
     10 C6          1.7599    1.4493   -2.7279 C.3       1 <0>         0.1136
     11 C7          3.2127    1.5693   -2.2674 C.3       1 <0>        -0.0757
     12 C8          4.0739    0.6813   -3.1309 C.2       1 <0>         0.1240
     13 C9          3.5632   -0.4694   -3.6937 C.2       1 <0>        -0.2489
     14 C10         4.6357   -1.0778   -4.4535 C.ar      1 <0>        -0.0511
     15 C11         4.7211   -2.2363   -5.2267 C.ar      1 <0>        -0.0707
     16 C12         5.9419   -2.5058   -5.8197 C.ar      1 <0>        -0.1301
     17 C13         7.0338   -1.6700   -5.6585 C.ar      1 <0>        -0.0985
     18 C14         6.9718   -0.5162   -4.8964 C.ar      1 <0>        -0.1175
     19 C15         5.7544   -0.2212   -4.2877 C.ar      1 <0>         0.0786
     20 N4          5.3680    0.8205   -3.4849 N.pl3     1 <0>        -0.4468
     21 C16         6.2356    1.9262   -3.0714 C.3       1 <0>         0.0637
     22 C17         2.1690   -0.8666   -3.4608 C.2       1 <0>         0.6059
     23 O1          1.7706   -1.9821   -3.7392 O.2       1 <0>        -0.5279
     24 H2          1.0042    1.8801    0.0026 H         1 <0>         0.1016
     25 H3         -0.5455    1.8639   -0.8728 H         1 <0>         0.1077
     26 H4         -0.5286    1.8543    0.9071 H         1 <0>         0.0969
     27 H5          0.0496   -2.9046    1.3548 H         1 <0>         0.2673
     28 H6         -0.3491   -1.1447   -3.1657 H         1 <0>         0.1200
     29 H7         -0.6795    0.5204   -2.6302 H         1 <0>         0.1276
     30 H8          1.6424    1.9900   -3.6670 H         1 <0>         0.0825
     31 H9          1.1140    1.9057   -1.9779 H         1 <0>         0.0967
     32 H10         3.5422    2.6037   -2.3648 H         1 <0>         0.1073
     33 H11         3.2929    1.2553   -1.2267 H         1 <0>         0.0935
     34 H12         3.8733   -2.8926   -5.3561 H         1 <0>         0.1367
     35 H13         6.0460   -3.3939   -6.4254 H         1 <0>         0.1265
     36 H14         7.9641   -1.9264   -6.1434 H         1 <0>         0.1290
     37 H15         7.8309    0.1275   -4.7784 H         1 <0>         0.1321
     38 H16         6.7354    1.6664   -2.1383 H         1 <0>         0.0804
     39 H17         6.9818    2.1110   -3.8441 H         1 <0>         0.0931
     40 H18         5.6350    2.8238   -2.9242 H         1 <0>         0.0896
     41 H19         0.0285   -0.4929    2.0036 H         1 <0>         0.4646
@<TRIPOS>BOND
     1    1    2 1
     2    1   24 1
     3    1   25 1
     4    1   26 1
     5    2    7 1
     6    2    3 2
     7    3    4 1
     8    3    8 1
     9    4    5 1
    10    4    6 1
    11    6    7 2
    12    6   27 1
    13    7   41 1
    14    8    9 1
    15    8   28 1
    16    8   29 1
    17    9   22 am
    18    9   10 1
    19   10   11 1
    20   10   30 1
    21   10   31 1
    22   11   12 1
    23   11   32 1
    24   11   33 1
    25   12   20 1
    26   12   13 2
    27   13   14 1
    28   13   22 1
    29   14   19 ar
    30   14   15 ar
    31   15   16 ar
    32   15   34 1
    33   16   17 ar
    34   16   35 1
    35   17   18 ar
    36   17   36 1
    37   18   19 ar
    38   18   37 1
    39   19   20 1
    40   20   21 1
    41   21   38 1
    42   21   39 1
    43   21   40 1
    44   22   23 2
@<TRIPOS>MOLECULE
ZINC13537284
   40    43     0     0     0
SMALL
USER_CHARGES

@<TRIPOS>ATOM
      1 C1         -0.0184    1.5028    0.0103 C.3       1 <0>        -0.0723
      2 C2          0.0021   -0.0041    0.0020 C.2       1 <0>         0.0146
      3 C3          0.0078   -0.7894   -1.0919 C.2       1 <0>        -0.0458
      4 N1          0.0283   -2.0846   -0.6496 N.pl3     1 <0>        -0.5564
      5 C4          0.0343   -2.0456    0.7003 C.2       1 <0>         0.1929
      6 N2          0.0236   -0.7980    1.0829 N.2       1 <0>        -0.4931
      7 C5         -0.0061   -0.3305   -2.5273 C.3       1 <0>         0.1874
      8 N3          1.3466    0.0662   -2.9263 N.am      1 <0>        -0.6121
      9 C6          1.7599    1.4493   -2.7279 C.3       1 <0>         0.1170
     10 C7          3.2127    1.5693   -2.2674 C.3       1 <0>        -0.0758
     11 C8          4.0739    0.6813   -3.1309 C.2       1 <0>         0.1249
     12 C9          3.5632   -0.4694   -3.6937 C.2       1 <0>        -0.2405
     13 C10         4.6357   -1.0778   -4.4535 C.ar      1 <0>        -0.0512
     14 C11         4.7211   -2.2363   -5.2267 C.ar      1 <0>        -0.0663
     15 C12         5.9419   -2.5058   -5.8197 C.ar      1 <0>        -0.1379
     16 C13         7.0338   -1.6700   -5.6585 C.ar      1 <0>        -0.1034
     17 C14         6.9718   -0.5162   -4.8964 C.ar      1 <0>        -0.1214
     18 C15         5.7544   -0.2212   -4.2877 C.ar      1 <0>         0.0798
     19 N4          5.3680    0.8205   -3.4849 N.pl3     1 <0>        -0.4528
     20 C16         6.2356    1.9262   -3.0714 C.3       1 <0>         0.0673
     21 C17         2.1690   -0.8666   -3.4608 C.2       1 <0>         0.6033
     22 O1          1.7706   -1.9821   -3.7392 O.2       1 <0>        -0.5357
     23 H1          1.0042    1.8801    0.0026 H         1 <0>         0.0677
     24 H2         -0.5455    1.8639   -0.8728 H         1 <0>         0.0686
     25 H3         -0.5286    1.8543    0.9071 H         1 <0>         0.0737
     26 H4          0.0496   -2.9046    1.3548 H         1 <0>         0.2086
     27 H5         -0.3491   -1.1447   -3.1657 H         1 <0>         0.0951
     28 H6         -0.6795    0.5204   -2.6302 H         1 <0>         0.1035
     29 H7          1.6424    1.9900   -3.6670 H         1 <0>         0.0713
     30 H8          1.1140    1.9057   -1.9779 H         1 <0>         0.1003
     31 H9          3.5422    2.6037   -2.3648 H         1 <0>         0.1009
     32 H10         3.2929    1.2553   -1.2267 H         1 <0>         0.0981
     33 H11         3.8733   -2.8926   -5.3561 H         1 <0>         0.1363
     34 H12         6.0460   -3.3939   -6.4254 H         1 <0>         0.1228
     35 H13         7.9641   -1.9264   -6.1434 H         1 <0>         0.1245
     36 H14         7.8309    0.1275   -4.7784 H         1 <0>         0.1287
     37 H15         6.7354    1.6664   -2.1383 H         1 <0>         0.0778
     38 H16         6.9818    2.1110   -3.8441 H         1 <0>         0.0888
     39 H17         5.6350    2.8238   -2.9242 H         1 <0>         0.0883
     40 H18         0.0368   -2.8816   -1.2024 H         1 <0>         0.4230
@<TRIPOS>BOND
     1    1    2 1
     2    1   23 1
     3    1   24 1
     4    1   25 1
     5    2    6 1
     6    2    3 2
     7    3    4 1
     8    3    7 1
     9    4    5 1
    10    4   40 1
    11    5    6 2
    12    5   26 1
    13    7    8 1
    14    7   27 1
    15    7   28 1
    16    8   21 am
    17    8    9 1
    18    9   10 1
    19    9   29 1
    20    9   30 1
    21   10   11 1
    22   10   31 1
    23   10   32 1
    24   11   19 1
    25   11   12 2
    26   12   13 1
    27   12   21 1
    28   13   18 ar
    29   13   14 ar
    30   14   15 ar
    31   14   33 1
    32   15   16 ar
    33   15   34 1
    34   16   17 ar
    35   16   35 1
    36   17   18 ar
    37   17   36 1
    38   18   19 1
    39   19   20 1
    40   20   37 1
    41   20   38 1
    42   20   39 1
    43   21   22 2
@<TRIPOS>MOLECULE
ZINC13537284
   40    43     0     0     0
SMALL
USER_CHARGES

@<TRIPOS>ATOM
      1 C1         -0.0184    1.5028    0.0103 C.3       1 <0>        -0.0814
      2 C2          0.0021   -0.0041    0.0020 C.2       1 <0>        -0.0178
      3 C3          0.0081   -0.8009   -1.0836 C.2       1 <0>        -0.0130
      4 N1          0.0272   -2.0745   -0.6635 N.2       1 <0>        -0.4675
      5 C4          0.0333   -2.0972    0.6413 C.2       1 <0>         0.1831
      6 N2          0.0241   -0.8258    1.0965 N.pl3     1 <0>        -0.5691
      7 C5         -0.0046   -0.3419   -2.5190 C.3       1 <0>         0.1961
      8 N3          1.3724   -0.1745   -2.9903 N.am      1 <0>        -0.6148
      9 C6          2.0196    1.1200   -2.8219 C.3       1 <0>         0.1242
     10 C7          3.4943    0.9956   -2.4385 C.3       1 <0>        -0.0729
     11 C8          4.1495   -0.0208   -3.3404 C.2       1 <0>         0.1159
     12 C9          3.4259   -1.0689   -3.8691 C.2       1 <0>        -0.2311
     13 C10         4.3411   -1.8450   -4.6801 C.ar      1 <0>        -0.0526
     14 C11         4.1922   -2.9993   -5.4499 C.ar      1 <0>        -0.0630
     15 C12         5.3184   -3.4664   -6.1041 C.ar      1 <0>        -0.1400
     16 C13         6.5410   -2.8242   -6.0050 C.ar      1 <0>        -0.1031
     17 C14         6.7116   -1.6783   -5.2476 C.ar      1 <0>        -0.1242
     18 C15         5.5937   -1.1868   -4.5780 C.ar      1 <0>         0.0806
     19 N4          5.4284   -0.0976   -3.7623 N.pl3     1 <0>        -0.4549
     20 C16         6.4881    0.8473   -3.4011 C.3       1 <0>         0.0690
     21 C17         1.9992   -1.2295   -3.5614 C.2       1 <0>         0.6001
     22 O1          1.4070   -2.2624   -3.8121 O.2       1 <0>        -0.5154
     23 H1          1.0042    1.8801    0.0026 H         1 <0>         0.0729
     24 H2         -0.5455    1.8639   -0.8728 H         1 <0>         0.0836
     25 H3         -0.5286    1.8543    0.9071 H         1 <0>         0.0675
     26 H4          0.0476   -2.9856    1.2553 H         1 <0>         0.2078
     27 H5         -0.5111   -1.0859   -3.1339 H         1 <0>         0.1009
     28 H6         -0.5317    0.6093   -2.5917 H         1 <0>         0.0891
     29 H7          1.9446    1.6755   -3.7567 H         1 <0>         0.0690
     30 H8          1.4987    1.6754   -2.0419 H         1 <0>         0.0906
     31 H9          3.9855    1.9611   -2.5591 H         1 <0>         0.0975
     32 H10         3.5756    0.6697   -1.4016 H         1 <0>         0.0932
     33 H11         3.2415   -3.5052   -5.5310 H         1 <0>         0.1379
     34 H12         5.2417   -4.3577   -6.7092 H         1 <0>         0.1225
     35 H13         7.3890   -3.2303   -6.5362 H         1 <0>         0.1235
     36 H14         7.6707   -1.1868   -5.1783 H         1 <0>         0.1273
     37 H15         6.9860    0.5053   -2.4938 H         1 <0>         0.0758
     38 H16         7.2131    0.9077   -4.2127 H         1 <0>         0.0879
     39 H17         6.0535    1.8318   -3.2281 H         1 <0>         0.0866
     40 H18         0.0299   -0.5470    2.0255 H         1 <0>         0.4184
@<TRIPOS>BOND
     1    1    2 1
     2    1   23 1
     3    1   24 1
     4    1   25 1
     5    2    6 1
     6    2    3 2
     7    3    4 1
     8    3    7 1
     9    4    5 2
    10    5    6 1
    11    5   26 1
    12    6   40 1
    13    7    8 1
    14    7   27 1
    15    7   28 1
    16    8   21 am
    17    8    9 1
    18    9   10 1
    19    9   29 1
    20    9   30 1
    21   10   11 1
    22   10   31 1
    23   10   32 1
    24   11   19 1
    25   11   12 2
    26   12   13 1
    27   12   21 1
    28   13   18 ar
    29   13   14 ar
    30   14   15 ar
    31   14   33 1
    32   15   16 ar
    33   15   34 1
    34   16   17 ar
    35   16   35 1
    36   17   18 ar
    37   17   36 1
    38   18   19 1
    39   19   20 1
    40   20   37 1
    41   20   38 1
    42   20   39 1
    43   21   22 2
@<TRIPOS>MOLECULE
ZINC01851149
   58    61     0     0     0
SMALL
USER_CHARGES

@<TRIPOS>ATOM
      1 C1         -0.0167    1.3781    0.0096 C.ar      1 <0>        -0.0896
      2 C2          1.1690    2.0873    0.0021 C.ar      1 <0>        -0.1006
      3 C3          2.3816    1.4109   -0.0131 C.ar      1 <0>         0.1668
      4 C4          2.3986    0.0211   -0.0208 C.ar      1 <0>        -0.0379
      5 C5          1.2084   -0.6828   -0.0132 C.ar      1 <0>        -0.0271
      6 C6          0.0021   -0.0041    0.0020 C.ar      1 <0>        -0.0892
      7 Cl1         1.2271   -2.4187   -0.0233 Cl        1 <0>        -0.0322
      8 Cl2         3.9117   -0.8297   -0.0404 Cl        1 <0>        -0.0503
      9 N1          3.5822    2.1260   -0.0212 N.pl3     1 <0>        -0.6733
     10 C7          4.2166    2.5248   -1.2872 C.3       1 <0>         0.1212
     11 C8          5.6874    2.0967   -1.2494 C.3       1 <0>        -0.0255
     12 N2          6.3270    2.6517   -0.0498 N.4       1 <0>        -0.3792
     13 C9          5.7166    2.0749    1.1547 C.3       1 <0>        -0.0318
     14 C10         4.2444    2.5067    1.2361 C.3       1 <0>         0.1223
     15 C11         7.7610    2.3338   -0.0701 C.3       1 <0>        -0.0093
     16 C12         8.4515    3.0158    1.1127 C.3       1 <0>        -0.1453
     17 C13         9.9450    2.6847    1.0915 C.3       1 <0>        -0.1184
     18 C14        10.6355    3.3667    2.2743 C.3       1 <0>         0.0595
     19 O1         12.0305    3.0574    2.2545 O.3       1 <0>        -0.3124
     20 C15        12.7944    3.5890    3.2448 C.ar      1 <0>         0.1559
     21 C16        12.2111    4.3876    4.2189 C.ar      1 <0>        -0.2294
     22 C17        12.9865    4.9295    5.2261 C.ar      1 <0>        -0.0411
     23 C18        14.3441    4.6777    5.2669 C.ar      1 <0>        -0.1551
     24 C19        14.9331    3.8788    4.2952 C.ar      1 <0>         0.2059
     25 C20        14.1552    3.3295    3.2858 C.ar      1 <0>        -0.1852
     26 N3         16.3074    3.6248    4.3397 N.am      1 <0>        -0.6651
     27 C21        17.0003    3.8176    5.4770 C.2       1 <0>         0.5216
     28 O2         18.1945    3.6066    5.4945 O.2       1 <0>        -0.5157
     29 C22        16.3105    4.2925    6.7275 C.3       1 <0>        -0.1402
     30 C23        15.1900    5.2680    6.3653 C.3       1 <0>        -0.0752
     31 H1         -0.9596    1.9044    0.0260 H         1 <0>         0.1477
     32 H2          1.1527    3.1672    0.0077 H         1 <0>         0.1420
     33 H3         -0.9265   -0.5556    0.0083 H         1 <0>         0.1502
     34 H4          3.7134    2.0333   -2.1198 H         1 <0>         0.1171
     35 H5          4.1529    3.6066   -1.4040 H         1 <0>         0.0851
     36 H6          5.7487    1.0088   -1.2236 H         1 <0>         0.1293
     37 H7          6.1971    2.4687   -2.1381 H         1 <0>         0.1401
     38 H8          5.7771    0.9876    1.1077 H         1 <0>         0.1300
     39 H9          6.2479    2.4307    2.0374 H         1 <0>         0.1398
     40 H10         4.1834    3.5868    1.3697 H         1 <0>         0.0853
     41 H11         3.7595    2.0032    2.0724 H         1 <0>         0.1165
     42 H12         7.8950    1.2546    0.0040 H         1 <0>         0.1305
     43 H13         8.1993    2.6912   -1.0020 H         1 <0>         0.1352
     44 H14         8.3175    4.0950    1.0386 H         1 <0>         0.0923
     45 H15         8.0132    2.6584    2.0445 H         1 <0>         0.0907
     46 H16        10.0790    1.6055    1.1656 H         1 <0>         0.0866
     47 H17        10.3833    3.0420    0.1597 H         1 <0>         0.0875
     48 H18        10.5015    4.4459    2.2002 H         1 <0>         0.0675
     49 H19        10.1972    3.0093    3.2062 H         1 <0>         0.0669
     50 H20        11.1499    4.5859    4.1893 H         1 <0>         0.1286
     51 H21        12.5305    5.5511    5.9824 H         1 <0>         0.1354
     52 H22        14.6099    2.7045    2.5314 H         1 <0>         0.1380
     53 H23        16.7645    3.3072    3.5453 H         1 <0>         0.4136
     54 H24        15.8894    3.4371    7.2558 H         1 <0>         0.1060
     55 H25        17.0331    4.7940    7.3713 H         1 <0>         0.1134
     56 H26        15.6229    6.2086    6.0246 H         1 <0>         0.0845
     57 H27        14.5699    5.4506    7.2429 H         1 <0>         0.0936
     58 H28         6.2073    3.6535   -0.0392 H         1 <0>         0.4226
@<TRIPOS>BOND
     1    1    6 ar
     2    1    2 ar
     3    1   31 1
     4    2    3 ar
     5    2   32 1
     6    3    4 ar
     7    3    9 1
     8    4    5 ar
     9    4    8 1
    10    5    6 ar
    11    5    7 1
    12    6   33 1
    13    9   14 1
    14    9   10 1
    15   10   11 1
    16   10   34 1
    17   10   35 1
    18   11   12 1
    19   11   36 1
    20   11   37 1
    21   12   13 1
    22   12   15 1
    23   12   58 1
    24   13   14 1
    25   13   38 1
    26   13   39 1
    27   14   40 1
    28   14   41 1
    29   15   16 1
    30   15   42 1
    31   15   43 1
    32   16   17 1
    33   16   44 1
    34   16   45 1
    35   17   18 1
    36   17   46 1
    37   17   47 1
    38   18   19 1
    39   18   48 1
    40   18   49 1
    41   19   20 1
    42   20   25 ar
    43   20   21 ar
    44   21   22 ar
    45   21   50 1
    46   22   23 ar
    47   22   51 1
    48   23   30 1
    49   23   24 ar
    50   24   25 ar
    51   24   26 1
    52   25   52 1
    53   26   27 am
    54   26   53 1
    55   27   28 2
    56   27   29 1
    57   29   30 1
    58   29   54 1
    59   29   55 1
    60   30   56 1
    61   30   57 1
@<TRIPOS>MOLECULE
ZINC01851149
   57    60     0     0     0
SMALL
USER_CHARGES

@<TRIPOS>ATOM
      1 C1         -0.0167    1.3781    0.0096 C.ar      1 <0>        -0.0962
      2 C2          1.1690    2.0873    0.0021 C.ar      1 <0>        -0.1094
      3 C3          2.3816    1.4109   -0.0131 C.ar      1 <0>         0.1932
      4 C4          2.3986    0.0211   -0.0208 C.ar      1 <0>        -0.0428
      5 C5          1.2084   -0.6828   -0.0132 C.ar      1 <0>        -0.0286
      6 C6          0.0021   -0.0041    0.0020 C.ar      1 <0>        -0.1045
      7 Cl1         1.2271   -2.4187   -0.0233 Cl        1 <0>        -0.0488
      8 Cl2         3.9117   -0.8297   -0.0404 Cl        1 <0>        -0.0433
      9 N1          3.5822    2.1260   -0.0212 N.pl3     1 <0>        -0.6753
     10 C7          4.2154    2.5239   -1.2877 C.3       1 <0>         0.1522
     11 C8          5.6814    2.0786   -1.2601 C.3       1 <0>         0.0390
     12 N2          6.3271    2.6054   -0.0504 N.3       1 <0>        -0.5335
     13 C9          5.7110    2.0562    1.1648 C.3       1 <0>         0.0352
     14 C10         4.2431    2.5059    1.2366 C.3       1 <0>         0.1520
     15 C11         7.7731    2.3471   -0.0705 C.3       1 <0>         0.0570
     16 C12         8.4448    3.1181    1.0676 C.3       1 <0>        -0.1122
     17 C13         9.9508    2.8491    1.0467 C.3       1 <0>        -0.1185
     18 C14        10.6225    3.6201    2.1847 C.3       1 <0>         0.0609
     19 O1         12.0291    3.3688    2.1652 O.3       1 <0>        -0.3131
     20 C15        12.7788    3.9828    3.1179 C.ar      1 <0>         0.1632
     21 C16        12.1712    4.8060    4.0560 C.ar      1 <0>        -0.2281
     22 C17        12.9321    5.4316    5.0250 C.ar      1 <0>        -0.0412
     23 C18        14.2995    5.2392    5.0634 C.ar      1 <0>        -0.1625
     24 C19        14.9129    4.4161    4.1277 C.ar      1 <0>         0.2001
     25 C20        14.1497    3.7829    3.1569 C.ar      1 <0>        -0.1880
     26 N3         16.2971    4.2225    4.1697 N.am      1 <0>        -0.6633
     27 C21        16.9915    4.5031    5.2876 C.2       1 <0>         0.5225
     28 O2         18.1937    4.3433    5.3024 O.2       1 <0>        -0.5237
     29 C22        16.2937    5.0132    6.5196 C.3       1 <0>        -0.1395
     30 C23        15.1296    5.9209    6.1201 C.3       1 <0>        -0.0723
     31 H1         -0.9596    1.9044    0.0260 H         1 <0>         0.1404
     32 H2          1.1527    3.1672    0.0077 H         1 <0>         0.1387
     33 H3         -0.9265   -0.5556    0.0083 H         1 <0>         0.1426
     34 H4          3.7022    2.0431   -2.1205 H         1 <0>         0.0715
     35 H5          4.1638    3.6071   -1.3984 H         1 <0>         0.0629
     36 H6          5.7306    0.9897   -1.2538 H         1 <0>         0.0403
     37 H7          6.1944    2.4613   -2.1423 H         1 <0>         0.0804
     38 H8          5.7599    0.9676    1.1373 H         1 <0>         0.0406
     39 H9          6.2457    2.4226    2.0412 H         1 <0>         0.0819
     40 H10         4.1941    3.5874    1.3639 H         1 <0>         0.0629
     41 H11         3.7483    2.0131    2.0736 H         1 <0>         0.0709
     42 H12         7.9533    1.2798    0.0578 H         1 <0>         0.0339
     43 H13         8.1873    2.6734   -1.0245 H         1 <0>         0.0769
     44 H14         8.2646    4.1855    0.9393 H         1 <0>         0.0762
     45 H15         8.0306    2.7918    2.0216 H         1 <0>         0.0660
     46 H16        10.1310    1.7817    1.1750 H         1 <0>         0.0732
     47 H17        10.3650    3.1754    0.0927 H         1 <0>         0.0761
     48 H18        10.4423    4.6874    2.0565 H         1 <0>         0.0659
     49 H19        10.2083    3.2938    3.1387 H         1 <0>         0.0641
     50 H20        11.1023    4.9580    4.0282 H         1 <0>         0.1320
     51 H21        12.4571    6.0722    5.7533 H         1 <0>         0.1337
     52 H22        14.6236    3.1389    2.4308 H         1 <0>         0.1367
     53 H23        16.7599    3.8832    3.3877 H         1 <0>         0.4126
     54 H24        15.9140    4.1697    7.0961 H         1 <0>         0.1050
     55 H25        17.0002    5.5774    7.1284 H         1 <0>         0.1106
     56 H26        15.5192    6.8597    5.7264 H         1 <0>         0.0818
     57 H27        14.5104    6.1229    6.9941 H         1 <0>         0.0917
@<TRIPOS>BOND
     1    1    6 ar
     2    1    2 ar
     3    1   31 1
     4    2    3 ar
     5    2   32 1
     6    3    4 ar
     7    3    9 1
     8    4    5 ar
     9    4    8 1
    10    5    6 ar
    11    5    7 1
    12    6   33 1
    13    9   14 1
    14    9   10 1
    15   10   11 1
    16   10   34 1
    17   10   35 1
    18   11   12 1
    19   11   36 1
    20   11   37 1
    21   12   13 1
    22   12   15 1
    23   13   14 1
    24   13   38 1
    25   13   39 1
    26   14   40 1
    27   14   41 1
    28   15   16 1
    29   15   42 1
    30   15   43 1
    31   16   17 1
    32   16   44 1
    33   16   45 1
    34   17   18 1
    35   17   46 1
    36   17   47 1
    37   18   19 1
    38   18   48 1
    39   18   49 1
    40   19   20 1
    41   20   25 ar
    42   20   21 ar
    43   21   22 ar
    44   21   50 1
    45   22   23 ar
    46   22   51 1
    47   23   30 1
    48   23   24 ar
    49   24   25 ar
    50   24   26 1
    51   25   52 1
    52   26   27 am
    53   26   53 1
    54   27   28 2
    55   27   29 1
    56   29   30 1
    57   29   54 1
    58   29   55 1
    59   30   56 1
    60   30   57 1
@<TRIPOS>MOLECULE
ZINC00001084
   24    25     0     0     0
SMALL
USER_CHARGES

@<TRIPOS>ATOM
      1 C1         -0.0178    1.4608    0.0101 C.3       1 <0>         0.0684
      2 N1          0.0021   -0.0041    0.0020 N.pl3     1 <0>        -0.4126
      3 C2          0.0085   -0.7996   -1.0853 C.2       1 <0>         0.2683
      4 N2          0.0275   -2.0544   -0.7142 N.2       1 <0>        -0.4991
      5 C3          0.0343   -2.1318    0.6190 C.2       1 <0>         0.3175
      6 C4          0.0238   -0.8312    1.1071 C.2       1 <0>        -0.1559
      7 C5          0.0338   -0.6202    2.5028 C.2       1 <0>         0.5949
      8 O1          0.0219    0.5106    2.9550 O.2       1 <0>        -0.5132
      9 N3          0.0564   -1.6860    3.3300 N.am      1 <0>        -0.5520
     10 C6          0.0693   -2.9392    2.8440 C.2       1 <0>         0.7070
     11 O2          0.0891   -3.8755    3.6197 O.2       1 <0>        -0.5319
     12 N4          0.0527   -3.1841    1.5201 N.am      1 <0>        -0.5109
     13 C7          0.0693   -4.5651    1.0316 C.3       1 <0>         0.0891
     14 C8          0.0674   -1.4741    4.7795 C.3       1 <0>         0.0836
     15 H1          1.0048    1.8381    0.0023 H         1 <0>         0.0879
     16 H2         -0.5450    1.8219   -0.8730 H         1 <0>         0.0987
     17 H3         -0.5280    1.8123    0.9069 H         1 <0>         0.1006
     18 H4         -0.0012   -0.4540   -2.1085 H         1 <0>         0.2318
     19 H5          1.1010   -4.8936    0.9058 H         1 <0>         0.0732
     20 H6         -0.4324   -5.2114    1.7518 H         1 <0>         0.0936
     21 H7         -0.4482   -4.6180    0.0738 H         1 <0>         0.0925
     22 H8         -0.9574   -1.4357    5.1489 H         1 <0>         0.0769
     23 H9          0.5971   -2.2951    5.2627 H         1 <0>         0.0968
     24 H10         0.5705   -0.5340    5.0055 H         1 <0>         0.0949
@<TRIPOS>BOND
     1    1    2 1
     2    1   15 1
     3    1   16 1
     4    1   17 1
     5    2    6 1
     6    2    3 1
     7    3    4 2
     8    3   18 1
     9    4    5 1
    10    5   12 1
    11    5    6 2
    12    6    7 1
    13    7    8 2
    14    7    9 am
    15    9   10 am
    16    9   14 1
    17   10   11 2
    18   10   12 am
    19   12   13 1
    20   13   19 1
    21   13   20 1
    22   13   21 1
    23   14   22 1
    24   14   23 1
    25   14   24 1
@<TRIPOS>MOLECULE
ZINC45315721
   70    72     0     0     0
SMALL
USER_CHARGES

@<TRIPOS>ATOM
      1 C1         -0.0187    1.5258    0.0104 C.3       1 <0>        -0.1539
      2 C2          0.0021   -0.0041    0.0020 C.3       1 <0>         0.0597
      3 O1          0.6932   -0.4774    1.1597 O.3       1 <0>        -0.3538
      4 C3          0.8006   -1.8076    1.3039 C.2       1 <0>         0.4586
      5 O2          0.3237   -2.5457    0.4746 O.2       1 <0>        -0.5045
      6 C4          1.5162   -2.3806    2.5000 C.3       1 <0>        -0.1103
      7 C5          1.4962   -3.9085    2.4227 C.3       1 <0>        -0.0706
      8 C6          2.2117   -4.4814    3.6188 C.ar      1 <0>        -0.1103
      9 C7          3.5746   -4.7208    3.5575 C.ar      1 <0>        -0.0414
     10 C8          4.2416   -5.2456    4.6471 C.ar      1 <0>        -0.2057
     11 C9          3.5486   -5.5368    5.8121 C.ar      1 <0>         0.1651
     12 C10         2.1694   -5.2956    5.8786 C.ar      1 <0>        -0.0460
     13 C11         1.5081   -4.7596    4.7708 C.ar      1 <0>        -0.0251
     14 C12         1.4433   -5.5928    7.0766 C.1       1 <0>         0.2514
     15 N1          0.8673   -5.8286    8.0269 N.1       1 <0>        -0.4010
     16 O3          4.2026   -6.0533    6.8832 O.3       1 <0>        -0.2955
     17 C13         5.6076   -6.2725    6.7415 C.3       1 <0>         0.0274
     18 C14         6.1666   -6.8542    8.0415 C.3       1 <0>         0.0864
     19 H1          5.6108   -7.7539    8.3056 H         1 <0>         0.1346
     20 C15         7.6435   -7.2050    7.8497 C.3       1 <0>        -0.0501
     21 N2          8.1489   -7.8727    9.0566 N.4       1 <0>        -0.4982
     22 C16         9.5669   -8.2095    8.8725 C.3       1 <0>         0.0599
     23 C17         9.7170   -9.1451    7.6713 C.3       1 <0>        -0.1809
     24 C18        10.3672   -6.9292    8.6249 C.3       1 <0>        -0.1815
     25 C19        10.0933   -8.9049   10.1295 C.3       1 <0>        -0.0916
     26 C20        11.5480   -9.2504    9.9406 C.ar      1 <0>        -0.0974
     27 C21        11.8948  -10.4813    9.3864 C.ar      1 <0>        -0.1203
     28 C22        13.1988  -10.8245    9.2026 C.ar      1 <0>        -0.0903
     29 C23        14.2135   -9.9266    9.5758 C.ar      1 <0>        -0.0469
     30 C24        15.5710  -10.2454    9.4009 C.ar      1 <0>        -0.1081
     31 C25        16.5263   -9.3507    9.7737 C.ar      1 <0>        -0.1044
     32 C26        16.1794   -8.1197   10.3276 C.ar      1 <0>        -0.1051
     33 C27        14.8754   -7.7766   10.5118 C.ar      1 <0>        -0.1105
     34 C28        13.8608   -8.6748   10.1390 C.ar      1 <0>        -0.0531
     35 C29        12.5032   -8.3536   10.3087 C.ar      1 <0>        -0.0885
     36 O4          6.0381   -5.8904    9.0887 O.3       1 <0>        -0.5412
     37 H2          1.0039    1.9031    0.0027 H         1 <0>         0.0671
     38 H3         -0.5459    1.8868   -0.8726 H         1 <0>         0.0820
     39 H4         -0.5289    1.8773    0.9072 H         1 <0>         0.0675
     40 H5         -1.0205   -0.3814    0.0098 H         1 <0>         0.0693
     41 H6          0.5123   -0.3556   -0.8948 H         1 <0>         0.0690
     42 H7          2.5484   -2.0306    2.5079 H         1 <0>         0.1089
     43 H8          1.0156   -2.0564    3.4125 H         1 <0>         0.1097
     44 H9          0.4639   -4.2584    2.4148 H         1 <0>         0.0898
     45 H10         1.9967   -4.2327    1.5103 H         1 <0>         0.0898
     46 H11         4.1189   -4.4961    2.6522 H         1 <0>         0.1392
     47 H12         5.3043   -5.4298    4.5914 H         1 <0>         0.1369
     48 H13         0.4462   -4.5675    4.8156 H         1 <0>         0.1463
     49 H14         5.7857   -6.9717    5.9245 H         1 <0>         0.0871
     50 H15         6.1029   -5.3261    6.5244 H         1 <0>         0.0828
     51 H16         7.7504   -7.8716    6.9939 H         1 <0>         0.1490
     52 H17         8.2136   -6.2929    7.6733 H         1 <0>         0.1432
     53 H18         8.0499   -7.2556    9.8488 H         1 <0>         0.4323
     54 H19         9.3420   -8.6497    6.7757 H         1 <0>         0.0811
     55 H20        10.7691   -9.3950    7.5346 H         1 <0>         0.1119
     56 H21         9.1469  -10.0572    7.8477 H         1 <0>         0.0839
     57 H22        10.2602   -6.2626    9.4806 H         1 <0>         0.0834
     58 H23        11.4193   -7.1791    8.4882 H         1 <0>         0.1112
     59 H24         9.9921   -6.4338    7.7293 H         1 <0>         0.0812
     60 H25         9.9864   -8.2383   10.9853 H         1 <0>         0.0969
     61 H26         9.5232   -9.8170   10.3060 H         1 <0>         0.0980
     62 H27        11.1170  -11.1732    9.0987 H         1 <0>         0.1244
     63 H28        13.4526  -11.7822    8.7726 H         1 <0>         0.1328
     64 H29        15.8546  -11.1957    8.9733 H         1 <0>         0.1321
     65 H30        17.5688   -9.5983    9.6385 H         1 <0>         0.1300
     66 H31        16.9572   -7.4278   10.6153 H         1 <0>         0.1294
     67 H32        14.6215   -6.8194   10.9426 H         1 <0>         0.1294
     68 H33        12.2195   -7.4016   10.7325 H         1 <0>         0.1281
     69 H34         6.5086   -5.0624    8.9211 H         1 <0>         0.3901
     70 H35         7.6211   -8.7170    9.2200 H         1 <0>         0.4290
@<TRIPOS>BOND
     1    1    2 1
     2    1   37 1
     3    1   38 1
     4    1   39 1
     5    2    3 1
     6    2   40 1
     7    2   41 1
     8    3    4 1
     9    4    5 2
    10    4    6 1
    11    6    7 1
    12    6   42 1
    13    6   43 1
    14    7    8 1
    15    7   44 1
    16    7   45 1
    17    8   13 ar
    18    8    9 ar
    19    9   10 ar
    20    9   46 1
    21   10   11 ar
    22   10   47 1
    23   11   12 ar
    24   11   16 1
    25   12   13 ar
    26   12   14 1
    27   13   48 1
    28   14   15 3
    29   16   17 1
    30   17   18 1
    31   17   49 1
    32   17   50 1
    33   18   19 1
    34   18   20 1
    35   18   36 1
    36   20   21 1
    37   20   51 1
    38   20   52 1
    39   21   22 1
    40   21   53 1
    41   21   70 1
    42   22   23 1
    43   22   24 1
    44   22   25 1
    45   23   54 1
    46   23   55 1
    47   23   56 1
    48   24   57 1
    49   24   58 1
    50   24   59 1
    51   25   26 1
    52   25   60 1
    53   25   61 1
    54   26   35 ar
    55   26   27 ar
    56   27   28 ar
    57   27   62 1
    58   28   29 ar
    59   28   63 1
    60   29   34 ar
    61   29   30 ar
    62   30   31 ar
    63   30   64 1
    64   31   32 ar
    65   31   65 1
    66   32   33 ar
    67   32   66 1
    68   33   34 ar
    69   33   67 1
    70   34   35 ar
    71   35   68 1
    72   36   69 1
@<TRIPOS>MOLECULE
ZINC13452432
   56    60     0     0     0
SMALL
USER_CHARGES
1-[2-[4-[5-chloro-1-(4-fluorophenyl)indol-3-yl]-3,6-dihydro-2H-pyridin-1-yl]ethyl]imidazolidin-2-one
@<TRIPOS>ATOM
      1 C1        -10.0206   -6.2907   -3.6207 C.ar      1 <0>        -0.0873
      2 C2        -11.1431   -6.4929   -4.3994 C.ar      1 <0>        -0.1326
      3 C3        -11.8652   -5.4089   -4.8698 C.ar      1 <0>         0.1136
      4 C4        -11.4665   -4.1203   -4.5562 C.ar      1 <0>        -0.1340
      5 C5        -10.3473   -3.9139   -3.7738 C.ar      1 <0>        -0.0879
      6 C6         -9.6220   -4.9995   -3.3011 C.ar      1 <0>         0.0996
      7 N1         -8.4860   -4.7923   -2.5076 N.pl3     1 <0>        -0.4215
      8 C7         -7.4632   -3.9401   -2.8135 C.2       1 <0>         0.0975
      9 C8         -6.5228   -3.9830   -1.8347 C.2       1 <0>        -0.1675
     10 C9         -7.0071   -4.9396   -0.8245 C.ar      1 <0>        -0.0745
     11 C10        -8.2412   -5.4147   -1.2997 C.ar      1 <0>         0.1008
     12 C11        -8.9494   -6.3464   -0.5483 C.ar      1 <0>        -0.1032
     13 C12        -8.4388   -6.7947    0.6503 C.ar      1 <0>        -0.0856
     14 C13        -7.2193   -6.3249    1.1195 C.ar      1 <0>        -0.0464
     15 C14        -6.5022   -5.4013    0.3894 C.ar      1 <0>        -0.0696
     16 Cl1        -6.5945   -6.9038    2.6322 Cl        1 <0>        -0.0585
     17 C15        -5.2632   -3.2154   -1.7888 C.2       1 <0>        -0.0064
     18 C16        -5.1807   -2.1848   -0.9736 C.2       1 <0>        -0.1894
     19 C17        -3.9502   -1.3325   -0.8534 C.3       1 <0>         0.0380
     20 C18        -3.1022   -2.5087   -2.7817 C.3       1 <0>         0.0025
     21 C19        -4.1261   -3.6416   -2.6751 C.3       1 <0>        -0.1158
     22 C20        -1.6056   -1.1625   -1.4314 C.3       1 <0>        -0.0266
     23 C21        -1.1803   -0.8691    0.0087 C.3       1 <0>         0.1312
     24 N2          0.0021   -0.0041    0.0020 N.am      1 <0>        -0.6352
     25 C22        -0.0179    1.4663    0.0101 C.3       1 <0>         0.0899
     26 C23         1.4731    1.8559   -0.0020 C.3       1 <0>         0.0872
     27 N3          2.1748    0.5636   -0.0157 N.am      1 <0>        -0.7328
     28 C24         1.2730   -0.4269   -0.0124 C.2       1 <0>         0.6999
     29 O1          1.5803   -1.6032   -0.0213 O.2       1 <0>        -0.5771
     30 F1        -12.9603   -5.6087   -5.6354 F         1 <0>        -0.1271
     31 H1         -9.4552   -7.1362   -3.2578 H         1 <0>         0.1415
     32 H2        -11.4557   -7.4971   -4.6452 H         1 <0>         0.1503
     33 H3        -12.0310   -3.2762   -4.9240 H         1 <0>         0.1497
     34 H4        -10.0364   -2.9088   -3.5300 H         1 <0>         0.1404
     35 H5         -7.4092   -3.3272   -3.7011 H         1 <0>         0.1769
     36 H6         -9.8991   -6.7180   -0.9039 H         1 <0>         0.1349
     37 H7         -8.9921   -7.5185    1.2302 H         1 <0>         0.1437
     38 H8         -5.5537   -5.0376    0.7562 H         1 <0>         0.1317
     39 H9         -6.0376   -1.9414   -0.3629 H         1 <0>         0.1514
     40 H10        -3.7604   -1.1188    0.1985 H         1 <0>         0.1382
     41 H11        -4.1084   -0.3965   -1.3890 H         1 <0>         0.1404
     42 H12        -3.5193   -1.6925   -3.3714 H         1 <0>         0.1341
     43 H13        -2.1937   -2.8798   -3.2561 H         1 <0>         0.1361
     44 H14        -3.6472   -4.5243   -2.2514 H         1 <0>         0.1085
     45 H15        -4.5091   -3.8782   -3.6678 H         1 <0>         0.1240
     46 H16        -1.8428   -0.2269   -1.9380 H         1 <0>         0.1334
     47 H17        -0.7919   -1.6634   -1.9558 H         1 <0>         0.1350
     48 H18        -0.9431   -1.8046    0.5152 H         1 <0>         0.1066
     49 H19        -1.9940   -0.3681    0.5330 H         1 <0>         0.1032
     50 H20        -0.5200    1.8470   -0.8793 H         1 <0>         0.0867
     51 H21        -0.5029    1.8374    0.9129 H         1 <0>         0.0916
     52 H22         1.7112    2.4300   -0.8974 H         1 <0>         0.0913
     53 H23         1.7283    2.4204    0.8948 H         1 <0>         0.0924
     54 H24         3.1377    0.4470   -0.0255 H         1 <0>         0.4382
     55 N4         -2.7900   -2.0508   -1.4124 N.4       1 <0>        -0.3939
     56 H25        -2.5858   -2.8673   -0.8243 H         1 <0>         0.4323
@<TRIPOS>BOND
     1    1    6 ar
     2    1    2 ar
     3    1   31 1
     4    2    3 ar
     5    2   32 1
     6    3    4 ar
     7    3   30 1
     8    4    5 ar
     9    4   33 1
    10    5    6 ar
    11    5   34 1
    12    6    7 1
    13    7   11 1
    14    7    8 1
    15    8    9 2
    16    8   35 1
    17    9   10 1
    18    9   17 1
    19   10   15 ar
    20   10   11 ar
    21   11   12 ar
    22   12   13 ar
    23   12   36 1
    24   13   14 ar
    25   13   37 1
    26   14   15 ar
    27   14   16 1
    28   15   38 1
    29   17   21 1
    30   17   18 2
    31   18   19 1
    32   18   39 1
    33   19   40 1
    34   19   41 1
    35   19   55 1
    36   20   21 1
    37   20   42 1
    38   20   43 1
    39   20   55 1
    40   21   44 1
    41   21   45 1
    42   22   23 1
    43   22   46 1
    44   22   47 1
    45   22   55 1
    46   23   24 1
    47   23   48 1
    48   23   49 1
    49   24   28 am
    50   24   25 1
    51   25   26 1
    52   25   50 1
    53   25   51 1
    54   26   27 1
    55   26   52 1
    56   26   53 1
    57   27   28 am
    58   27   54 1
    59   28   29 2
    60   55   56 1
@<TRIPOS>MOLECULE
ZINC58590440
   50    53     0     0     0
SMALL
USER_CHARGES

@<TRIPOS>ATOM
      1 C1          1.0173    1.7686   -0.9090 C.3       1 <0>        -0.0885
      2 C2          0.8331    0.2798   -0.7657 C.2       1 <0>        -0.0818
      3 C3         -0.3152   -0.4402   -0.7458 C.2       1 <0>        -0.1907
      4 C4         -0.2431   -1.8132   -0.6031 C.2       1 <0>        -0.0785
      5 C5          0.9738   -2.3990   -0.4874 C.2       1 <0>        -0.2682
      6 S1          2.0709   -0.9941   -0.5861 S.3       1 <0>         0.0826
      7 C6          1.3129   -3.8582   -0.3236 C.3       1 <0>         0.1025
      8 N1          1.4867   -4.4720   -1.6469 N.4       1 <0>        -0.3958
      9 C7          0.1786   -4.5929   -2.3440 C.3       1 <0>         0.0356
     10 H1         -0.4185   -3.6848   -2.2610 H         1 <0>         0.1465
     11 C8         -0.5024   -5.8043   -1.6665 C.3       1 <0>        -0.1395
     12 C9          0.6612   -6.6563   -1.1184 C.3       1 <0>        -0.1368
     13 C10         1.9396   -5.8824   -1.5145 C.3       1 <0>         0.0341
     14 H2          2.7338   -5.9929   -0.7762 H         1 <0>         0.1540
     15 C11         2.3628   -6.3581   -2.9135 C.3       1 <0>        -0.1348
     16 C12         1.1360   -6.3554   -3.8302 C.3       1 <0>         0.0707
     17 C13         0.4744   -4.9596   -3.8071 C.3       1 <0>        -0.1672
     18 O1          0.2030   -7.3391   -3.3785 O.3       1 <0>        -0.2924
     19 C14        -0.6401   -7.8622   -4.3073 C.ar      1 <0>         0.0993
     20 C15        -0.6474   -7.3570   -5.6007 C.ar      1 <0>        -0.1812
     21 C16        -1.5028   -7.8851   -6.5496 C.ar      1 <0>        -0.0833
     22 C17        -2.3557   -8.9180   -6.2174 C.ar      1 <0>        -0.1126
     23 C18        -2.3555   -9.4323   -4.9200 C.ar      1 <0>        -0.0940
     24 C19        -1.4873   -8.9024   -3.9650 C.ar      1 <0>        -0.0867
     25 C20        -3.2683  -10.5386   -4.5603 C.2       1 <0>         0.5605
     26 O2         -3.2663  -10.9849   -3.4297 O.2       1 <0>        -0.5321
     27 N2         -4.1024  -11.0520   -5.4861 N.am      1 <0>        -0.8457
     28 H3          2.0808    2.0067   -0.8892 H         1 <0>         0.0813
     29 H4          0.5887    2.0983   -1.8554 H         1 <0>         0.0941
     30 H5          0.5156    2.2777   -0.0861 H         1 <0>         0.0951
     31 H6         -1.2722    0.0515   -0.8396 H         1 <0>         0.1468
     32 H7         -1.1428   -2.4103   -0.5838 H         1 <0>         0.1398
     33 H8          2.2372   -3.9548    0.2459 H         1 <0>         0.1383
     34 H9          0.5048   -4.3617    0.2071 H         1 <0>         0.1444
     35 H10        -1.1453   -5.4713   -0.8517 H         1 <0>         0.0885
     36 H11        -1.0779   -6.3732   -2.3967 H         1 <0>         0.1271
     37 H12         0.5905   -6.7422   -0.0341 H         1 <0>         0.0932
     38 H13         0.6578   -7.6442   -1.5790 H         1 <0>         0.1323
     39 H14         3.1198   -5.6844   -3.3148 H         1 <0>         0.1066
     40 H15         2.7678   -7.3680   -2.8487 H         1 <0>         0.1253
     41 H16         1.4442   -6.5900   -4.8490 H         1 <0>         0.1046
     42 H17        -0.4577   -4.9900   -4.3714 H         1 <0>         0.1176
     43 H18         1.1423   -4.2161   -4.2420 H         1 <0>         0.1035
     44 H19         0.0173   -6.5483   -5.8662 H         1 <0>         0.1330
     45 H20        -1.5039   -7.4880   -7.5539 H         1 <0>         0.1373
     46 H21        -3.0232   -9.3278   -6.9610 H         1 <0>         0.1336
     47 H22        -1.4792   -9.2994   -2.9606 H         1 <0>         0.1466
     48 H23        -4.1040  -10.6959   -6.3883 H         1 <0>         0.4029
     49 H24        -4.7012  -11.7777   -5.2501 H         1 <0>         0.4114
     50 H25         2.1398   -3.9398   -2.2021 H         1 <0>         0.4207
@<TRIPOS>BOND
     1    1    2 1
     2    1   28 1
     3    1   29 1
     4    1   30 1
     5    2    6 1
     6    2    3 2
     7    3    4 1
     8    3   31 1
     9    4    5 2
    10    4   32 1
    11    5    6 1
    12    5    7 1
    13    7    8 1
    14    7   33 1
    15    7   34 1
    16    8   13 1
    17    8    9 1
    18    8   50 1
    19    9   10 1
    20    9   17 1
    21    9   11 1
    22   11   12 1
    23   11   35 1
    24   11   36 1
    25   12   13 1
    26   12   37 1
    27   12   38 1
    28   13   14 1
    29   13   15 1
    30   15   16 1
    31   15   39 1
    32   15   40 1
    33   16   17 1
    34   16   18 1
    35   16   41 1
    36   17   42 1
    37   17   43 1
    38   18   19 1
    39   19   24 ar
    40   19   20 ar
    41   20   21 ar
    42   20   44 1
    43   21   22 ar
    44   21   45 1
    45   22   23 ar
    46   22   46 1
    47   23   24 ar
    48   23   25 1
    49   24   47 1
    50   25   26 2
    51   25   27 am
    52   27   48 1
    53   27   49 1
@<TRIPOS>MOLECULE
ZINC58590440
   49    52     0     0     0
SMALL
USER_CHARGES

@<TRIPOS>ATOM
      1 C1          0.9868    1.7886   -0.9076 C.3       1 <0>        -0.0712
      2 C2          0.8051    0.2991   -0.7684 C.2       1 <0>        -0.1449
      3 C3         -0.3414   -0.4238   -0.7592 C.2       1 <0>        -0.1641
      4 C4         -0.2671   -1.7968   -0.6183 C.2       1 <0>        -0.1523
      5 C5          0.9502   -2.3798   -0.4935 C.2       1 <0>        -0.1304
      6 S1          2.0446   -0.9720   -0.5807 S.3       1 <0>         0.0484
      7 C6          1.2916   -3.8385   -0.3295 C.3       1 <0>         0.1262
      8 N1          1.4779   -4.4495   -1.6523 N.3       1 <0>        -0.4991
      9 C7          0.1703   -4.6767   -2.3234 C.3       1 <0>         0.0643
     10 H1         -0.4972   -3.8204   -2.2267 H         1 <0>         0.0933
     11 C8         -0.3957   -5.9399   -1.6347 C.3       1 <0>        -0.1495
     12 C9          0.8444   -6.6942   -1.1116 C.3       1 <0>        -0.1469
     13 C10         2.0471   -5.8182   -1.5317 C.3       1 <0>         0.0627
     14 H2          2.8623   -5.8637   -0.8096 H         1 <0>         0.0970
     15 C11         2.4795   -6.2574   -2.9398 C.3       1 <0>        -0.1007
     16 C12         1.2385   -6.3546   -3.8318 C.3       1 <0>         0.0823
     17 C13         0.4656   -5.0176   -3.7928 C.3       1 <0>        -0.1291
     18 O1          0.3982   -7.4114   -3.3635 O.3       1 <0>        -0.2858
     19 C14        -0.4178   -8.0014   -4.2763 C.ar      1 <0>         0.1174
     20 C15        -0.4923   -7.4981   -5.5682 C.ar      1 <0>        -0.1829
     21 C16        -1.3206   -8.0941   -6.5009 C.ar      1 <0>        -0.0859
     22 C17        -2.0794   -9.1933   -6.1537 C.ar      1 <0>        -0.1264
     23 C18        -2.0111   -9.7063   -4.8576 C.ar      1 <0>        -0.1007
     24 C19        -1.1701   -9.1074   -3.9191 C.ar      1 <0>        -0.0942
     25 C20        -2.8230  -10.8835   -4.4819 C.2       1 <0>         0.5632
     26 O2         -2.7619  -11.3285   -3.3524 O.2       1 <0>        -0.5349
     27 N2         -3.6309  -11.4632   -5.3918 N.am      1 <0>        -0.8493
     28 H3          2.0495    2.0293   -0.8786 H         1 <0>         0.0720
     29 H4          0.5653    2.1189   -1.8570 H         1 <0>         0.0798
     30 H5          0.4771    2.2950   -0.0880 H         1 <0>         0.0799
     31 H6         -1.2988    0.0658   -0.8601 H         1 <0>         0.1296
     32 H7         -1.1655   -2.3961   -0.6075 H         1 <0>         0.1266
     33 H8          2.2114   -3.9337    0.2476 H         1 <0>         0.0882
     34 H9          0.4804   -4.3448    0.1937 H         1 <0>         0.0641
     35 H10        -1.0472   -5.6608   -0.8067 H         1 <0>         0.0538
     36 H11        -0.9374   -6.5538   -2.3544 H         1 <0>         0.0913
     37 H12         0.8027   -6.7859   -0.0263 H         1 <0>         0.0581
     38 H13         0.9125   -7.6789   -1.5740 H         1 <0>         0.0964
     39 H14         3.1708   -5.5239   -3.3548 H         1 <0>         0.0921
     40 H15         2.9669   -7.2308   -2.8850 H         1 <0>         0.0791
     41 H16         1.5443   -6.5629   -4.8570 H         1 <0>         0.0764
     42 H17        -0.4720   -5.1239   -4.3384 H         1 <0>         0.0722
     43 H18         1.0617   -4.2218   -4.2395 H         1 <0>         0.0879
     44 H19         0.0987   -6.6377   -5.8454 H         1 <0>         0.1348
     45 H20        -1.3743   -7.6980   -7.5042 H         1 <0>         0.1320
     46 H21        -2.7260   -9.6561   -6.8846 H         1 <0>         0.1273
     47 H22        -1.1094   -9.5028   -2.9159 H         1 <0>         0.1429
     48 H23        -3.6796  -11.1080   -6.2931 H         1 <0>         0.4018
     49 H24        -4.1635  -12.2355   -5.1453 H         1 <0>         0.4072
@<TRIPOS>BOND
     1    1    2 1
     2    1   28 1
     3    1   29 1
     4    1   30 1
     5    2    6 1
     6    2    3 2
     7    3    4 1
     8    3   31 1
     9    4    5 2
    10    4   32 1
    11    5    6 1
    12    5    7 1
    13    7    8 1
    14    7   33 1
    15    7   34 1
    16    8   13 1
    17    8    9 1
    18    9   10 1
    19    9   17 1
    20    9   11 1
    21   11   12 1
    22   11   35 1
    23   11   36 1
    24   12   13 1
    25   12   37 1
    26   12   38 1
    27   13   14 1
    28   13   15 1
    29   15   16 1
    30   15   39 1
    31   15   40 1
    32   16   17 1
    33   16   18 1
    34   16   41 1
    35   17   42 1
    36   17   43 1
    37   18   19 1
    38   19   24 ar
    39   19   20 ar
    40   20   21 ar
    41   20   44 1
    42   21   22 ar
    43   21   45 1
    44   22   23 ar
    45   22   46 1
    46   23   24 ar
    47   23   25 1
    48   24   47 1
    49   25   26 2
    50   25   27 am
    51   27   48 1
    52   27   49 1
@<TRIPOS>MOLECULE
ZINC13815406
   39    41     0     0     0
SMALL
USER_CHARGES

@<TRIPOS>ATOM
      1 C1          1.9341    1.3849   -0.9653 C.ar      1 <0>        -0.1599
      2 C2          1.2879    2.1037    0.0165 C.ar      1 <0>         0.0165
      3 C3          0.5909    1.4246    1.0153 C.ar      1 <0>        -0.1690
      4 C4          0.5567    0.0108    1.0069 C.ar      1 <0>         0.1107
      5 C5         -0.1831   -0.6726    2.0694 C.2       1 <0>        -0.2571
      6 C6         -0.8030    0.0533    3.0138 C.2       1 <0>         0.1674
      7 N1         -0.7725    1.4183    3.0255 N.am      1 <0>        -0.6308
      8 H1         -1.2384    1.8911    3.7328 H         1 <0>         0.4249
      9 C7         -0.1169    2.1315    2.0883 C.2       1 <0>         0.5480
     10 O1         -0.1124    3.3486    2.1317 O.2       1 <0>        -0.5064
     11 C8          1.2204   -0.6905   -0.0001 C.ar      1 <0>        -0.6929
     12 C9          1.8975   -0.0034   -0.9691 C.ar      1 <0>         0.0083
     13 S1          1.1868   -2.4520   -0.0228 S.o2      1 <0>         2.6928
     14 O2          2.1635   -2.8890    0.9122 O.2       1 <0>        -0.9379
     15 O3         -0.1791   -2.8333    0.0680 O.2       1 <0>        -0.9327
     16 N2          1.7139   -2.9326   -1.5173 N.pl3     1 <0>        -1.0126
     17 C10         0.7944   -3.0347   -2.6190 C.3       1 <0>         0.0910
     18 C11         0.1279   -4.4147   -2.8245 C.3       1 <0>        -0.1665
     19 C12         1.1664   -5.5429   -2.6199 C.3       1 <0>        -0.0238
     20 N3          2.4374   -5.1448   -3.1775 N.4       1 <0>        -0.4916
     21 C13         3.2204   -4.7109   -2.0246 C.3       1 <0>        -0.0359
     22 C14         3.1611   -3.2631   -1.7465 C.3       1 <0>         0.0902
     23 H2          2.4713    1.9070   -1.7432 H         1 <0>         0.1446
     24 H3          1.3213    3.1832    0.0129 H         1 <0>         0.1517
     25 H4         -0.2301   -1.7513    2.0933 H         1 <0>         0.1505
     26 H5         -1.3461   -0.4615    3.7925 H         1 <0>         0.1761
     27 H6          2.4109   -0.5476   -1.7480 H         1 <0>         0.1348
     28 H7          0.0066   -2.2956   -2.4733 H         1 <0>         0.1075
     29 H8          1.3295   -2.7766   -3.5329 H         1 <0>         0.0859
     30 H9         -0.6829   -4.5351   -2.1060 H         1 <0>         0.1214
     31 H10        -0.2759   -4.4742   -3.8353 H         1 <0>         0.1115
     32 H11         1.2836   -5.7385   -1.5540 H         1 <0>         0.1321
     33 H12         0.8201   -6.4487   -3.1176 H         1 <0>         0.1367
     34 H13         2.8834   -5.9275   -3.6319 H         1 <0>         0.4397
     35 H14         2.8644   -5.2472   -1.1450 H         1 <0>         0.1397
     36 H15         4.2618   -4.9858   -2.1925 H         1 <0>         0.1451
     37 H16         3.5412   -2.7015   -2.5999 H         1 <0>         0.1118
     38 H17         3.7429   -3.0280   -0.8552 H         1 <0>         0.1484
     39 H18         2.3140   -4.3823   -3.8267 H         1 <0>         0.4298
@<TRIPOS>BOND
     1    1   12 ar
     2    1    2 ar
     3    1   23 1
     4    2    3 ar
     5    2   24 1
     6    3    9 1
     7    3    4 ar
     8    4    5 1
     9    4   11 ar
    10    5    6 2
    11    5   25 1
    12    6    7 1
    13    6   26 1
    14    7    8 1
    15    7    9 am
    16    9   10 2
    17   11   12 ar
    18   11   13 1
    19   12   27 1
    20   13   14 2
    21   13   15 2
    22   13   16 1
    23   16   22 1
    24   16   17 1
    25   17   18 1
    26   17   28 1
    27   17   29 1
    28   18   19 1
    29   18   30 1
    30   18   31 1
    31   19   20 1
    32   19   32 1
    33   19   33 1
    34   20   21 1
    35   20   34 1
    36   20   39 1
    37   21   22 1
    38   21   35 1
    39   21   36 1
    40   22   37 1
    41   22   38 1
@<TRIPOS>MOLECULE
ZINC35643764
   43    45     0     0     0
SMALL
USER_CHARGES

@<TRIPOS>ATOM
      1 C1          1.6276    2.7744    1.6374 C.3       1 <0>        -0.1918
      2 C2          1.3055    1.3347    1.2319 C.3       1 <0>        -0.0111
      3 N1          1.8059    0.4127    2.2603 N.4       1 <0>        -0.5090
      4 C3          1.4966   -0.9696    1.8709 C.3       1 <0>         0.0459
      5 C4          2.0099   -1.9154    2.9259 C.ar      1 <0>        -0.1613
      6 C5          1.1269   -2.5233    3.7967 C.ar      1 <0>        -0.0798
      7 C6          1.6002   -3.3948    4.7687 C.ar      1 <0>         0.1167
      8 C7          2.9614   -3.6543    4.8643 C.ar      1 <0>        -0.0922
      9 C8          3.8427   -3.0457    3.9929 C.ar      1 <0>        -0.1095
     10 C9          3.3684   -2.1795    3.0185 C.ar      1 <0>         0.1367
     11 O1          4.2365   -1.5847    2.1571 O.3       1 <0>        -0.4864
     12 N2          0.7062   -4.0110    5.6518 N.pl3     1 <0>        -0.6288
     13 C10         0.8667   -5.3488    5.9796 C.ar      1 <0>         0.3478
     14 C11         1.8064   -6.1363    5.3317 C.ar      1 <0>        -0.2639
     15 C12         1.9435   -7.4718    5.6827 C.ar      1 <0>         0.2429
     16 N3          1.2049   -8.0218    6.6187 N.ar      1 <0>        -0.4951
     17 C13         0.2791   -7.3224    7.2848 C.ar      1 <0>         0.1846
     18 C14         0.0807   -5.9522    6.9901 C.ar      1 <0>        -0.1261
     19 C15        -0.8871   -5.2227    7.6946 C.ar      1 <0>        -0.0505
     20 C16        -1.6245   -5.8387    8.6603 C.ar      1 <0>        -0.0948
     21 C17        -1.4286   -7.1865    8.9571 C.ar      1 <0>         0.0442
     22 C18        -0.5036   -7.9263    8.2836 C.ar      1 <0>        -0.1389
     23 Cl1        -2.3869   -7.9373   10.1947 Cl        1 <0>         0.0018
     24 H1          2.7068    2.8913    1.7361 H         1 <0>         0.0820
     25 H2          1.2563    3.4585    0.8744 H         1 <0>         0.1120
     26 H3          1.1492    2.9991    2.5907 H         1 <0>         0.0812
     27 H4          0.2263    1.2179    1.1333 H         1 <0>         0.1346
     28 H5          1.7839    1.1100    0.2786 H         1 <0>         0.1359
     29 H6          2.8049    0.5209    2.3516 H         1 <0>         0.4219
     30 H7          0.4174   -1.0864    1.7723 H         1 <0>         0.1438
     31 H8          1.9750   -1.1942    0.9177 H         1 <0>         0.1504
     32 H9          0.0687   -2.3207    3.7218 H         1 <0>         0.1501
     33 H10         3.3304   -4.3317    5.6202 H         1 <0>         0.1506
     34 H11         4.9011   -3.2471    4.0674 H         1 <0>         0.1585
     35 H12         4.5808   -0.7366    2.4688 H         1 <0>         0.3993
     36 H13        -0.0256   -3.5023    6.0345 H         1 <0>         0.4307
     37 H14         2.4284   -5.7123    4.5573 H         1 <0>         0.1826
     38 H15         2.6783   -8.0760    5.1713 H         1 <0>         0.2141
     39 H16        -1.0470   -4.1778    7.4732 H         1 <0>         0.1549
     40 H17        -2.3696   -5.2758    9.2028 H         1 <0>         0.1659
     41 H18        -0.3636   -8.9696    8.5251 H         1 <0>         0.1716
     42 H19         1.3630    0.6207    3.1427 H         1 <0>         0.4276
     43 H20         1.3335   -8.9592    6.8324 H         1 <0>         0.4510
@<TRIPOS>BOND
     1    1    2 1
     2    1   24 1
     3    1   25 1
     4    1   26 1
     5    2    3 1
     6    2   27 1
     7    2   28 1
     8    3    4 1
     9    3   29 1
    10    3   42 1
    11    4    5 1
    12    4   30 1
    13    4   31 1
    14    5   10 ar
    15    5    6 ar
    16    6    7 ar
    17    6   32 1
    18    7    8 ar
    19    7   12 1
    20    8    9 ar
    21    8   33 1
    22    9   10 ar
    23    9   34 1
    24   10   11 1
    25   11   35 1
    26   12   13 1
    27   12   36 1
    28   13   18 ar
    29   13   14 ar
    30   14   15 ar
    31   14   37 1
    32   15   16 ar
    33   15   38 1
    34   16   17 ar
    35   16   43 1
    36   17   22 ar
    37   17   18 ar
    38   18   19 ar
    39   19   20 ar
    40   19   39 1
    41   20   21 ar
    42   20   40 1
    43   21   22 ar
    44   21   23 1
    45   22   41 1
@<TRIPOS>MOLECULE
ZINC35643764
   42    44     0     0     0
SMALL
USER_CHARGES

@<TRIPOS>ATOM
      1 C1          0.5360    2.7809   -2.2331 C.3       1 <0>        -0.1906
      2 C2          0.3820    1.3386   -1.7464 C.3       1 <0>        -0.0109
      3 N1          1.0455    0.4297   -2.6906 N.4       1 <0>        -0.5084
      4 C3          0.8976   -0.9552   -2.2233 C.3       1 <0>         0.0498
      5 C4          1.5782   -1.8876   -3.1920 C.ar      1 <0>        -0.1617
      6 C5          2.7887   -2.4642   -2.8605 C.ar      1 <0>        -0.1058
      7 C6          3.4157   -3.3233   -3.7533 C.ar      1 <0>         0.1663
      8 C7          2.8247   -3.6021   -4.9791 C.ar      1 <0>        -0.1004
      9 C8          1.6146   -3.0247   -5.3087 C.ar      1 <0>        -0.1078
     10 C9          0.9862   -2.1709   -4.4138 C.ar      1 <0>         0.1061
     11 O1         -0.2083   -1.6071   -4.7371 O.3       1 <0>        -0.4896
     12 N2          4.6424   -3.9077   -3.4184 N.pl3     1 <0>        -0.6691
     13 C10         4.8797   -5.2410   -3.7166 C.ar      1 <0>         0.2462
     14 C11         3.8689   -6.0559   -4.2038 C.ar      1 <0>        -0.2559
     15 C12         4.1378   -7.3861   -4.4933 C.ar      1 <0>         0.1751
     16 N3          5.3311   -7.9057   -4.3197 N.ar      1 <0>        -0.4955
     17 C13         6.3529   -7.1787   -3.8534 C.ar      1 <0>         0.1733
     18 C14         6.1625   -5.8118   -3.5390 C.ar      1 <0>        -0.1373
     19 C15         7.2378   -5.0534   -3.0557 C.ar      1 <0>        -0.0818
     20 C16         8.4579   -5.6384   -2.8977 C.ar      1 <0>        -0.1107
     21 C17         8.6508   -6.9829   -3.2109 C.ar      1 <0>        -0.0067
     22 C18         7.6240   -7.7503   -3.6728 C.ar      1 <0>        -0.0864
     23 Cl1        10.2201   -7.6938   -2.9972 Cl        1 <0>        -0.0480
     24 H1          1.5948    3.0320   -2.2961 H         1 <0>         0.0806
     25 H2          0.0791    2.8829   -3.2175 H         1 <0>         0.0809
     26 H3          0.0437    3.4553   -1.5325 H         1 <0>         0.1088
     27 H4          0.8388    1.2366   -0.7620 H         1 <0>         0.1328
     28 H5         -0.6768    1.0875   -1.6833 H         1 <0>         0.1336
     29 H6          0.6226    0.5241   -3.6019 H         1 <0>         0.4213
     30 H7          1.3544   -1.0571   -1.2389 H         1 <0>         0.1400
     31 H8         -0.1612   -1.2063   -2.1603 H         1 <0>         0.1456
     32 H9          3.2476   -2.2466   -1.9074 H         1 <0>         0.1423
     33 H10         3.3118   -4.2699   -5.6742 H         1 <0>         0.1486
     34 H11         1.1552   -3.2411   -6.2619 H         1 <0>         0.1496
     35 H12        -0.1318   -0.7583   -5.1941 H         1 <0>         0.3886
     36 H13         5.3268   -3.3801   -2.9777 H         1 <0>         0.4169
     37 H14         2.8770   -5.6572   -4.3567 H         1 <0>         0.1416
     38 H15         3.3431   -8.0117   -4.8719 H         1 <0>         0.1661
     39 H16         7.0998   -4.0108   -2.8101 H         1 <0>         0.1299
     40 H17         9.2859   -5.0533   -2.5255 H         1 <0>         0.1423
     41 H18         7.7893   -8.7906   -3.9111 H         1 <0>         0.1528
     42 H19         2.0256    0.6621   -2.7490 H         1 <0>         0.4274
@<TRIPOS>BOND
     1    1    2 1
     2    1   24 1
     3    1   25 1
     4    1   26 1
     5    2    3 1
     6    2   27 1
     7    2   28 1
     8    3    4 1
     9    3   29 1
    10    3   42 1
    11    4    5 1
    12    4   30 1
    13    4   31 1
    14    5   10 ar
    15    5    6 ar
    16    6    7 ar
    17    6   32 1
    18    7    8 ar
    19    7   12 1
    20    8    9 ar
    21    8   33 1
    22    9   10 ar
    23    9   34 1
    24   10   11 1
    25   11   35 1
    26   12   13 1
    27   12   36 1
    28   13   18 ar
    29   13   14 ar
    30   14   15 ar
    31   14   37 1
    32   15   16 ar
    33   15   38 1
    34   16   17 ar
    35   17   22 ar
    36   17   18 ar
    37   18   19 ar
    38   19   20 ar
    39   19   39 1
    40   20   21 ar
    41   20   40 1
    42   21   22 ar
    43   21   23 1
    44   22   41 1
@<TRIPOS>MOLECULE
ZINC21983255
   61    64     0     0     0
SMALL
USER_CHARGES
1-[[5-(4-chlorophenyl)-2-furyl]methyleneamino]-3-[4-(4-methylpiperazin-1-yl)butyl]imidazolidine-2,4-dione
@<TRIPOS>ATOM
      1 C1         -3.0458   17.1500    3.7611 C.3       1 <0>         0.0170
      2 N1         -3.1260   15.6832    3.7521 N.3       1 <0>        -0.5442
      3 C2         -4.4029   15.2222    4.3149 C.3       1 <0>         0.0231
      4 C3         -4.4143   13.6924    4.3610 C.3       1 <0>         0.0005
      5 N2         -4.2181   13.1626    3.0044 N.4       1 <0>        -0.4008
      6 C4         -2.9413   13.6236    2.4416 C.3       1 <0>        -0.0038
      7 C5         -2.9298   15.1534    2.3955 C.3       1 <0>         0.0238
      8 C6         -4.2984   11.6958    2.9954 C.3       1 <0>        -0.0053
      9 C7         -4.3401   11.1962    1.5498 C.3       1 <0>        -0.1446
     10 C8         -4.4237    9.6685    1.5405 C.3       1 <0>        -0.1367
     11 C9         -4.4653    9.1689    0.0949 C.3       1 <0>         0.1154
     12 N3         -4.5454    7.7061    0.0860 N.am      1 <0>        -0.5767
     13 C10        -5.7000    7.0110    0.0924 C.2       1 <0>         0.5256
     14 O1         -6.8256    7.4612    0.1049 O.2       1 <0>        -0.4539
     15 C11        -5.2985    5.5494    0.0797 C.3       1 <0>         0.0834
     16 N4         -3.8261    5.5949    0.0664 N.am      1 <0>        -0.4701
     17 C12        -3.4812    6.8952    0.0763 C.2       1 <0>         0.6798
     18 O2         -2.3313    7.2893    0.0735 O.2       1 <0>        -0.5384
     19 N5         -2.9548    4.4979    0.0524 N.2       1 <0>        -0.2062
     20 C13        -1.6676    4.6894    0.0416 C.2       1 <0>         0.1577
     21 C14        -0.7568    3.5426    0.0270 C.2       1 <0>         0.0059
     22 C15         0.6091    3.6047    0.0147 C.2       1 <0>        -0.1340
     23 C16         1.0775    2.2841    0.0040 C.2       1 <0>        -0.1929
     24 C17        -0.0179    1.4720    0.0101 C.2       1 <0>         0.0627
     25 O3         -1.1214    2.2444    0.0189 O.3       1 <0>        -0.1512
     26 C18         0.0021   -0.0041    0.0020 C.ar      1 <0>        -0.0262
     27 C19         1.2194   -0.6889   -0.0191 C.ar      1 <0>        -0.0785
     28 C20         1.2313   -2.0679   -0.0212 C.ar      1 <0>        -0.1063
     29 C21         0.0396   -2.7737   -0.0136 C.ar      1 <0>        -0.0238
     30 C22        -1.1707   -2.1006    0.0020 C.ar      1 <0>        -0.1075
     31 C23        -1.1963   -0.7219    0.0096 C.ar      1 <0>        -0.0836
     32 Cl1         0.0632   -4.5095   -0.0242 Cl        1 <0>        -0.0575
     33 H1         -3.1958   17.5191    4.7864 H         1 <0>         0.0846
     34 H2         -3.8254   17.5639    3.1046 H         1 <0>         0.0400
     35 H3         -2.0561   17.4653    3.3990 H         1 <0>         0.0851
     36 H4         -4.5203   15.6216    5.3331 H         1 <0>         0.1241
     37 H5         -5.2311   15.5772    3.6840 H         1 <0>         0.0610
     38 H6         -3.6030   13.3392    5.0145 H         1 <0>         0.1354
     39 H7         -5.3805   13.3446    4.7554 H         1 <0>         0.1366
     40 H8         -2.1131   13.2686    3.0725 H         1 <0>         0.1357
     41 H9         -2.8239   13.2242    1.4234 H         1 <0>         0.1371
     42 H10        -3.7411   15.5077    1.7426 H         1 <0>         0.0609
     43 H11        -1.9637   15.5021    2.0018 H         1 <0>         0.1239
     44 H12        -3.4167   11.2772    3.5027 H         1 <0>         0.1299
     45 H13        -5.2102   11.3752    3.5206 H         1 <0>         0.1331
     46 H14        -5.2218   11.6148    1.0425 H         1 <0>         0.0930
     47 H15        -3.4283   11.5168    1.0246 H         1 <0>         0.0925
     48 H16        -3.5420    9.2500    2.0479 H         1 <0>         0.0837
     49 H17        -5.3355    9.3480    2.0657 H         1 <0>         0.0823
     50 H18        -5.3469    9.5875   -0.4125 H         1 <0>         0.1030
     51 H19        -3.5534    9.4894   -0.4302 H         1 <0>         0.1034
     52 H20        -5.6931    5.0530    0.9785 H         1 <0>         0.1397
     53 H21        -5.7097    5.0640   -0.8177 H         1 <0>         0.1409
     54 H22        -1.2637    5.7126    0.0434 H         1 <0>         0.1914
     55 H23         1.2119    4.5008    0.0141 H         1 <0>         0.1644
     56 H24         2.1104    1.9690   -0.0070 H         1 <0>         0.1624
     57 H25         2.1492   -0.1397   -0.0299 H         1 <0>         0.1414
     58 H26         2.1718   -2.5987   -0.0337 H         1 <0>         0.1438
     59 H27        -2.0965   -2.6568    0.0079 H         1 <0>         0.1413
     60 H28        -2.1407   -0.1982    0.0210 H         1 <0>         0.1393
     61 H29        -5.0286   13.5483    2.3685 H         1 <0>         0.4379
@<TRIPOS>BOND
     1    1    2 1
     2    1   33 1
     3    1   34 1
     4    1   35 1
     5    2    7 1
     6    2    3 1
     7    3    4 1
     8    3   36 1
     9    3   37 1
    10    4    5 1
    11    4   38 1
    12    4   39 1
    13    5    6 1
    14    5    8 1
    15    5   61 1
    16    6    7 1
    17    6   40 1
    18    6   41 1
    19    7   42 1
    20    7   43 1
    21    8    9 1
    22    8   44 1
    23    8   45 1
    24    9   10 1
    25    9   46 1
    26    9   47 1
    27   10   11 1
    28   10   48 1
    29   10   49 1
    30   11   12 1
    31   11   50 1
    32   11   51 1
    33   12   17 am
    34   12   13 am
    35   13   14 2
    36   13   15 1
    37   15   16 1
    38   15   52 1
    39   15   53 1
    40   16   17 am
    41   16   19 1
    42   17   18 2
    43   19   20 2
    44   20   21 1
    45   20   54 1
    46   21   25 1
    47   21   22 2
    48   22   23 1
    49   22   55 1
    50   23   24 2
    51   23   56 1
    52   24   25 1
    53   24   26 1
    54   26   31 ar
    55   26   27 ar
    56   27   28 ar
    57   27   57 1
    58   28   29 ar
    59   28   58 1
    60   29   30 ar
    61   29   32 1
    62   30   31 ar
    63   30   59 1
    64   31   60 1
@<TRIPOS>MOLECULE
ZINC21983255
   61    64     0     0     0
SMALL
USER_CHARGES
1-[[5-(4-chlorophenyl)-2-furyl]methyleneamino]-3-[4-(4-methylpiperazin-1-yl)butyl]imidazolidine-2,4-dione
@<TRIPOS>ATOM
      1 C1         -3.0458   17.1500    3.7611 C.3       1 <0>        -0.0453
      2 N1         -3.1260   15.6832    3.7521 N.4       1 <0>        -0.4029
      3 C2         -4.4029   15.2222    4.3149 C.3       1 <0>         0.0002
      4 C3         -4.4143   13.6924    4.3610 C.3       1 <0>         0.0239
      5 N2         -4.2181   13.1626    3.0044 N.3       1 <0>        -0.5397
      6 C4         -2.9413   13.6236    2.4416 C.3       1 <0>         0.0188
      7 C5         -2.9298   15.1534    2.3955 C.3       1 <0>         0.0000
      8 C6         -4.2984   11.6958    2.9954 C.3       1 <0>         0.0544
      9 C7         -4.3401   11.1962    1.5498 C.3       1 <0>        -0.1141
     10 C8         -4.4237    9.6685    1.5405 C.3       1 <0>        -0.1378
     11 C9         -4.4653    9.1689    0.0949 C.3       1 <0>         0.1161
     12 N3         -4.5454    7.7061    0.0860 N.am      1 <0>        -0.5753
     13 C10        -5.7000    7.0110    0.0924 C.2       1 <0>         0.5246
     14 O1         -6.8256    7.4612    0.1049 O.2       1 <0>        -0.4536
     15 C11        -5.2985    5.5494    0.0797 C.3       1 <0>         0.0838
     16 N4         -3.8261    5.5949    0.0664 N.am      1 <0>        -0.4715
     17 C12        -3.4812    6.8952    0.0763 C.2       1 <0>         0.6809
     18 O2         -2.3313    7.2893    0.0735 O.2       1 <0>        -0.5393
     19 N5         -2.9548    4.4979    0.0524 N.2       1 <0>        -0.2043
     20 C13        -1.6676    4.6894    0.0416 C.2       1 <0>         0.1530
     21 C14        -0.7568    3.5426    0.0270 C.2       1 <0>         0.0102
     22 C15         0.6091    3.6047    0.0147 C.2       1 <0>        -0.1370
     23 C16         1.0775    2.2841    0.0040 C.2       1 <0>        -0.1921
     24 C17        -0.0179    1.4720    0.0101 C.2       1 <0>         0.0596
     25 O3         -1.1214    2.2444    0.0189 O.3       1 <0>        -0.1511
     26 C18         0.0021   -0.0041    0.0020 C.ar      1 <0>        -0.0246
     27 C19         1.2194   -0.6889   -0.0191 C.ar      1 <0>        -0.0792
     28 C20         1.2313   -2.0679   -0.0212 C.ar      1 <0>        -0.1064
     29 C21         0.0396   -2.7737   -0.0136 C.ar      1 <0>        -0.0246
     30 C22        -1.1707   -2.1006    0.0020 C.ar      1 <0>        -0.1073
     31 C23        -1.1963   -0.7219    0.0096 C.ar      1 <0>        -0.0840
     32 Cl1         0.0632   -4.5095   -0.0242 Cl        1 <0>        -0.0584
     33 H1         -3.1958   17.5191    4.7864 H         1 <0>         0.1247
     34 H2         -3.8254   17.5639    3.1046 H         1 <0>         0.1201
     35 H3         -2.0561   17.4653    3.3990 H         1 <0>         0.1248
     36 H4         -4.5203   15.6216    5.3331 H         1 <0>         0.1363
     37 H5         -5.2311   15.5772    3.6840 H         1 <0>         0.1350
     38 H6         -3.6030   13.3392    5.0145 H         1 <0>         0.0609
     39 H7         -5.3805   13.3446    4.7554 H         1 <0>         0.1237
     40 H8         -2.1131   13.2686    3.0725 H         1 <0>         0.0613
     41 H9         -2.8239   13.2242    1.4234 H         1 <0>         0.1260
     42 H10        -3.7411   15.5077    1.7426 H         1 <0>         0.1350
     43 H11        -1.9637   15.5021    2.0018 H         1 <0>         0.1362
     44 H12        -3.4167   11.2772    3.5027 H         1 <0>         0.0483
     45 H13        -5.2102   11.3752    3.5206 H         1 <0>         0.0905
     46 H14        -5.2218   11.6148    1.0425 H         1 <0>         0.0823
     47 H15        -3.4283   11.5168    1.0246 H         1 <0>         0.0688
     48 H16        -3.5420    9.2500    2.0479 H         1 <0>         0.0726
     49 H17        -5.3355    9.3480    2.0657 H         1 <0>         0.0745
     50 H18        -5.3469    9.5875   -0.4125 H         1 <0>         0.1013
     51 H19        -3.5534    9.4894   -0.4302 H         1 <0>         0.0997
     52 H20        -5.6931    5.0530    0.9785 H         1 <0>         0.1384
     53 H21        -5.7097    5.0640   -0.8177 H         1 <0>         0.1395
     54 H22        -1.2637    5.7126    0.0434 H         1 <0>         0.1916
     55 H23         1.2119    4.5008    0.0141 H         1 <0>         0.1640
     56 H24         2.1104    1.9690   -0.0070 H         1 <0>         0.1618
     57 H25         2.1492   -0.1397   -0.0299 H         1 <0>         0.1411
     58 H26         2.1718   -2.5987   -0.0337 H         1 <0>         0.1434
     59 H27        -2.0965   -2.6568    0.0079 H         1 <0>         0.1411
     60 H28        -2.1407   -0.1982    0.0210 H         1 <0>         0.1395
     61 H29        -2.3154   15.2976    4.3879 H         1 <0>         0.4405
@<TRIPOS>BOND
     1    1    2 1
     2    1   33 1
     3    1   34 1
     4    1   35 1
     5    2    7 1
     6    2    3 1
     7    2   61 1
     8    3    4 1
     9    3   36 1
    10    3   37 1
    11    4    5 1
    12    4   38 1
    13    4   39 1
    14    5    6 1
    15    5    8 1
    16    6    7 1
    17    6   40 1
    18    6   41 1
    19    7   42 1
    20    7   43 1
    21    8    9 1
    22    8   44 1
    23    8   45 1
    24    9   10 1
    25    9   46 1
    26    9   47 1
    27   10   11 1
    28   10   48 1
    29   10   49 1
    30   11   12 1
    31   11   50 1
    32   11   51 1
    33   12   17 am
    34   12   13 am
    35   13   14 2
    36   13   15 1
    37   15   16 1
    38   15   52 1
    39   15   53 1
    40   16   17 am
    41   16   19 1
    42   17   18 2
    43   19   20 2
    44   20   21 1
    45   20   54 1
    46   21   25 1
    47   21   22 2
    48   22   23 1
    49   22   55 1
    50   23   24 2
    51   23   56 1
    52   24   25 1
    53   24   26 1
    54   26   31 ar
    55   26   27 ar
    56   27   28 ar
    57   27   57 1
    58   28   29 ar
    59   28   58 1
    60   29   30 ar
    61   29   32 1
    62   30   31 ar
    63   30   59 1
    64   31   60 1
@<TRIPOS>MOLECULE
ZINC34635639
   49    50     0     0     0
SMALL
USER_CHARGES

@<TRIPOS>ATOM
      1 C1         -0.0187    1.5258    0.0104 C.3       1 <0>        -0.1766
      2 C2          0.0021   -0.0041    0.0020 C.3       1 <0>         0.0443
      3 C3          0.7421   -0.5109    1.2415 C.3       1 <0>        -0.1690
      4 C4         -1.4117   -0.5257    0.0127 C.2       1 <0>         0.5070
      5 O1         -1.9390   -0.8271    1.0625 O.2       1 <0>        -0.4731
      6 N1         -2.0902   -0.6573   -1.1443 N.am      1 <0>        -0.8493
      7 N2          0.6897   -0.4778   -1.2066 N.4       1 <0>        -0.5059
      8 C5          2.0678    0.0307   -1.2170 C.3       1 <0>        -0.0204
      9 C6          2.7840   -0.4628   -2.4758 C.3       1 <0>        -0.1463
     10 C7          4.2193    0.0668   -2.4867 C.3       1 <0>        -0.0638
     11 C8          4.9247   -0.4192   -3.7266 C.ar      1 <0>         0.1804
     12 C9          5.5280    0.4827   -4.5880 C.ar      1 <0>        -0.1918
     13 C10         6.1715   -0.0123   -5.7269 C.ar      1 <0>         0.2445
     14 N3          6.1816   -1.3244   -5.9419 N.ar      1 <0>        -0.4790
     15 C11         5.5920   -2.1520   -5.0920 C.ar      1 <0>         0.4285
     16 N4          4.9792   -1.7111   -4.0013 N.ar      1 <0>        -0.4906
     17 C12         5.6216   -3.5594   -5.3547 C.1       1 <0>         0.2677
     18 N5          5.6451   -4.6759   -5.5631 N.1       1 <0>        -0.3326
     19 C13         6.8319    0.9121   -6.6803 C.ar      1 <0>        -0.0780
     20 C14         6.8210    2.2859   -6.4442 C.ar      1 <0>        -0.0550
     21 C15         7.4375    3.1412   -7.3344 C.ar      1 <0>        -0.1203
     22 C16         8.0656    2.6377   -8.4595 C.ar      1 <0>        -0.0422
     23 C17         8.0796    1.2755   -8.6989 C.ar      1 <0>        -0.1844
     24 C18         7.4707    0.4101   -7.8126 C.ar      1 <0>        -0.0168
     25 C19         8.7658    0.7347   -9.9268 C.3       1 <0>         0.5082
     26 F1          9.3087    1.7938  -10.6622 F         1 <0>        -0.1727
     27 F2          9.7888   -0.1389   -9.5426 F         1 <0>        -0.1720
     28 F3          7.8371    0.0472  -10.7154 F         1 <0>        -0.1725
     29 H1          1.0039    1.9031    0.0027 H         1 <0>         0.1008
     30 H2         -0.5459    1.8868   -0.8726 H         1 <0>         0.0879
     31 H3         -0.5289    1.8773    0.9072 H         1 <0>         0.1160
     32 H4          0.2319   -0.1594    2.1383 H         1 <0>         0.1189
     33 H5          0.7568   -1.6008    1.2356 H         1 <0>         0.0886
     34 H6          1.7647   -0.1336    1.2338 H         1 <0>         0.0956
     35 H7         -1.6686   -0.4162   -1.9840 H         1 <0>         0.3955
     36 H8         -3.0003   -0.9930   -1.1375 H         1 <0>         0.4275
     37 H9          0.7033   -1.4867   -1.2121 H         1 <0>         0.4338
     38 H10         2.0530    1.1205   -1.2110 H         1 <0>         0.1417
     39 H11         2.5950   -0.3304   -0.3340 H         1 <0>         0.1438
     40 H12         2.7987   -1.5526   -2.4818 H         1 <0>         0.1038
     41 H13         2.2568   -0.1017   -3.3589 H         1 <0>         0.0915
     42 H14         4.2046    1.1567   -2.4807 H         1 <0>         0.1040
     43 H15         4.7465   -0.2943   -1.6036 H         1 <0>         0.1085
     44 H16         5.5018    1.5431   -4.3850 H         1 <0>         0.1641
     45 H17         6.3307    2.6801   -5.5664 H         1 <0>         0.1400
     46 H18         7.4294    4.2058   -7.1526 H         1 <0>         0.1479
     47 H19         8.5465    3.3108   -9.1538 H         1 <0>         0.1489
     48 H20         7.4858   -0.6537   -7.9983 H         1 <0>         0.1499
     49 H21         0.2017   -0.1436   -2.0240 H         1 <0>         0.4229
@<TRIPOS>BOND
     1    1    2 1
     2    1   29 1
     3    1   30 1
     4    1   31 1
     5    2    3 1
     6    2    4 1
     7    2    7 1
     8    3   32 1
     9    3   33 1
    10    3   34 1
    11    4    5 2
    12    4    6 am
    13    6   35 1
    14    6   36 1
    15    7    8 1
    16    7   37 1
    17    7   49 1
    18    8    9 1
    19    8   38 1
    20    8   39 1
    21    9   10 1
    22    9   40 1
    23    9   41 1
    24   10   11 1
    25   10   42 1
    26   10   43 1
    27   11   16 ar
    28   11   12 ar
    29   12   13 ar
    30   12   44 1
    31   13   14 ar
    32   13   19 1
    33   14   15 ar
    34   15   16 ar
    35   15   17 1
    36   17   18 3
    37   19   24 ar
    38   19   20 ar
    39   20   21 ar
    40   20   45 1
    41   21   22 ar
    42   21   46 1
    43   22   23 ar
    44   22   47 1
    45   23   24 ar
    46   23   25 1
    47   24   48 1
    48   25   26 1
    49   25   27 1
    50   25   28 1
@<TRIPOS>MOLECULE
ZINC00538337
   58    62     0     0     0
SMALL
USER_CHARGES

@<TRIPOS>ATOM
      1 C1         -0.0168    1.3842    0.0097 C.ar      1 <0>        -0.0898
      2 C2          1.1703    2.0901    0.0021 C.ar      1 <0>        -0.1344
      3 C3          2.3788    1.4141   -0.0135 C.ar      1 <0>         0.1119
      4 C4          2.3997    0.0295   -0.0216 C.ar      1 <0>        -0.1322
      5 C5          1.2148   -0.6800   -0.0137 C.ar      1 <0>        -0.0888
      6 C6          0.0021   -0.0041    0.0020 C.ar      1 <0>         0.1035
      7 N1         -1.2015   -0.7222    0.0101 N.pl3     1 <0>        -0.4255
      8 C7         -2.2407   -0.5077    0.8765 C.2       1 <0>         0.0751
      9 C8         -3.2397   -1.3652    0.6140 C.2       1 <0>        -0.1721
     10 C9         -2.8068   -2.1974   -0.5117 C.ar      1 <0>        -0.0841
     11 C10        -1.5194   -1.7470   -0.8569 C.ar      1 <0>         0.1032
     12 C11        -0.8430   -2.3517   -1.9103 C.ar      1 <0>        -0.1070
     13 C12        -1.4366   -3.3808   -2.6081 C.ar      1 <0>        -0.0841
     14 C13        -2.7089   -3.8239   -2.2706 C.ar      1 <0>        -0.0491
     15 C14        -3.3935   -3.2441   -1.2250 C.ar      1 <0>        -0.0671
     16 Cl1        -3.4366   -5.1218   -3.1648 Cl        1 <0>        -0.0596
     17 C15        -4.5571   -1.4553    1.3402 C.3       1 <0>        -0.0164
     18 C16        -4.3063   -1.7573    2.8204 C.3       1 <0>        -0.1397
     19 C17        -5.6422   -1.7687    3.5665 C.3       1 <0>        -0.0052
     20 N2         -6.2909   -0.4585    3.4359 N.4       1 <0>        -0.3798
     21 C18        -6.5994   -0.1937    2.0255 C.3       1 <0>        -0.0131
     22 C19        -5.3003   -0.1217    1.2201 C.3       1 <0>        -0.1392
     23 C20        -7.5345   -0.4493    4.2177 C.3       1 <0>        -0.0330
     24 C21        -8.1476    0.9521    4.1845 C.3       1 <0>         0.1326
     25 N3         -9.3878    0.9612    4.9641 N.am      1 <0>        -0.6351
     26 C22       -10.7283    0.6664    4.4362 C.3       1 <0>         0.0898
     27 C23       -11.6494    0.8170    5.6625 C.3       1 <0>         0.0871
     28 N4        -10.7301    1.1807    6.7511 N.am      1 <0>        -0.7327
     29 C24        -9.4802    1.2337    6.2723 C.2       1 <0>         0.7000
     30 O1         -8.5172    1.5083    6.9620 O.2       1 <0>        -0.5776
     31 F1          3.5389    2.1063   -0.0213 F         1 <0>        -0.1276
     32 H1         -0.9590    1.9118    0.0260 H         1 <0>         0.1391
     33 H2          1.1561    3.1700    0.0080 H         1 <0>         0.1488
     34 H3          3.3432   -0.4959   -0.0345 H         1 <0>         0.1499
     35 H4          1.2315   -1.7598   -0.0203 H         1 <0>         0.1411
     36 H5         -2.2541    0.2401    1.6556 H         1 <0>         0.1691
     37 H6          0.1466   -2.0149   -2.1816 H         1 <0>         0.1333
     38 H7         -0.9074   -3.8472   -3.4259 H         1 <0>         0.1426
     39 H8         -4.3833   -3.5900   -0.9659 H         1 <0>         0.1336
     40 H9         -5.1611   -2.2499    0.9021 H         1 <0>         0.0971
     41 H10        -3.8271   -2.7315    2.9171 H         1 <0>         0.1158
     42 H11        -3.6594   -0.9891    3.2440 H         1 <0>         0.0884
     43 H12        -6.2882   -2.5373    3.1423 H         1 <0>         0.1304
     44 H13        -5.4673   -1.9836    4.6207 H         1 <0>         0.1320
     45 H14        -7.2250   -0.9960    1.6341 H         1 <0>         0.1319
     46 H15        -7.1311    0.7541    1.9420 H         1 <0>         0.1316
     47 H16        -4.6740    0.6804    1.6106 H         1 <0>         0.0885
     48 H17        -5.5315    0.0731    0.1729 H         1 <0>         0.1159
     49 H18        -8.2379   -1.1638    3.7899 H         1 <0>         0.1318
     50 H19        -7.3173   -0.7265    5.2492 H         1 <0>         0.1351
     51 H20        -7.4442    1.6665    4.6123 H         1 <0>         0.1060
     52 H21        -8.3648    1.2293    3.1530 H         1 <0>         0.1030
     53 H22       -11.0011    1.3839    3.6624 H         1 <0>         0.0916
     54 H23       -10.7713   -0.3513    4.0481 H         1 <0>         0.0867
     55 H24       -12.3795    1.6093    5.4975 H         1 <0>         0.0926
     56 H25       -12.1498   -0.1259    5.8832 H         1 <0>         0.0914
     57 H26       -10.9875    1.3510    7.6707 H         1 <0>         0.4382
     58 H27        -5.6719    0.2583    3.7840 H         1 <0>         0.4243
@<TRIPOS>BOND
     1    1    6 ar
     2    1    2 ar
     3    1   32 1
     4    2    3 ar
     5    2   33 1
     6    3    4 ar
     7    3   31 1
     8    4    5 ar
     9    4   34 1
    10    5    6 ar
    11    5   35 1
    12    6    7 1
    13    7   11 1
    14    7    8 1
    15    8    9 2
    16    8   36 1
    17    9   10 1
    18    9   17 1
    19   10   15 ar
    20   10   11 ar
    21   11   12 ar
    22   12   13 ar
    23   12   37 1
    24   13   14 ar
    25   13   38 1
    26   14   15 ar
    27   14   16 1
    28   15   39 1
    29   17   22 1
    30   17   18 1
    31   17   40 1
    32   18   19 1
    33   18   41 1
    34   18   42 1
    35   19   20 1
    36   19   43 1
    37   19   44 1
    38   20   21 1
    39   20   23 1
    40   20   58 1
    41   21   22 1
    42   21   45 1
    43   21   46 1
    44   22   47 1
    45   22   48 1
    46   23   24 1
    47   23   49 1
    48   23   50 1
    49   24   25 1
    50   24   51 1
    51   24   52 1
    52   25   29 am
    53   25   26 1
    54   26   27 1
    55   26   53 1
    56   26   54 1
    57   27   28 1
    58   27   55 1
    59   27   56 1
    60   28   29 am
    61   28   57 1
    62   29   30 2
@<TRIPOS>MOLECULE
ZINC01319785
   47    49     0     0     0
SMALL
USER_CHARGES
ethyl 3-benzoyloxy-8-methyl-8-azabicyclo[3.2.1]octane-2-carboxylate
@<TRIPOS>ATOM
      1 C1          3.9995    4.7104   -3.9821 C.3       1 <0>        -0.1600
      2 C2          2.6475    4.0073   -3.8459 C.3       1 <0>         0.0603
      3 O1          2.1353    4.1996   -2.5009 O.3       1 <0>        -0.3339
      4 C3          0.9485    3.6414   -2.2152 C.2       1 <0>         0.4754
      5 O2          0.3572    3.0129   -3.0610 O.2       1 <0>        -0.5112
      6 C4          0.3535    3.7985   -0.8396 C.3       1 <0>        -0.1077
      7 H1          0.2000    4.8565   -0.6269 H         1 <0>         0.1670
      8 C5         -0.9912    3.0569   -0.7725 C.3       1 <0>         0.0538
      9 H2         -1.7543    3.5340   -1.3875 H         1 <0>         0.1659
     10 C6         -1.4090    2.9688    0.7135 C.3       1 <0>        -0.1406
     11 C7         -0.7571    1.6536    1.2384 C.3       1 <0>        -0.1400
     12 C8         -0.0127    1.0858    0.0080 C.3       1 <0>         0.0253
     13 H3          0.0021   -0.0041    0.0020 H         1 <0>         0.1592
     14 C9         -1.9895    0.9181   -1.4061 C.3       1 <0>        -0.0315
     15 C10         1.4031    1.6841   -0.0023 C.3       1 <0>        -0.1653
     16 C11         1.3029    3.1985    0.2015 C.3       1 <0>         0.0885
     17 H4          2.2910    3.6454    0.0912 H         1 <0>         0.1300
     18 O3          0.7953    3.4741    1.5337 O.3       1 <0>        -0.3351
     19 C12         1.7042    3.6073    2.5190 C.2       1 <0>         0.5048
     20 O4          2.8884    3.4964    2.2721 O.2       1 <0>        -0.4854
     21 C13         1.2608    3.8884    3.8998 C.ar      1 <0>        -0.1389
     22 C14        -0.0993    4.0222    4.1861 C.ar      1 <0>        -0.0679
     23 C15        -0.5067    4.2789    5.4788 C.ar      1 <0>        -0.1307
     24 C16         0.4295    4.4152    6.4884 C.ar      1 <0>        -0.0723
     25 C17         1.7792    4.2895    6.2107 C.ar      1 <0>        -0.1254
     26 C18         2.2002    4.0271    4.9235 C.ar      1 <0>        -0.0496
     27 H5          4.7018    4.2900   -3.2623 H         1 <0>         0.0721
     28 H6          4.3840    4.5661   -4.9917 H         1 <0>         0.0921
     29 H7          3.8760    5.7761   -3.7892 H         1 <0>         0.0733
     30 H8          2.7710    2.9417   -4.0387 H         1 <0>         0.0801
     31 H9          1.9452    4.4278   -4.5657 H         1 <0>         0.0832
     32 H10        -1.0268    3.8268    1.2665 H         1 <0>         0.1318
     33 H11        -2.4942    2.9136    0.7997 H         1 <0>         0.1040
     34 H12        -1.5155    0.9497    1.5811 H         1 <0>         0.0984
     35 H13        -0.0521    1.8731    2.0403 H         1 <0>         0.1217
     36 H14        -2.6302    0.9968   -0.5278 H         1 <0>         0.1187
     37 H15        -2.4995    1.3491   -2.2676 H         1 <0>         0.1250
     38 H16        -1.7688   -0.1312   -1.6019 H         1 <0>         0.1226
     39 H17         1.9907    1.2453    0.8041 H         1 <0>         0.1278
     40 H18         1.8807    1.4754   -0.9596 H         1 <0>         0.1011
     41 H19        -0.8308    3.9204    3.3981 H         1 <0>         0.1338
     42 H20        -1.5587    4.3778    5.7025 H         1 <0>         0.1357
     43 H21         0.1053    4.6202    7.4980 H         1 <0>         0.1358
     44 H22         2.5047    4.3967    7.0035 H         1 <0>         0.1391
     45 H23         3.2539    3.9289    4.7081 H         1 <0>         0.1401
     46 N1         -0.7144    1.6614   -1.1328 N.4       1 <0>        -0.3982
     47 H24        -0.1185    1.6248   -1.9681 H         1 <0>         0.4270
@<TRIPOS>BOND
     1    1    2 1
     2    1   27 1
     3    1   28 1
     4    1   29 1
     5    2    3 1
     6    2   30 1
     7    2   31 1
     8    3    4 1
     9    4    5 2
    10    4    6 1
    11    6    7 1
    12    6   16 1
    13    6    8 1
    14    8    9 1
    15    8   10 1
    16    8   46 1
    17   10   11 1
    18   10   32 1
    19   10   33 1
    20   11   12 1
    21   11   34 1
    22   11   35 1
    23   12   13 1
    24   12   15 1
    25   12   46 1
    26   14   36 1
    27   14   37 1
    28   14   38 1
    29   14   46 1
    30   15   16 1
    31   15   39 1
    32   15   40 1
    33   16   17 1
    34   16   18 1
    35   18   19 1
    36   19   20 2
    37   19   21 1
    38   21   26 ar
    39   21   22 ar
    40   22   23 ar
    41   22   41 1
    42   23   24 ar
    43   23   42 1
    44   24   25 ar
    45   24   43 1
    46   25   26 ar
    47   25   44 1
    48   26   45 1
    49   46   47 1
@<TRIPOS>MOLECULE
ZINC03872127
   47    49     0     0     0
SMALL
USER_CHARGES
ethyl 3-benzoyloxy-8-methyl-8-azabicyclo[3.2.1]octane-2-carboxylate
@<TRIPOS>ATOM
      1 C1          1.4713    1.2435    5.1404 C.3       1 <0>        -0.1576
      2 C2          0.5996    2.1672    4.2873 C.3       1 <0>         0.0656
      3 O1          1.2122    2.3420    2.9825 O.3       1 <0>        -0.3492
      4 C3          0.5682    3.1302    2.1075 C.2       1 <0>         0.4766
      5 O2         -0.4730    3.6567    2.4215 O.2       1 <0>        -0.4845
      6 C4          1.1438    3.3585    0.7336 C.3       1 <0>        -0.1009
      7 H1          2.1273    3.8203    0.8200 H         1 <0>         0.1493
      8 C5          0.2111    4.2800   -0.0664 C.3       1 <0>         0.0454
      9 H2         -0.0324    5.1977    0.4691 H         1 <0>         0.1686
     10 C6         -1.0508    3.4680   -0.4387 C.3       1 <0>        -0.1367
     11 C7         -0.7044    2.7931   -1.7822 C.3       1 <0>        -0.1448
     12 C8          0.7353    3.2588   -2.0997 C.3       1 <0>         0.0300
     13 H3          0.9165    3.3676   -3.1690 H         1 <0>         0.1629
     14 C9          0.1916    5.6336   -2.0920 C.3       1 <0>        -0.0344
     15 C10         1.7065    2.2624   -1.4463 C.3       1 <0>        -0.1582
     16 C11         1.2684    2.0196    0.0008 C.3       1 <0>         0.0839
     17 H4          2.0090    1.3982    0.5044 H         1 <0>         0.1301
     18 O3         -0.0162    1.3429    0.0094 O.3       1 <0>        -0.3402
     19 C12         0.0021   -0.0041    0.0020 C.2       1 <0>         0.5048
     20 O4          1.0621   -0.5970   -0.0113 O.2       1 <0>        -0.4849
     21 C13        -1.2671   -0.7600    0.0101 C.ar      1 <0>        -0.1398
     22 C14        -2.4873   -0.0816    0.0312 C.ar      1 <0>        -0.0678
     23 C15        -3.6687   -0.7938    0.0333 C.ar      1 <0>        -0.1303
     24 C16        -3.6463   -2.1772    0.0257 C.ar      1 <0>        -0.0723
     25 C17        -2.4406   -2.8559    0.0105 C.ar      1 <0>        -0.1255
     26 C18        -1.2518   -2.1562    0.0024 C.ar      1 <0>        -0.0497
     27 H5          1.5630    0.2747    4.6494 H         1 <0>         0.0693
     28 H6          2.4605    1.6855    5.2598 H         1 <0>         0.0708
     29 H7          1.0114    1.1124    6.1199 H         1 <0>         0.0893
     30 H8          0.5078    3.1360    4.7783 H         1 <0>         0.0785
     31 H9         -0.3896    1.7252    4.1679 H         1 <0>         0.0763
     32 H10        -1.2555    2.7150    0.3224 H         1 <0>         0.1284
     33 H11        -1.9079    4.1312   -0.5553 H         1 <0>         0.1006
     34 H12        -1.3907    3.1247   -2.5613 H         1 <0>         0.0963
     35 H13        -0.7387    1.7083   -1.6817 H         1 <0>         0.1215
     36 H14        -0.8684    5.3982   -2.1875 H         1 <0>         0.1207
     37 H15         0.3085    6.5656   -1.5391 H         1 <0>         0.1256
     38 H16         0.6306    5.7420   -3.0838 H         1 <0>         0.1277
     39 H17         2.7154    2.6749   -1.4580 H         1 <0>         0.1130
     40 H18         1.6886    1.3213   -1.9960 H         1 <0>         0.1260
     41 H19        -2.5061    0.9981    0.0418 H         1 <0>         0.1319
     42 H20        -4.6133   -0.2703    0.0452 H         1 <0>         0.1356
     43 H21        -4.5742   -2.7299    0.0320 H         1 <0>         0.1361
     44 H22        -2.4302   -3.9358    0.0046 H         1 <0>         0.1393
     45 H23        -0.3114   -2.6871   -0.0101 H         1 <0>         0.1402
     46 N1          0.8589    4.5135   -1.3524 N.4       1 <0>        -0.3932
     47 H24         1.8492    4.7451   -1.2114 H         1 <0>         0.4261
@<TRIPOS>BOND
     1    1    2 1
     2    1   27 1
     3    1   28 1
     4    1   29 1
     5    2    3 1
     6    2   30 1
     7    2   31 1
     8    3    4 1
     9    4    5 2
    10    4    6 1
    11    6    7 1
    12    6   16 1
    13    6    8 1
    14    8    9 1
    15    8   10 1
    16    8   46 1
    17   10   11 1
    18   10   32 1
    19   10   33 1
    20   11   12 1
    21   11   34 1
    22   11   35 1
    23   12   13 1
    24   12   15 1
    25   12   46 1
    26   14   36 1
    27   14   37 1
    28   14   38 1
    29   14   46 1
    30   15   16 1
    31   15   39 1
    32   15   40 1
    33   16   17 1
    34   16   18 1
    35   18   19 1
    36   19   20 2
    37   19   21 1
    38   21   26 ar
    39   21   22 ar
    40   22   23 ar
    41   22   41 1
    42   23   24 ar
    43   23   42 1
    44   24   25 ar
    45   24   43 1
    46   25   26 ar
    47   25   44 1
    48   26   45 1
    49   46   47 1
@<TRIPOS>MOLECULE
ZINC19796084
   64    68     0     0     0
SMALL
USER_CHARGES

@<TRIPOS>ATOM
      1 C1         -0.2663   -0.3620    5.4641 C.ar      1 <0>        -0.0986
      2 C2          0.6994    0.5149    5.0004 C.ar      1 <0>        -0.1026
      3 C3          1.8638    0.0332    4.4352 C.ar      1 <0>        -0.1044
      4 C4          2.0664   -1.3346    4.3318 C.ar      1 <0>         0.0788
      5 C5          1.0924   -2.2191    4.7995 C.ar      1 <0>         0.0916
      6 C6         -0.0735   -1.7260    5.3654 C.ar      1 <0>        -0.0998
      7 N1          1.5706   -3.5059    4.5639 N.am      1 <0>        -0.6391
      8 H1          1.1107   -4.3313    4.7830 H         1 <0>         0.4399
      9 C7          2.7798   -3.4086    3.9799 C.2       1 <0>         0.6857
     10 O1          3.4724   -4.3503    3.6415 O.2       1 <0>        -0.5583
     11 N2          3.1062   -2.1115    3.8266 N.am      1 <0>        -0.5378
     12 C8          4.3442   -1.6036    3.2301 C.3       1 <0>         0.1610
     13 C9          4.4622   -2.1072    1.7886 C.3       1 <0>        -0.1674
     14 C10         5.7941   -1.6393    1.1981 C.3       1 <0>         0.0018
     15 N3          6.9027   -2.1747    1.9974 N.4       1 <0>        -0.3868
     16 C11         6.8368   -1.6390    3.3624 C.3       1 <0>        -0.0033
     17 C12         5.5451   -2.1068    4.0361 C.3       1 <0>        -0.1667
     18 C13         8.1794   -1.7878    1.3822 C.3       1 <0>        -0.0099
     19 C14         9.3321   -2.4478    2.1415 C.3       1 <0>        -0.1521
     20 C15        10.6618   -2.0449    1.5008 C.3       1 <0>        -0.1087
     21 C16        11.8145   -2.7048    2.2601 C.3       1 <0>         0.0020
     22 C17        11.7312   -4.2008    2.0984 C.ar      1 <0>        -0.0960
     23 C18        11.6406   -4.7550    0.8351 C.ar      1 <0>        -0.0887
     24 C19        11.5647   -6.1268    0.6856 C.ar      1 <0>        -0.1502
     25 C20        11.5793   -6.9462    1.8016 C.ar      1 <0>         0.1040
     26 C21        11.6701   -6.3900    3.0664 C.ar      1 <0>        -0.1491
     27 C22        11.7512   -5.0182    3.2131 C.ar      1 <0>        -0.0845
     28 F1         11.5046   -8.2873    1.6567 F         1 <0>        -0.1345
     29 C23        13.1272   -2.2122    1.7076 C.ar      1 <0>        -0.0972
     30 C24        13.3682   -2.2667    0.3474 C.ar      1 <0>        -0.0865
     31 C25        14.5714   -1.8148   -0.1604 C.ar      1 <0>        -0.1502
     32 C26        15.5358   -1.3073    0.6937 C.ar      1 <0>         0.1057
     33 C27        15.2933   -1.2531    2.0559 C.ar      1 <0>        -0.1489
     34 C28        14.0872   -1.7008    2.5608 C.ar      1 <0>        -0.0812
     35 F2         16.7126   -0.8656    0.1985 F         1 <0>        -0.1344
     36 H2         -1.1724    0.0221    5.9090 H         1 <0>         0.1403
     37 H3          0.5414    1.5802    5.0807 H         1 <0>         0.1389
     38 H4          2.6148    0.7203    4.0743 H         1 <0>         0.1287
     39 H5         -0.8291   -2.4070    5.7282 H         1 <0>         0.1370
     40 H6          4.3316   -0.5137    3.2367 H         1 <0>         0.1148
     41 H7          4.4224   -3.1964    1.7792 H         1 <0>         0.1076
     42 H8          3.6403   -1.7072    1.1949 H         1 <0>         0.1178
     43 H9          5.8813   -1.9960    0.1718 H         1 <0>         0.1377
     44 H10         5.8327   -0.5501    1.2078 H         1 <0>         0.1327
     45 H11         7.6939   -1.9955    3.9338 H         1 <0>         0.1389
     46 H12         6.8532   -0.5498    3.3259 H         1 <0>         0.1330
     47 H13         5.4972   -1.7066    5.0489 H         1 <0>         0.1174
     48 H14         5.5278   -3.1961    4.0734 H         1 <0>         0.1073
     49 H15         8.1953   -2.1141    0.3423 H         1 <0>         0.1326
     50 H16         8.2896   -0.7042    1.4247 H         1 <0>         0.1320
     51 H17         9.3162   -2.1215    3.1814 H         1 <0>         0.0898
     52 H18         9.2220   -3.5314    2.0990 H         1 <0>         0.0914
     53 H19        10.6777   -2.3712    0.4609 H         1 <0>         0.0799
     54 H20        10.7720   -0.9613    1.5433 H         1 <0>         0.0841
     55 H21        11.7465   -2.4493    3.3175 H         1 <0>         0.0944
     56 H22        11.6289   -4.1157   -0.0352 H         1 <0>         0.1319
     57 H23        11.4935   -6.5595   -0.3014 H         1 <0>         0.1380
     58 H24        11.6812   -7.0281    3.9376 H         1 <0>         0.1387
     59 H25        11.8265   -4.5844    4.1993 H         1 <0>         0.1333
     60 H26        12.6160   -2.6630   -0.3186 H         1 <0>         0.1302
     61 H27        14.7596   -1.8579   -1.2230 H         1 <0>         0.1383
     62 H28        16.0449   -0.8577    2.7231 H         1 <0>         0.1395
     63 H29        13.8961   -1.6545    3.6228 H         1 <0>         0.1335
     64 H30         6.8381   -3.1812    2.0286 H         1 <0>         0.4267
@<TRIPOS>BOND
     1    1    6 ar
     2    1    2 ar
     3    1   36 1
     4    2    3 ar
     5    2   37 1
     6    3    4 ar
     7    3   38 1
     8    4   11 1
     9    4    5 ar
    10    5    6 ar
    11    5    7 1
    12    6   39 1
    13    7    8 1
    14    7    9 am
    15    9   10 2
    16    9   11 am
    17   11   12 1
    18   12   17 1
    19   12   13 1
    20   12   40 1
    21   13   14 1
    22   13   41 1
    23   13   42 1
    24   14   15 1
    25   14   43 1
    26   14   44 1
    27   15   16 1
    28   15   18 1
    29   15   64 1
    30   16   17 1
    31   16   45 1
    32   16   46 1
    33   17   47 1
    34   17   48 1
    35   18   19 1
    36   18   49 1
    37   18   50 1
    38   19   20 1
    39   19   51 1
    40   19   52 1
    41   20   21 1
    42   20   53 1
    43   20   54 1
    44   21   22 1
    45   21   29 1
    46   21   55 1
    47   22   27 ar
    48   22   23 ar
    49   23   24 ar
    50   23   56 1
    51   24   25 ar
    52   24   57 1
    53   25   26 ar
    54   25   28 1
    55   26   27 ar
    56   26   58 1
    57   27   59 1
    58   29   34 ar
    59   29   30 ar
    60   30   31 ar
    61   30   60 1
    62   31   32 ar
    63   31   61 1
    64   32   33 ar
    65   32   35 1
    66   33   34 ar
    67   33   62 1
    68   34   63 1
@<TRIPOS>MOLECULE
ZINC36378506
   49    51     0     0     0
SMALL
USER_CHARGES

@<TRIPOS>ATOM
      1 C1          1.8276    2.2029   -1.1718 C.3       1 <0>        -0.1892
      2 C2          1.0172    0.9398   -1.4697 C.3       1 <0>        -0.0140
      3 N1          1.1150    0.0156   -0.3320 N.4       1 <0>        -0.3845
      4 C3          0.4760    0.6186    0.8452 C.3       1 <0>        -0.0176
      5 C4          0.7389   -0.2563    2.0725 C.3       1 <0>        -0.1878
      6 C5          0.4376   -1.2446   -0.6652 C.3       1 <0>         0.0435
      7 C6          1.1195   -1.8843   -1.8470 C.ar      1 <0>        -0.1792
      8 C7          0.5227   -1.8442   -3.0931 C.ar      1 <0>        -0.0437
      9 C8          1.1445   -2.4293   -4.1787 C.ar      1 <0>        -0.1289
     10 C9          2.3725   -3.0606   -4.0202 C.ar      1 <0>         0.1701
     11 C10         2.9731   -3.1017   -2.7695 C.ar      1 <0>        -0.1691
     12 C11         2.3485   -2.5079   -1.6838 C.ar      1 <0>         0.1589
     13 O1          2.9367   -2.5412   -0.4592 O.3       1 <0>        -0.4968
     14 N2          3.0013   -3.6534   -5.1181 N.pl3     1 <0>        -0.6289
     15 C12         3.6396   -4.8765   -4.9747 C.ar      1 <0>         0.3480
     16 C13         3.5313   -5.6065   -3.8010 C.ar      1 <0>        -0.2641
     17 C14         4.1815   -6.8273   -3.6882 C.ar      1 <0>         0.2413
     18 N3          4.9045   -7.3205   -4.6670 N.ar      1 <0>        -0.4943
     19 C15         5.0532   -6.6707   -5.8270 C.ar      1 <0>         0.1841
     20 C16         4.4173   -5.4215   -6.0240 C.ar      1 <0>        -0.1255
     21 C17         4.5720   -4.7474   -7.2434 C.ar      1 <0>        -0.0499
     22 C18         5.3289   -5.3041   -8.2297 C.ar      1 <0>        -0.0939
     23 C19         5.9523   -6.5366   -8.0417 C.ar      1 <0>         0.0451
     24 C20         5.8314   -7.2119   -6.8644 C.ar      1 <0>        -0.1394
     25 Cl1         6.9087   -7.2149   -9.3219 Cl        1 <0>         0.0024
     26 H1          1.4334    2.6849   -0.2771 H         1 <0>         0.0836
     27 H2          2.8717    1.9350   -1.0101 H         1 <0>         0.0795
     28 H3          1.7549    2.8887   -2.0159 H         1 <0>         0.1076
     29 H4         -0.0270    1.2077   -1.6313 H         1 <0>         0.1310
     30 H5          1.4113    0.4578   -2.3643 H         1 <0>         0.1243
     31 H6          0.8887    1.6134    1.0130 H         1 <0>         0.1359
     32 H7         -0.5982    0.6946    0.6765 H         1 <0>         0.1316
     33 H8          0.3504   -1.2589    1.8939 H         1 <0>         0.0774
     34 H9          1.8117   -0.3099    2.2574 H         1 <0>         0.0820
     35 H10         0.2418    0.1767    2.9406 H         1 <0>         0.1090
     36 H11         0.4837   -1.9191    0.1898 H         1 <0>         0.1403
     37 H12        -0.6046   -1.0425   -0.9127 H         1 <0>         0.1407
     38 H13        -0.4318   -1.3547   -3.2180 H         1 <0>         0.1536
     39 H14         0.6760   -2.3965   -5.1513 H         1 <0>         0.1514
     40 H15         3.9273   -3.5916   -2.6434 H         1 <0>         0.1525
     41 H16         2.6967   -3.3131    0.0715 H         1 <0>         0.4122
     42 H17         2.9914   -3.2096   -5.9806 H         1 <0>         0.4340
     43 H18         2.9439   -5.2267   -2.9781 H         1 <0>         0.1820
     44 H19         4.0905   -7.3874   -2.7692 H         1 <0>         0.2131
     45 H20         4.0932   -3.7921   -7.4002 H         1 <0>         0.1562
     46 H21         5.4473   -4.7842   -9.1690 H         1 <0>         0.1668
     47 H22         6.3205   -8.1659   -6.7341 H         1 <0>         0.1717
     48 H23         2.0865   -0.1680   -0.1304 H         1 <0>         0.4260
     49 H24         5.3421   -8.1776   -4.5459 H         1 <0>         0.4508
@<TRIPOS>BOND
     1    1    2 1
     2    1   26 1
     3    1   27 1
     4    1   28 1
     5    2    3 1
     6    2   29 1
     7    2   30 1
     8    3    4 1
     9    3    6 1
    10    3   48 1
    11    4    5 1
    12    4   31 1
    13    4   32 1
    14    5   33 1
    15    5   34 1
    16    5   35 1
    17    6    7 1
    18    6   36 1
    19    6   37 1
    20    7   12 ar
    21    7    8 ar
    22    8    9 ar
    23    8   38 1
    24    9   10 ar
    25    9   39 1
    26   10   11 ar
    27   10   14 1
    28   11   12 ar
    29   11   40 1
    30   12   13 1
    31   13   41 1
    32   14   15 1
    33   14   42 1
    34   15   20 ar
    35   15   16 ar
    36   16   17 ar
    37   16   43 1
    38   17   18 ar
    39   17   44 1
    40   18   19 ar
    41   18   49 1
    42   19   24 ar
    43   19   20 ar
    44   20   21 ar
    45   21   22 ar
    46   21   45 1
    47   22   23 ar
    48   22   46 1
    49   23   24 ar
    50   23   25 1
    51   24   47 1
@<TRIPOS>MOLECULE
ZINC38494609
   49    51     0     0     0
SMALL
USER_CHARGES

@<TRIPOS>ATOM
      1 C1         -0.0492    1.8017   -0.1796 C.3       1 <0>        -0.1780
      2 C2         -0.2728    0.2961   -0.3340 C.3       1 <0>         0.0551
      3 C3          0.2343   -0.4257    0.9161 C.3       1 <0>        -0.1797
      4 C4         -1.7667    0.0180   -0.5128 C.3       1 <0>        -0.1786
      5 N1          0.4599   -0.1896   -1.5110 N.4       1 <0>        -0.5022
      6 C5          1.8942    0.0774   -1.3394 C.3       1 <0>         0.0400
      7 C6          2.6459   -0.4208   -2.5468 C.ar      1 <0>        -0.1852
      8 C7          3.2980   -1.6387   -2.4997 C.ar      1 <0>        -0.0414
      9 C8          3.9879   -2.0988   -3.6040 C.ar      1 <0>        -0.1295
     10 C9          4.0285   -1.3373   -4.7659 C.ar      1 <0>         0.1716
     11 C10         3.3742   -0.1141   -4.8149 C.ar      1 <0>        -0.1699
     12 C11         2.6777    0.3411   -3.7062 C.ar      1 <0>         0.1626
     13 O1          2.0311    1.5355   -3.7528 O.3       1 <0>        -0.4954
     14 N2          4.7272   -1.8021   -5.8831 N.pl3     1 <0>        -0.6294
     15 C12         5.5043   -0.9276   -6.6283 C.ar      1 <0>         0.3482
     16 C13         5.7284    0.3721   -6.2007 C.ar      1 <0>        -0.2639
     17 C14         6.5110    1.2231   -6.9683 C.ar      1 <0>         0.2415
     18 N3          7.0528    0.8347   -8.0994 N.ar      1 <0>        -0.4944
     19 C15         6.8785   -0.4044   -8.5729 C.ar      1 <0>         0.1841
     20 C16         6.0983   -1.3356   -7.8463 C.ar      1 <0>        -0.1256
     21 C17         5.9234   -2.6343   -8.3442 C.ar      1 <0>        -0.0499
     22 C18         6.5109   -2.9897   -9.5208 C.ar      1 <0>        -0.0938
     23 C19         7.2846   -2.0774  -10.2365 C.ar      1 <0>         0.0451
     24 C20         7.4647   -0.8042   -9.7859 C.ar      1 <0>        -0.1394
     25 Cl1         8.0182   -2.5667  -11.7319 Cl        1 <0>         0.0024
     26 H1          1.0150    1.9998   -0.0523 H         1 <0>         0.0801
     27 H2         -0.4105    2.3159   -1.0702 H         1 <0>         0.0838
     28 H3         -0.5929    2.1621    0.6937 H         1 <0>         0.1082
     29 H4         -0.3094   -0.0654    1.7894 H         1 <0>         0.1090
     30 H5          0.0750   -1.4984    0.8060 H         1 <0>         0.0832
     31 H6          1.2986   -0.2276    1.0434 H         1 <0>         0.0812
     32 H7         -2.1279    0.5322   -1.4034 H         1 <0>         0.0827
     33 H8         -1.9260   -1.0547   -0.6228 H         1 <0>         0.0827
     34 H9         -2.3104    0.3783    0.3605 H         1 <0>         0.1096
     35 H10         0.3125   -1.1826   -1.6129 H         1 <0>         0.4255
     36 H11         2.0535    1.1500   -1.2293 H         1 <0>         0.1422
     37 H12         2.2555   -0.4368   -0.4488 H         1 <0>         0.1448
     38 H13         3.2681   -2.2314   -1.5974 H         1 <0>         0.1535
     39 H14         4.4966   -3.0507   -3.5646 H         1 <0>         0.1512
     40 H15         3.4040    0.4798   -5.7164 H         1 <0>         0.1523
     41 H16         2.5739    2.2876   -3.4791 H         1 <0>         0.4119
     42 H17         4.6689   -2.7363   -6.1374 H         1 <0>         0.4341
     43 H18         5.2957    0.7207   -5.2746 H         1 <0>         0.1816
     44 H19         6.6787    2.2335   -6.6258 H         1 <0>         0.2130
     45 H20         5.3264   -3.3494   -7.7978 H         1 <0>         0.1563
     46 H21         6.3760   -3.9905   -9.9034 H         1 <0>         0.1668
     47 H22         8.0669   -0.1090  -10.3520 H         1 <0>         0.1716
     48 H23         0.1255    0.2864   -2.3354 H         1 <0>         0.4293
     49 H24         7.5930    1.4621   -8.6048 H         1 <0>         0.4508
@<TRIPOS>BOND
     1    1    2 1
     2    1   26 1
     3    1   27 1
     4    1   28 1
     5    2    3 1
     6    2    4 1
     7    2    5 1
     8    3   29 1
     9    3   30 1
    10    3   31 1
    11    4   32 1
    12    4   33 1
    13    4   34 1
    14    5    6 1
    15    5   35 1
    16    5   48 1
    17    6    7 1
    18    6   36 1
    19    6   37 1
    20    7   12 ar
    21    7    8 ar
    22    8    9 ar
    23    8   38 1
    24    9   10 ar
    25    9   39 1
    26   10   11 ar
    27   10   14 1
    28   11   12 ar
    29   11   40 1
    30   12   13 1
    31   13   41 1
    32   14   15 1
    33   14   42 1
    34   15   20 ar
    35   15   16 ar
    36   16   17 ar
    37   16   43 1
    38   17   18 ar
    39   17   44 1
    40   18   19 ar
    41   18   49 1
    42   19   24 ar
    43   19   20 ar
    44   20   21 ar
    45   21   22 ar
    46   21   45 1
    47   22   23 ar
    48   22   46 1
    49   23   24 ar
    50   23   25 1
    51   24   47 1
@<TRIPOS>MOLECULE
ZINC00004531
   38    39     0     0     0
SMALL
USER_CHARGES
3-phenyl-3-[4-(trifluoromethyl)phenoxy]-propan-1-amine
@<TRIPOS>ATOM
      1 C1         -1.2155    2.6299    6.3210 C.ar      1 <0>        -0.1005
      2 C2         -0.1846    3.2391    5.6305 C.ar      1 <0>        -0.1160
      3 C3          0.2221    2.7349    4.4093 C.ar      1 <0>        -0.1047
      4 C4         -0.4014    1.6209    3.8791 C.ar      1 <0>        -0.1154
      5 C5         -1.4356    1.0146    4.5675 C.ar      1 <0>        -0.0898
      6 C6         -1.8394    1.5162    5.7907 C.ar      1 <0>        -0.1178
      7 C7          0.0420    1.0713    2.5479 C.3       1 <0>         0.1343
      8 H1          1.0791    1.3528    2.3658 H         1 <0>         0.0997
      9 C8         -0.8439    1.6432    1.4393 C.3       1 <0>        -0.1695
     10 C9         -0.3172    1.1846    0.0780 C.3       1 <0>        -0.0166
     11 O1         -0.0698   -0.3533    2.5597 O.3       1 <0>        -0.2929
     12 C10         0.8574   -1.0508    1.8520 C.ar      1 <0>         0.1497
     13 C11         0.7795   -2.4340    1.7790 C.ar      1 <0>        -0.1464
     14 C12         1.7197   -3.1402    1.0538 C.ar      1 <0>        -0.0213
     15 C13         2.7446   -2.4706    0.4114 C.ar      1 <0>        -0.2122
     16 C14         2.8277   -1.0926    0.4873 C.ar      1 <0>        -0.0251
     17 C15         1.8865   -0.3813    1.2061 C.ar      1 <0>        -0.2345
     18 C16         3.7727   -3.2441   -0.3734 C.3       1 <0>         0.5090
     19 F1          4.8380   -3.5881    0.4657 F         1 <0>        -0.1716
     20 F2          3.1892   -4.4072   -0.8870 F         1 <0>        -0.1740
     21 F3          4.2454   -2.4549   -1.4275 F         1 <0>        -0.1773
     22 H2         -1.5333    3.0238    7.2751 H         1 <0>         0.1302
     23 H3          0.3028    4.1093    6.0448 H         1 <0>         0.1309
     24 H4          1.0273    3.2111    3.8696 H         1 <0>         0.1243
     25 H5         -1.9257    0.1468    4.1512 H         1 <0>         0.1282
     26 H6         -2.6446    1.0400    6.3304 H         1 <0>         0.1299
     27 H7         -0.8281    2.7321    1.4870 H         1 <0>         0.1102
     28 H8         -1.8660    1.2885    1.5717 H         1 <0>         0.1057
     29 H9         -0.3330    0.0958    0.0303 H         1 <0>         0.1365
     30 H10         0.7049    1.5393   -0.0544 H         1 <0>         0.1359
     31 H11        -0.8404    1.4450   -1.8961 H         1 <0>         0.4427
     32 H12        -2.1326    1.4721   -0.8495 H         1 <0>         0.4389
     33 H13        -0.0181   -2.9579    2.2847 H         1 <0>         0.1489
     34 H14         1.6565   -4.2166    0.9924 H         1 <0>         0.1500
     35 H15         3.6289   -0.5718   -0.0160 H         1 <0>         0.1437
     36 H16         1.9516    0.6952    1.2648 H         1 <0>         0.1410
     37 N1         -1.1641    1.7585   -0.9826 N.4       1 <0>        -0.6445
     38 H17        -1.1091    2.7830   -0.9411 H         1 <0>         0.4404
@<TRIPOS>BOND
     1    1    6 ar
     2    1    2 ar
     3    1   22 1
     4    2    3 ar
     5    2   23 1
     6    3    4 ar
     7    3   24 1
     8    4    5 ar
     9    4    7 1
    10    5    6 ar
    11    5   25 1
    12    6   26 1
    13    7    8 1
    14    7    9 1
    15    7   11 1
    16    9   10 1
    17    9   27 1
    18    9   28 1
    19   10   29 1
    20   10   30 1
    21   10   37 1
    22   11   12 1
    23   12   17 ar
    24   12   13 ar
    25   13   14 ar
    26   13   33 1
    27   14   15 ar
    28   14   34 1
    29   15   16 ar
    30   15   18 1
    31   16   17 ar
    32   16   35 1
    33   17   36 1
    34   18   19 1
    35   18   20 1
    36   18   21 1
    37   31   37 1
    38   32   37 1
    39   37   38 1
@<TRIPOS>MOLECULE
ZINC01645453
   38    39     0     0     0
SMALL
USER_CHARGES
3-phenyl-3-[4-(trifluoromethyl)phenoxy]-propan-1-amine
@<TRIPOS>ATOM
      1 C1          0.0988   -0.1574    0.2509 C.ar      1 <0>        -0.1000
      2 C2          0.0237    1.2229    0.2414 C.ar      1 <0>        -0.1183
      3 C3          1.1790    1.9773    0.1566 C.ar      1 <0>        -0.0896
      4 C4          2.4091    1.3515    0.0797 C.ar      1 <0>        -0.1173
      5 C5          2.4842   -0.0288    0.0897 C.ar      1 <0>        -0.1036
      6 C6          1.3290   -0.7832    0.1755 C.ar      1 <0>        -0.1162
      7 C7          3.6685    2.1739   -0.0128 C.3       1 <0>         0.1338
      8 H1          4.5219    1.5669    0.2893 H         1 <0>         0.0998
      9 C8          3.8639    2.6468   -1.4548 C.3       1 <0>        -0.1678
     10 C9          5.2040    3.3753   -1.5754 C.3       1 <0>        -0.0162
     11 O1          3.5613    3.3080    0.8500 O.3       1 <0>        -0.2940
     12 C10         4.6779    3.6700    1.5348 C.ar      1 <0>         0.1505
     13 C11         5.8799    3.0192    1.2976 C.ar      1 <0>        -0.2336
     14 C12         7.0148    3.3926    1.9913 C.ar      1 <0>        -0.0251
     15 C13         6.9510    4.4069    2.9287 C.ar      1 <0>        -0.2117
     16 C14         5.7530    5.0533    3.1710 C.ar      1 <0>        -0.0213
     17 C15         4.6165    4.6871    2.4762 C.ar      1 <0>        -0.1451
     18 C16         8.1893    4.8084    3.6880 C.3       1 <0>         0.5091
     19 F1          8.2850    4.0489    4.8590 F         1 <0>        -0.1720
     20 F2          9.3178    4.5829    2.8925 F         1 <0>        -0.1772
     21 F3          8.1146    6.1660    4.0175 F         1 <0>        -0.1739
     22 H2         -0.8037   -0.7468    0.3176 H         1 <0>         0.1302
     23 H3         -0.9377    1.7118    0.2958 H         1 <0>         0.1298
     24 H4          1.1203    3.0557    0.1488 H         1 <0>         0.1272
     25 H5          3.4453   -0.5177    0.0307 H         1 <0>         0.1244
     26 H6          1.3877   -1.8616    0.1833 H         1 <0>         0.1309
     27 H7          3.8568    1.7861   -2.1235 H         1 <0>         0.1101
     28 H8          3.0557    3.3254   -1.7273 H         1 <0>         0.1057
     29 H9          5.2111    4.2360   -0.9066 H         1 <0>         0.1375
     30 H10         6.0123    2.6967   -1.3028 H         1 <0>         0.1352
     31 H11         4.6212    4.4086   -3.2579 H         1 <0>         0.4390
     32 H12         6.2704    4.3138   -3.0654 H         1 <0>         0.4428
     33 H13         5.9293    2.2240    0.5685 H         1 <0>         0.1390
     34 H14         7.9518    2.8893    1.8038 H         1 <0>         0.1433
     35 H15         5.7057    5.8453    3.9037 H         1 <0>         0.1499
     36 H16         3.6810    5.1925    2.6655 H         1 <0>         0.1487
     37 N1          5.3918    3.8070   -2.9717 N.4       1 <0>        -0.6444
     38 H17         5.4153    2.9803   -3.5803 H         1 <0>         0.4405
@<TRIPOS>BOND
     1    1    6 ar
     2    1    2 ar
     3    1   22 1
     4    2    3 ar
     5    2   23 1
     6    3    4 ar
     7    3   24 1
     8    4    5 ar
     9    4    7 1
    10    5    6 ar
    11    5   25 1
    12    6   26 1
    13    7    8 1
    14    7    9 1
    15    7   11 1
    16    9   10 1
    17    9   27 1
    18    9   28 1
    19   10   29 1
    20   10   30 1
    21   10   37 1
    22   11   12 1
    23   12   17 ar
    24   12   13 ar
    25   13   14 ar
    26   13   33 1
    27   14   15 ar
    28   14   34 1
    29   15   16 ar
    30   15   18 1
    31   16   17 ar
    32   16   35 1
    33   17   36 1
    34   18   19 1
    35   18   20 1
    36   18   21 1
    37   31   37 1
    38   32   37 1
    39   37   38 1
@<TRIPOS>MOLECULE
ZINC00897085
   43    45     0     0     0
SMALL
USER_CHARGES

@<TRIPOS>ATOM
      1 C1         -0.0168    1.3889    0.0097 C.ar      1 <0>        -0.0823
      2 C2          1.1424    2.1034    0.0024 C.ar      1 <0>        -0.0939
      3 C3          2.3733    1.4284   -0.0129 C.ar      1 <0>        -0.0685
      4 C4          3.5939    2.1297   -0.0202 C.ar      1 <0>        -0.0634
      5 C5          4.7524    1.4066   -0.0348 C.ar      1 <0>        -0.1163
      6 C6          4.7030    0.0141   -0.0421 C.ar      1 <0>         0.0954
      7 N1          3.5646   -0.6358   -0.0352 N.ar      1 <0>        -0.4052
      8 C7          2.3949    0.0115   -0.0208 C.ar      1 <0>         0.1644
      9 C8          1.1773   -0.6905   -0.0134 C.ar      1 <0>        -0.1407
     10 C9          0.0021   -0.0041    0.0020 C.ar      1 <0>        -0.0344
     11 C10         1.1730   -2.1975   -0.0224 C.3       1 <0>         0.5150
     12 F1         -0.1473   -2.6601   -0.0125 F         1 <0>        -0.1722
     13 F2          1.8201   -2.6588   -1.1737 F         1 <0>        -0.1625
     14 F3          1.8420   -2.6725    1.1107 F         1 <0>        -0.1644
     15 C11         5.9925   -0.7655   -0.0587 C.3       1 <0>         0.5198
     16 F4          6.4042   -1.0140    1.2550 F         1 <0>        -0.1626
     17 F5          5.7943   -1.9806   -0.7231 F         1 <0>        -0.1519
     18 F6          6.9762   -0.0255   -0.7236 F         1 <0>        -0.1649
     19 C12         3.6215    3.6365   -0.0127 C.3       1 <0>         0.1370
     20 H1          2.7812    4.0181   -0.5926 H         1 <0>         0.1450
     21 C13         3.5180    4.1412    1.4280 C.3       1 <0>        -0.0084
     22 H2          2.6287    3.7202    1.8970 H         1 <0>         0.1529
     23 C14         4.7599    3.7080    2.2100 C.3       1 <0>        -0.1533
     24 C15         4.6517    4.2152    3.6509 C.3       1 <0>        -0.1344
     25 C16         4.4776    5.7365    3.6345 C.3       1 <0>        -0.1492
     26 C17         3.2461    6.0945    2.7997 C.3       1 <0>        -0.0072
     27 N2          3.4230    5.6059    1.4269 N.4       1 <0>        -0.4984
     28 O1          4.8459    4.0934   -0.5907 O.3       1 <0>        -0.5350
     29 H3         -0.9632    1.9089    0.0261 H         1 <0>         0.1552
     30 H4          1.1150    3.1831    0.0081 H         1 <0>         0.1397
     31 H5          5.7060    1.9136   -0.0411 H         1 <0>         0.1579
     32 H6         -0.9309   -0.5481    0.0084 H         1 <0>         0.1618
     33 H7          4.8282    2.6202    2.2111 H         1 <0>         0.1133
     34 H8          5.6498    4.1288    1.7419 H         1 <0>         0.0951
     35 H9          3.7906    3.7549    4.1356 H         1 <0>         0.0846
     36 H10         5.5593    3.9580    4.1969 H         1 <0>         0.1003
     37 H11         4.3440    6.0986    4.6539 H         1 <0>         0.1163
     38 H12         5.3616    6.1994    3.1960 H         1 <0>         0.0912
     39 H13         2.3626    5.6314    3.2392 H         1 <0>         0.1319
     40 H14         3.1191    7.1770    2.7861 H         1 <0>         0.1388
     41 H15         4.2680    5.9965    1.0378 H         1 <0>         0.4323
     42 H16         5.6376    3.7911   -0.1249 H         1 <0>         0.3908
     43 H17         2.6340    5.8904    0.8659 H         1 <0>         0.4307
@<TRIPOS>BOND
     1    1   10 ar
     2    1    2 ar
     3    1   29 1
     4    2    3 ar
     5    2   30 1
     6    3    8 ar
     7    3    4 ar
     8    4    5 ar
     9    4   19 1
    10    5    6 ar
    11    5   31 1
    12    6    7 ar
    13    6   15 1
    14    7    8 ar
    15    8    9 ar
    16    9   10 ar
    17    9   11 1
    18   10   32 1
    19   11   12 1
    20   11   13 1
    21   11   14 1
    22   15   16 1
    23   15   17 1
    24   15   18 1
    25   19   20 1
    26   19   21 1
    27   19   28 1
    28   21   22 1
    29   21   27 1
    30   21   23 1
    31   23   24 1
    32   23   33 1
    33   23   34 1
    34   24   25 1
    35   24   35 1
    36   24   36 1
    37   25   26 1
    38   25   37 1
    39   25   38 1
    40   26   27 1
    41   26   39 1
    42   26   40 1
    43   27   41 1
    44   27   43 1
    45   28   42 1
@<TRIPOS>MOLECULE
ZINC03818809
   48    51     0     0     0
SMALL
USER_CHARGES
4-[2-[2-(2-methylpyrrolidin-1-yl)ethyl]benzofuran-5-yl]benzonitrile
@<TRIPOS>ATOM
      1 C1         -3.2172   10.1483   -2.7373 C.3       1 <0>        -0.1814
      2 C2         -3.8440    8.7528   -2.7156 C.3       1 <0>         0.0223
      3 H1         -3.3431    8.1076   -3.4374 H         1 <0>         0.1397
      4 C3         -5.3474    8.8473   -3.0507 C.3       1 <0>        -0.1390
      5 C4         -6.0180    8.8467   -1.6517 C.3       1 <0>        -0.1431
      6 C5         -5.0938    7.8864   -0.8622 C.3       1 <0>        -0.0135
      7 C6         -2.9092    6.9581   -1.3779 C.3       1 <0>        -0.0003
      8 C7         -2.6101    6.5283    0.0597 C.3       1 <0>        -0.0628
      9 C8         -1.7647    5.2809    0.0455 C.2       1 <0>         0.0021
     10 C9         -0.4251    5.2626    0.0329 C.2       1 <0>        -0.1659
     11 C10        -0.0356    3.8471    0.0221 C.ar      1 <0>        -0.1367
     12 C11         1.1830    3.1738    0.0073 C.ar      1 <0>        -0.0523
     13 C12         1.1935    1.7842    0.0002 C.ar      1 <0>        -0.0584
     14 C13        -0.0126    1.0758    0.0080 C.ar      1 <0>        -0.0686
     15 C14        -1.2083    1.7350    0.0172 C.ar      1 <0>        -0.1029
     16 C15        -1.2419    3.1252    0.0298 C.ar      1 <0>         0.0669
     17 O1         -2.2457    4.0255    0.0437 O.3       1 <0>        -0.1902
     18 C16         2.4830    1.0525   -0.0160 C.ar      1 <0>        -0.0199
     19 C17         3.6855    1.7599   -0.0294 C.ar      1 <0>        -0.1120
     20 C18         4.8833    1.0819   -0.0388 C.ar      1 <0>        -0.0647
     21 C19         4.8945   -0.3157   -0.0464 C.ar      1 <0>        -0.0195
     22 C20         3.6890   -1.0230   -0.0387 C.ar      1 <0>        -0.0637
     23 C21         2.4927   -0.3426   -0.0236 C.ar      1 <0>        -0.1102
     24 C22         6.1399   -1.0224   -0.0625 C.1       1 <0>         0.2433
     25 N1          7.1279   -1.5829   -0.0753 N.1       1 <0>        -0.4015
     26 H2         -2.1651   10.0784   -2.4612 H         1 <0>         0.0812
     27 H3         -3.3027   10.5695   -3.7390 H         1 <0>         0.1068
     28 H4         -3.7372   10.7913   -2.0272 H         1 <0>         0.0822
     29 H5         -5.5663    9.7732   -3.5826 H         1 <0>         0.1134
     30 H6         -5.6678    7.9827   -3.6320 H         1 <0>         0.0997
     31 H7         -6.0092    9.8449   -1.2141 H         1 <0>         0.0986
     32 H8         -7.0339    8.4553   -1.7058 H         1 <0>         0.1171
     33 H9         -5.3618    6.8495   -1.0651 H         1 <0>         0.1342
     34 H10        -5.1558    8.0931    0.2063 H         1 <0>         0.1346
     35 H11        -1.9733    7.1594   -1.8991 H         1 <0>         0.1351
     36 H12        -3.4467    6.1608   -1.8911 H         1 <0>         0.1344
     37 H13        -3.5460    6.3271    0.5810 H         1 <0>         0.1074
     38 H14        -2.0726    7.3257    0.5730 H         1 <0>         0.1173
     39 H15         0.2353    6.1172    0.0313 H         1 <0>         0.1631
     40 H16         2.1110    3.7262    0.0018 H         1 <0>         0.1379
     41 H17         0.0021   -0.0041    0.0020 H         1 <0>         0.1464
     42 H18        -2.1316    1.1746    0.0189 H         1 <0>         0.1398
     43 H19         3.6765    2.8398   -0.0280 H         1 <0>         0.1356
     44 H20         5.8141    1.6297   -0.0451 H         1 <0>         0.1382
     45 H21         3.6962   -2.1030   -0.0442 H         1 <0>         0.1393
     46 H22         1.5610   -0.8888   -0.0180 H         1 <0>         0.1384
     47 N2         -3.7387    8.1910   -1.3569 N.4       1 <0>        -0.3959
     48 H23        -3.2983    8.8808   -0.7369 H         1 <0>         0.4273
@<TRIPOS>BOND
     1    1    2 1
     2    1   26 1
     3    1   27 1
     4    1   28 1
     5    2    3 1
     6    2    4 1
     7    2   47 1
     8    4    5 1
     9    4   29 1
    10    4   30 1
    11    5    6 1
    12    5   31 1
    13    5   32 1
    14    6   33 1
    15    6   34 1
    16    6   47 1
    17    7    8 1
    18    7   35 1
    19    7   36 1
    20    7   47 1
    21    8    9 1
    22    8   37 1
    23    8   38 1
    24    9   17 1
    25    9   10 2
    26   10   11 1
    27   10   39 1
    28   11   16 ar
    29   11   12 ar
    30   12   13 ar
    31   12   40 1
    32   13   14 ar
    33   13   18 1
    34   14   15 ar
    35   14   41 1
    36   15   16 ar
    37   15   42 1
    38   16   17 1
    39   18   23 ar
    40   18   19 ar
    41   19   20 ar
    42   19   43 1
    43   20   21 ar
    44   20   44 1
    45   21   22 ar
    46   21   24 1
    47   22   23 ar
    48   22   45 1
    49   23   46 1
    50   24   25 3
    51   47   48 1
@<TRIPOS>MOLECULE
ZINC13589385
   48    51     0     0     0
SMALL
USER_CHARGES
4-[2-[2-[(2S)-2-methylpyrrolidin-1-yl]ethyl]benzofuran-5-yl]benzonitrile
@<TRIPOS>ATOM
      1 C1          3.7311    2.9048    0.5039 C.3       1 <0>        -0.1813
      2 C2          2.7228    4.0457    0.3541 C.3       1 <0>         0.0242
      3 H1          2.5211    4.4954    1.3263 H         1 <0>         0.1391
      4 C3          3.2772    5.1128   -0.6130 C.3       1 <0>        -0.1392
      5 C4          2.0192    5.5516   -1.4078 C.3       1 <0>        -0.1436
      6 C5          1.2403    4.2175   -1.5223 C.3       1 <0>        -0.0134
      7 C6          1.5288    2.0773   -0.4102 C.3       1 <0>        -0.0062
      8 C7          0.1522    1.5592   -0.8316 C.3       1 <0>        -0.0635
      9 C8          0.2125    0.0646   -1.0149 C.2       1 <0>         0.0030
     10 C9         -0.0271   -0.8362   -0.0525 C.2       1 <0>        -0.1665
     11 C10         0.1446   -2.1548   -0.6749 C.ar      1 <0>        -0.1364
     12 C11         0.0397   -3.4663   -0.2194 C.ar      1 <0>        -0.0524
     13 C12         0.2767   -4.5145   -1.1006 C.ar      1 <0>        -0.0584
     14 C13         0.6160   -4.2466   -2.4308 C.ar      1 <0>        -0.0687
     15 C14         0.7192   -2.9607   -2.8787 C.ar      1 <0>        -0.1029
     16 C15         0.4867   -1.8969   -2.0139 C.ar      1 <0>         0.0667
     17 O1          0.5088   -0.5575   -2.1692 O.3       1 <0>        -0.1902
     18 C16         0.1690   -5.9166   -0.6309 C.ar      1 <0>        -0.0199
     19 C17        -0.1639   -6.1830    0.6976 C.ar      1 <0>        -0.1120
     20 C18        -0.2690   -7.4843    1.1338 C.ar      1 <0>        -0.0647
     21 C19        -0.0312   -8.5389    0.2479 C.ar      1 <0>        -0.0195
     22 C20         0.3074   -8.2706   -1.0814 C.ar      1 <0>        -0.0638
     23 C21         0.4062   -6.9684   -1.5163 C.ar      1 <0>        -0.1102
     24 C22        -0.1338   -9.8932    0.7019 C.1       1 <0>         0.2433
     25 N1         -0.2153  -10.9675    1.0621 N.1       1 <0>        -0.4015
     26 H2          3.8683    2.4124   -0.4588 H         1 <0>         0.0817
     27 H3          4.6852    3.3058    0.8461 H         1 <0>         0.1042
     28 H4          3.3583    2.1835    1.2311 H         1 <0>         0.0831
     29 H5          3.6964    5.9534   -0.0601 H         1 <0>         0.1130
     30 H6          4.0245    4.6794   -1.2778 H         1 <0>         0.1000
     31 H7          1.4448    6.2926   -0.8517 H         1 <0>         0.0993
     32 H8          2.2920    5.9309   -2.3925 H         1 <0>         0.1171
     33 H9          1.6327    3.6184   -2.3439 H         1 <0>         0.1331
     34 H10         0.1771    4.4100   -1.6659 H         1 <0>         0.1351
     35 H11         1.8220    1.6076    0.5287 H         1 <0>         0.1391
     36 H12         2.2598    1.8351   -1.1815 H         1 <0>         0.1355
     37 H13        -0.1410    2.0289   -1.7704 H         1 <0>         0.1065
     38 H14        -0.5789    1.8015   -0.0602 H         1 <0>         0.1170
     39 H15        -0.2935   -0.6332    0.9742 H         1 <0>         0.1630
     40 H16        -0.2226   -3.6670    0.8088 H         1 <0>         0.1379
     41 H17         0.7986   -5.0654   -3.1109 H         1 <0>         0.1463
     42 H18         0.9827   -2.7693   -3.9084 H         1 <0>         0.1397
     43 H19        -0.3432   -5.3678    1.3830 H         1 <0>         0.1356
     44 H20        -0.5307   -7.6902    2.1611 H         1 <0>         0.1382
     45 H21         0.4917   -9.0846   -1.7668 H         1 <0>         0.1393
     46 H22         0.6677   -6.7608   -2.5433 H         1 <0>         0.1384
     47 N2          1.4614    3.5505   -0.2261 N.4       1 <0>        -0.3950
     48 H23         0.6849    3.7740    0.4073 H         1 <0>         0.4301
@<TRIPOS>BOND
     1    1    2 1
     2    1   26 1
     3    1   27 1
     4    1   28 1
     5    2    3 1
     6    2    4 1
     7    2   47 1
     8    4    5 1
     9    4   29 1
    10    4   30 1
    11    5    6 1
    12    5   31 1
    13    5   32 1
    14    6   33 1
    15    6   34 1
    16    6   47 1
    17    7    8 1
    18    7   35 1
    19    7   36 1
    20    7   47 1
    21    8    9 1
    22    8   37 1
    23    8   38 1
    24    9   17 1
    25    9   10 2
    26   10   11 1
    27   10   39 1
    28   11   16 ar
    29   11   12 ar
    30   12   13 ar
    31   12   40 1
    32   13   14 ar
    33   13   18 1
    34   14   15 ar
    35   14   41 1
    36   15   16 ar
    37   15   42 1
    38   16   17 1
    39   18   23 ar
    40   18   19 ar
    41   19   20 ar
    42   19   43 1
    43   20   21 ar
    44   20   44 1
    45   21   22 ar
    46   21   24 1
    47   22   23 ar
    48   22   45 1
    49   23   46 1
    50   24   25 3
    51   47   48 1
@<TRIPOS>MOLECULE
ZINC01481956
   59    63     0     0     0
SMALL
USER_CHARGES
9-[2-[4-(6-fluorobenzo[d]isoxazol-3-yl)-1-piperidyl]ethyl]-5-hydroxy-8-methyl-1,7-diazabicyclo[4.4.0]deca-6,8-dien-10-one
@<TRIPOS>ATOM
      1 C1         -3.3383   -0.9118    5.1812 C.3       1 <0>        -0.1183
      2 C2         -3.2593    0.5033    5.6935 C.2       1 <0>         0.2259
      3 C3         -2.5727    1.4483    4.9927 C.2       1 <0>        -0.3061
      4 C4         -2.5270    2.7560    5.5091 C.2       1 <0>         0.5224
      5 O1         -1.9086    3.6285    4.9223 O.2       1 <0>        -0.5349
      6 N1         -3.1830    3.0391    6.6644 N.am      1 <0>        -0.4996
      7 C5         -3.8277    2.0605    7.3183 C.2       1 <0>         0.3968
      8 N2         -3.8593    0.8369    6.8333 N.2       1 <0>        -0.5521
      9 C6         -4.5404    2.2874    8.6287 C.3       1 <0>         0.1590
     10 H1         -3.9261    1.9033    9.4431 H         1 <0>         0.1047
     11 C7         -4.7963    3.7767    8.8500 C.3       1 <0>        -0.1256
     12 C8         -3.4796    4.5262    8.6095 C.3       1 <0>        -0.1371
     13 C9         -3.1392    4.4276    7.1250 C.3       1 <0>         0.0827
     14 O2         -5.7891    1.5927    8.6124 O.3       1 <0>        -0.5363
     15 C10        -1.8758    1.1009    3.7025 C.3       1 <0>        -0.0706
     16 C11        -2.7943    1.4266    2.5230 C.3       1 <0>        -0.0017
     17 C12        -0.7306    1.5801    1.2659 C.3       1 <0>        -0.0067
     18 C13        -0.0127    1.0858    0.0080 C.3       1 <0>        -0.1428
     19 C14        -0.7548    1.5938   -1.2312 C.3       1 <0>        -0.0243
     20 C15        -2.2060    1.1076   -1.1825 C.3       1 <0>        -0.1433
     21 C16        -2.8612    1.6013    0.1094 C.3       1 <0>         0.0027
     22 C17        -0.0856    1.0620   -2.4723 C.2       1 <0>         0.1324
     23 C18         0.5094    1.8611   -3.5469 C.ar      1 <0>        -0.2135
     24 C19         0.6459    3.2342   -3.7666 C.ar      1 <0>        -0.0098
     25 C20         1.2659    3.6827   -4.8977 C.ar      1 <0>        -0.1749
     26 C21         1.7645    2.7828   -5.8328 C.ar      1 <0>         0.1750
     27 C22         1.6397    1.4225   -5.6334 C.ar      1 <0>        -0.1639
     28 C23         1.0113    0.9478   -4.4891 C.ar      1 <0>         0.1188
     29 O3          0.7430   -0.2891   -4.0244 O.3       1 <0>        -0.0751
     30 N3          0.0747   -0.1876   -2.7829 N.2       1 <0>        -0.2752
     31 F1          2.3759    3.2434   -6.9460 F         1 <0>        -0.1154
     32 H2         -2.5026   -1.4887    5.5771 H         1 <0>         0.0973
     33 H3         -4.2766   -1.3631    5.5038 H         1 <0>         0.0939
     34 H4         -3.2930   -0.9070    4.0922 H         1 <0>         0.0762
     35 H5         -5.5535    4.1284    8.1492 H         1 <0>         0.0870
     36 H6         -5.1348    3.9443    9.8725 H         1 <0>         0.1046
     37 H7         -3.5954    5.5727    8.8915 H         1 <0>         0.1113
     38 H8         -2.6844    4.0714    9.2001 H         1 <0>         0.0840
     39 H9         -3.8569    5.0164    6.5538 H         1 <0>         0.0958
     40 H10        -2.1386    4.8274    6.9604 H         1 <0>         0.1085
     41 H11        -5.7058    0.6368    8.4923 H         1 <0>         0.3966
     42 H12        -1.6364    0.0376    3.6938 H         1 <0>         0.0976
     43 H13        -0.9568    1.6809    3.6183 H         1 <0>         0.1027
     44 H14        -3.0337    2.4899    2.5318 H         1 <0>         0.1329
     45 H15        -3.7133    0.8465    2.6072 H         1 <0>         0.1281
     46 H16        -0.2123    1.2083    2.1497 H         1 <0>         0.1395
     47 H17        -0.7329    2.6701    1.2781 H         1 <0>         0.1371
     48 H18         0.0021   -0.0041    0.0020 H         1 <0>         0.0986
     49 H19         1.0097    1.4637    0.0003 H         1 <0>         0.1191
     50 H20        -0.7361    2.6836   -1.2458 H         1 <0>         0.1175
     51 H21        -2.7508    1.5016   -2.0404 H         1 <0>         0.1193
     52 H22        -2.2257    0.0181   -1.2079 H         1 <0>         0.0990
     53 H23        -2.8535    2.6911    0.1271 H         1 <0>         0.1348
     54 H24        -3.8902    1.2447    0.1540 H         1 <0>         0.1352
     55 H25         0.2609    3.9389   -3.0445 H         1 <0>         0.1453
     56 H26         1.3702    4.7443   -5.0667 H         1 <0>         0.1542
     57 H27         2.0290    0.7297   -6.3647 H         1 <0>         0.1583
     58 N4         -2.1145    1.0579    1.2642 N.4       1 <0>        -0.3953
     59 H28        -2.0840    0.0343    1.1891 H         1 <0>         0.4277
@<TRIPOS>BOND
     1    1    2 1
     2    1   32 1
     3    1   33 1
     4    1   34 1
     5    2    8 1
     6    2    3 2
     7    3    4 1
     8    3   15 1
     9    4    5 2
    10    4    6 am
    11    6   13 1
    12    6    7 1
    13    7    8 2
    14    7    9 1
    15    9   10 1
    16    9   11 1
    17    9   14 1
    18   11   12 1
    19   11   35 1
    20   11   36 1
    21   12   13 1
    22   12   37 1
    23   12   38 1
    24   13   39 1
    25   13   40 1
    26   14   41 1
    27   15   16 1
    28   15   42 1
    29   15   43 1
    30   16   44 1
    31   16   45 1
    32   16   58 1
    33   17   18 1
    34   17   46 1
    35   17   47 1
    36   17   58 1
    37   18   19 1
    38   18   48 1
    39   18   49 1
    40   19   20 1
    41   19   22 1
    42   19   50 1
    43   20   21 1
    44   20   51 1
    45   20   52 1
    46   21   53 1
    47   21   54 1
    48   21   58 1
    49   22   30 2
    50   22   23 1
    51   23   28 ar
    52   23   24 ar
    53   24   25 ar
    54   24   55 1
    55   25   26 ar
    56   25   56 1
    57   26   27 ar
    58   26   31 1
    59   27   28 ar
    60   27   57 1
    61   28   29 1
    62   29   30 1
    63   58   59 1
@<TRIPOS>MOLECULE
ZINC04214700
   59    63     0     0     0
SMALL
USER_CHARGES

@<TRIPOS>ATOM
      1 C1         -0.0184    1.5028    0.0103 C.3       1 <0>        -0.1187
      2 C2          0.0021   -0.0041    0.0020 C.2       1 <0>         0.2247
      3 C3         -1.1658   -0.7051    0.0037 C.2       1 <0>        -0.3044
      4 C4         -1.0976   -2.1102    0.0026 C.2       1 <0>         0.5211
      5 O1         -2.1195   -2.7763   -0.0037 O.2       1 <0>        -0.5333
      6 N1          0.1170   -2.7181    0.0083 N.am      1 <0>        -0.4989
      7 C5          1.2324   -1.9722   -0.0125 C.2       1 <0>         0.3963
      8 N2          1.1610   -0.6576   -0.0126 N.2       1 <0>        -0.5518
      9 C6          2.6152   -2.5746   -0.0542 C.3       1 <0>         0.1596
     10 H1          3.0059   -2.5077   -1.0696 H         1 <0>         0.1040
     11 C7          2.5757   -4.0399    0.3747 C.3       1 <0>        -0.1269
     12 C8          1.4654   -4.7382   -0.4208 C.3       1 <0>        -0.1358
     13 C9          0.1227   -4.1811    0.0440 C.3       1 <0>         0.0819
     14 O2          3.4723   -1.8486    0.8292 O.3       1 <0>        -0.5355
     15 C10        -2.4949    0.0052    0.0071 C.3       1 <0>        -0.0669
     16 C11        -3.0069    0.1361   -1.4287 C.3       1 <0>        -0.0053
     17 N3         -4.3025    0.8286   -1.4254 N.4       1 <0>        -0.3854
     18 C12        -4.1200    2.2026   -0.9424 C.3       1 <0>        -0.0103
     19 C13        -5.4780    2.9029   -0.8601 C.3       1 <0>        -0.1426
     20 C14        -6.1175    2.9299   -2.2513 C.3       1 <0>        -0.0235
     21 C15        -6.2348    1.4960   -2.7762 C.3       1 <0>        -0.1433
     22 C16        -4.8488    0.8478   -2.7876 C.3       1 <0>        -0.0025
     23 C17        -7.4890    3.5482   -2.1635 C.2       1 <0>         0.1313
     24 C18        -7.9454    4.7495   -2.8676 C.ar      1 <0>        -0.2133
     25 C19        -7.3363    5.6350   -3.7605 C.ar      1 <0>        -0.0100
     26 C20        -8.0439    6.6917   -4.2581 C.ar      1 <0>        -0.1749
     27 C21        -9.3671    6.8941   -3.8825 C.ar      1 <0>         0.1750
     28 C22        -9.9863    6.0302   -3.0015 C.ar      1 <0>        -0.1637
     29 C23        -9.2824    4.9496   -2.4854 C.ar      1 <0>         0.1187
     30 O3         -9.6025    3.9587   -1.6289 O.3       1 <0>        -0.0746
     31 N4         -8.4845    3.1114   -1.4549 N.2       1 <0>        -0.2743
     32 F1        -10.0525    7.9450   -4.3834 F         1 <0>        -0.1153
     33 H2          1.0042    1.8801    0.0026 H         1 <0>         0.0932
     34 H3         -0.5455    1.8639   -0.8728 H         1 <0>         0.0827
     35 H4         -0.5286    1.8543    0.9071 H         1 <0>         0.0916
     36 H5          3.5346   -4.5121    0.1611 H         1 <0>         0.1047
     37 H6          2.3615   -4.1056    1.4415 H         1 <0>         0.0879
     38 H7          1.5965   -4.5420   -1.4849 H         1 <0>         0.0830
     39 H8          1.5014   -5.8120   -0.2372 H         1 <0>         0.1113
     40 H9         -0.0688   -4.5145    1.0639 H         1 <0>         0.0970
     41 H10        -0.6654   -4.5576   -0.6081 H         1 <0>         0.1081
     42 H11         3.5605   -0.9111    0.6094 H         1 <0>         0.3964
     43 H12        -3.2109   -0.5666    0.5975 H         1 <0>         0.0997
     44 H13        -2.3754    0.9974    0.4422 H         1 <0>         0.0967
     45 H14        -2.2909    0.7079   -2.0190 H         1 <0>         0.1287
     46 H15        -3.1264   -0.8561   -1.8638 H         1 <0>         0.1331
     47 H16        -3.6618    2.1819    0.0464 H         1 <0>         0.1384
     48 H17        -3.4725    2.7461   -1.6306 H         1 <0>         0.1347
     49 H18        -6.1262    2.3603   -0.1719 H         1 <0>         0.0994
     50 H19        -5.3401    3.9235   -0.5030 H         1 <0>         0.1203
     51 H20        -5.4949    3.5158   -2.9274 H         1 <0>         0.1179
     52 H21        -6.8988    0.9242   -2.1279 H         1 <0>         0.0993
     53 H22        -6.6380    1.5110   -3.7888 H         1 <0>         0.1199
     54 H23        -4.1858    1.4202   -3.4364 H         1 <0>         0.1334
     55 H24        -4.9287   -0.1731   -3.1610 H         1 <0>         0.1371
     56 H25        -6.3086    5.4843   -4.0561 H         1 <0>         0.1452
     57 H26        -7.5720    7.3754   -4.9482 H         1 <0>         0.1542
     58 H27       -11.0146    6.1938   -2.7147 H         1 <0>         0.1583
     59 H28        -4.9413    0.3417   -0.8147 H         1 <0>         0.4264
@<TRIPOS>BOND
     1    1    2 1
     2    1   33 1
     3    1   34 1
     4    1   35 1
     5    2    8 1
     6    2    3 2
     7    3    4 1
     8    3   15 1
     9    4    5 2
    10    4    6 am
    11    6   13 1
    12    6    7 1
    13    7    8 2
    14    7    9 1
    15    9   10 1
    16    9   11 1
    17    9   14 1
    18   11   12 1
    19   11   36 1
    20   11   37 1
    21   12   13 1
    22   12   38 1
    23   12   39 1
    24   13   40 1
    25   13   41 1
    26   14   42 1
    27   15   16 1
    28   15   43 1
    29   15   44 1
    30   16   17 1
    31   16   45 1
    32   16   46 1
    33   17   22 1
    34   17   18 1
    35   17   59 1
    36   18   19 1
    37   18   47 1
    38   18   48 1
    39   19   20 1
    40   19   49 1
    41   19   50 1
    42   20   21 1
    43   20   23 1
    44   20   51 1
    45   21   22 1
    46   21   52 1
    47   21   53 1
    48   22   54 1
    49   22   55 1
    50   23   31 2
    51   23   24 1
    52   24   29 ar
    53   24   25 ar
    54   25   26 ar
    55   25   56 1
    56   26   27 ar
    57   26   57 1
    58   27   28 ar
    59   27   32 1
    60   28   29 ar
    61   28   58 1
    62   29   30 1
    63   30   31 1
@<TRIPOS>MOLECULE
ZINC06717782
   67    72     0     0     0
SMALL
USER_CHARGES
morpholin-3-ylmethyl [5-[1-[(3-fluorophenyl)methyl]indazol-5-yl]amino-7-methyl-1,2,4-triazabicyclo[4.3.0]nona-2,4,6,8-tetraen-8-yl]aminoformate
@<TRIPOS>ATOM
      1 C1          0.2962   -6.9101    4.7585 C.3       1 <0>        -0.0941
      2 C2          0.3825   -6.1089    6.0319 C.2       1 <0>        -0.1078
      3 C3          0.2931   -6.6068    7.3369 C.2       1 <0>         0.0740
      4 C4          0.4199   -5.5542    8.1951 C.2       1 <0>         0.0579
      5 N1          0.5850   -4.4193    7.4764 N.pl3     1 <0>        -0.2280
      6 C5          0.5645   -4.7431    6.1333 C.2       1 <0>        -0.0825
      7 C6          0.7204   -3.7052    5.1862 C.2       1 <0>         0.5250
      8 N2          0.8858   -2.4632    5.6110 N.2       1 <0>        -0.6045
      9 C7          0.8980   -2.1654    6.9089 C.2       1 <0>         0.3361
     10 N3          0.7597   -3.0750    7.8342 N.2       1 <0>        -0.3478
     11 N4          0.7060   -3.9852    3.8334 N.pl3     1 <0>        -0.6187
     12 C8          0.7448   -2.9408    2.9019 C.ar      1 <0>         0.1014
     13 C9          0.1166   -1.7286    3.1913 C.ar      1 <0>        -0.0501
     14 C10         0.1421   -0.6984    2.2965 C.ar      1 <0>        -0.1226
     15 C11         0.8004   -0.8477    1.0781 C.ar      1 <0>         0.1294
     16 C12         1.4375   -2.0661    0.7756 C.ar      1 <0>        -0.1631
     17 C13         1.4040   -3.1152    1.7014 C.ar      1 <0>        -0.0595
     18 C14         2.0244   -1.9047   -0.5508 C.2       1 <0>         0.0748
     19 N5          1.7415   -0.7036   -0.9680 N.2       1 <0>        -0.2412
     20 N6          0.9983   -0.0212    0.0006 N.pl3     1 <0>        -0.3992
     21 C15         0.5049    1.3530   -0.1187 C.3       1 <0>         0.1821
     22 C16         1.5352    2.3060    0.4303 C.ar      1 <0>        -0.0922
     23 C17         2.5071    2.8282   -0.4032 C.ar      1 <0>        -0.1020
     24 C18         3.4530    3.7021    0.0990 C.ar      1 <0>        -0.0908
     25 C19         3.4277    4.0556    1.4350 C.ar      1 <0>        -0.1432
     26 C20         2.4549    3.5338    2.2703 C.ar      1 <0>         0.0982
     27 C21         1.5049    2.6621    1.7650 C.ar      1 <0>        -0.1343
     28 F1          2.4295    3.8783    3.5764 F         1 <0>        -0.1366
     29 N7          0.1065   -7.9529    7.6988 N.am      1 <0>        -0.6055
     30 C22         0.0376   -8.2975    9.0000 C.2       1 <0>         0.6543
     31 O1          0.1368   -7.4450    9.8604 O.2       1 <0>        -0.5400
     32 O2         -0.1411   -9.5864    9.3466 O.3       1 <0>        -0.3809
     33 C23        -0.2057   -9.8844   10.7662 C.3       1 <0>         0.0612
     34 C24        -0.4106  -11.3878   10.9629 C.3       1 <0>         0.0017
     35 H1         -1.2925  -11.7105   10.4096 H         1 <0>         0.1613
     36 C25        -0.6035  -11.6869   12.4520 C.3       1 <0>         0.0444
     37 O3         -0.7194  -13.1002   12.6380 O.3       1 <0>        -0.3484
     38 C26         0.4139  -13.8372   12.1713 C.3       1 <0>         0.0311
     39 C27         0.6171  -13.5598   10.6795 C.3       1 <0>        -0.0388
     40 H2          1.3014   -7.1375    4.4035 H         1 <0>         0.0796
     41 H3         -0.2406   -7.8393    4.9495 H         1 <0>         0.0742
     42 H4         -0.2345   -6.3329    4.0013 H         1 <0>         0.0707
     43 H5          0.3935   -5.6164    9.2730 H         1 <0>         0.2038
     44 H6          1.0314   -1.1357    7.2061 H         1 <0>         0.2239
     45 H7          0.6689   -4.9055    3.5289 H         1 <0>         0.4221
     46 H8         -0.3958   -1.6044    4.1338 H         1 <0>         0.1431
     47 H9         -0.3480    0.2343    2.5338 H         1 <0>         0.1286
     48 H10         1.8895   -4.0538    1.4783 H         1 <0>         0.1327
     49 H11         2.5888   -2.6497   -1.0918 H         1 <0>         0.1981
     50 H12         0.3199    1.5829   -1.1680 H         1 <0>         0.1095
     51 H13        -0.4223    1.4563    0.4449 H         1 <0>         0.1030
     52 H14         2.5274    2.5528   -1.4472 H         1 <0>         0.1335
     53 H15         4.2119    4.1090   -0.5528 H         1 <0>         0.1374
     54 H16         4.1665    4.7390    1.8270 H         1 <0>         0.1385
     55 H17         0.7428    2.2578    2.4148 H         1 <0>         0.1346
     56 H18         0.0273   -8.6333    7.0121 H         1 <0>         0.4223
     57 H19         0.7249   -9.5788   11.2444 H         1 <0>         0.1031
     58 H20        -1.0390   -9.3426   11.2136 H         1 <0>         0.1258
     59 H21         0.2545  -11.3152   13.0120 H         1 <0>         0.0888
     60 H22        -1.5100  -11.1968   12.8072 H         1 <0>         0.1475
     61 H23         1.3015  -13.5280   12.7233 H         1 <0>         0.0844
     62 H24         0.2431  -14.9028   12.3241 H         1 <0>         0.1452
     63 H25         1.5132  -14.0743   10.3324 H         1 <0>         0.1479
     64 H26        -0.2477  -13.9186   10.1214 H         1 <0>         0.1424
     65 N8          0.7776  -12.1086   10.4681 N.4       1 <0>        -0.5166
     66 H27         1.6084  -11.7817   10.9752 H         1 <0>         0.4316
     67 H28         0.8939  -11.9227    9.4650 H         1 <0>         0.4432
@<TRIPOS>BOND
     1    1    2 1
     2    1   40 1
     3    1   41 1
     4    1   42 1
     5    2    6 2
     6    2    3 1
     7    3    4 2
     8    3   29 1
     9    4    5 1
    10    4   43 1
    11    5   10 1
    12    5    6 1
    13    6    7 1
    14    7    8 2
    15    7   11 1
    16    8    9 1
    17    9   10 2
    18    9   44 1
    19   11   12 1
    20   11   45 1
    21   12   17 ar
    22   12   13 ar
    23   13   14 ar
    24   13   46 1
    25   14   15 ar
    26   14   47 1
    27   15   20 1
    28   15   16 ar
    29   16   17 ar
    30   16   18 1
    31   17   48 1
    32   18   19 2
    33   18   49 1
    34   19   20 1
    35   20   21 1
    36   21   22 1
    37   21   50 1
    38   21   51 1
    39   22   27 ar
    40   22   23 ar
    41   23   24 ar
    42   23   52 1
    43   24   25 ar
    44   24   53 1
    45   25   26 ar
    46   25   54 1
    47   26   27 ar
    48   26   28 1
    49   27   55 1
    50   29   30 am
    51   29   56 1
    52   30   31 2
    53   30   32 1
    54   32   33 1
    55   33   34 1
    56   33   57 1
    57   33   58 1
    58   34   35 1
    59   34   36 1
    60   34   65 1
    61   36   37 1
    62   36   59 1
    63   36   60 1
    64   37   38 1
    65   38   39 1
    66   38   61 1
    67   38   62 1
    68   39   63 1
    69   39   64 1
    70   39   65 1
    71   65   66 1
    72   65   67 1
@<TRIPOS>MOLECULE
ZINC03873830
   43    46     0     0     0
SMALL
USER_CHARGES
methyl-(4-methylpiperazin-1-yl)-BLAH
@<TRIPOS>ATOM
      1 C1          3.0620    5.4785    5.0218 C.3       1 <0>        -0.0756
      2 C2          2.4373    5.2601    3.6679 C.2       1 <0>        -0.1298
      3 C3          3.0363    5.2593    2.4741 C.2       1 <0>        -0.1178
      4 C4          2.2422    5.0256    1.2729 C.2       1 <0>        -0.2515
      5 C5          2.8507    5.0203    0.0023 C.2       1 <0>         0.5016
      6 N1          2.2733    4.8214   -1.2241 N.pl3     1 <0>        -0.6608
      7 C6          0.9220    4.5691   -1.5355 C.ar      1 <0>         0.1239
      8 C7          0.7223    4.4219   -2.8922 C.ar      1 <0>        -0.1500
      9 C8         -0.5524    4.1676   -3.3813 C.ar      1 <0>        -0.0950
     10 C9         -1.6254    4.0663   -2.5179 C.ar      1 <0>        -0.1203
     11 C10        -1.4384    4.2076   -1.1528 C.ar      1 <0>        -0.0593
     12 C11        -0.1641    4.4620   -0.6547 C.ar      1 <0>         0.1050
     13 N2         -0.1562    4.5784    0.7108 N.2       1 <0>        -0.5059
     14 C12         0.8557    4.8150    1.5165 C.2       1 <0>         0.2440
     15 S1          0.7265    4.9426    3.2843 S.3       1 <0>         0.0290
     16 N3          4.1963    5.2436   -0.0083 N.pl3     1 <0>        -0.6841
     17 C13         5.1477    4.1266    0.0934 C.3       1 <0>         0.1132
     18 C14         6.1634    4.2525   -1.0533 C.3       1 <0>        -0.0193
     19 C15         5.7661    6.6370   -1.2483 C.3       1 <0>        -0.0185
     20 C16         4.7343    6.6083   -0.1158 C.3       1 <0>         0.1121
     21 C17         7.8708    5.6940   -1.9857 C.3       1 <0>        -0.0423
     22 H1          2.2928    5.4147    5.7914 H         1 <0>         0.0782
     23 H2          3.8188    4.7145    5.2003 H         1 <0>         0.0809
     24 H3          3.5264    6.4641    5.0530 H         1 <0>         0.0809
     25 H4          4.0999    5.4306    2.3986 H         1 <0>         0.1259
     26 H5          2.8775    4.8585   -1.9821 H         1 <0>         0.4025
     27 H6          1.5562    4.5047   -3.5735 H         1 <0>         0.1270
     28 H7         -0.7063    4.0527   -4.4441 H         1 <0>         0.1337
     29 H8         -2.6136    3.8730   -2.9083 H         1 <0>         0.1372
     30 H9         -2.2780    4.1245   -0.4786 H         1 <0>         0.1464
     31 H10         5.6652    4.1725    1.0516 H         1 <0>         0.0959
     32 H11         4.6126    3.1809    0.0080 H         1 <0>         0.1207
     33 H12         5.6580    4.1074   -2.0081 H         1 <0>         0.1313
     34 H13         6.9402    3.4972   -0.9345 H         1 <0>         0.1422
     35 H14         5.2663    6.4587   -2.2004 H         1 <0>         0.1312
     36 H15         6.2545    7.6112   -1.2707 H         1 <0>         0.1426
     37 H16         3.9256    7.3041   -0.3395 H         1 <0>         0.1207
     38 H17         5.2098    6.8894    0.8239 H         1 <0>         0.0957
     39 H18         8.3515    6.6672   -1.8858 H         1 <0>         0.1243
     40 H19         8.6000    4.9071   -1.7927 H         1 <0>         0.1244
     41 H20         7.4775    5.5851   -2.9964 H         1 <0>         0.1226
     42 N4          6.7829    5.5941   -0.9908 N.4       1 <0>        -0.3943
     43 H21         7.1751    5.7362   -0.0526 H         1 <0>         0.4311
@<TRIPOS>BOND
     1    1    2 1
     2    1   22 1
     3    1   23 1
     4    1   24 1
     5    2   15 1
     6    2    3 2
     7    3    4 1
     8    3   25 1
     9    4   14 1
    10    4    5 2
    11    5    6 1
    12    5   16 1
    13    6    7 1
    14    6   26 1
    15    7   12 ar
    16    7    8 ar
    17    8    9 ar
    18    8   27 1
    19    9   10 ar
    20    9   28 1
    21   10   11 ar
    22   10   29 1
    23   11   12 ar
    24   11   30 1
    25   12   13 1
    26   13   14 2
    27   14   15 1
    28   16   20 1
    29   16   17 1
    30   17   18 1
    31   17   31 1
    32   17   32 1
    33   18   33 1
    34   18   34 1
    35   18   42 1
    36   19   20 1
    37   19   35 1
    38   19   36 1
    39   19   42 1
    40   20   37 1
    41   20   38 1
    42   21   39 1
    43   21   40 1
    44   21   41 1
    45   21   42 1
    46   42   43 1
@<TRIPOS>MOLECULE
ZINC03820131
   55    57     0     0     0
SMALL
USER_CHARGES
2-amino-3-chloro-N-[(1-isobutyl-4-piperidyl)methyl]-8-methyl-1,7-diazabicyclo[4.3.0]nona-2,4,6,8-tetraene-5-carboxamide
@<TRIPOS>ATOM
      1 C1          0.1564    1.4565    0.2613 C.3       1 <0>        -0.0786
      2 C2         -0.5897    1.9371    1.4793 C.2       1 <0>         0.0740
      3 C3         -0.0368    2.2446    2.6697 C.2       1 <0>        -0.1040
      4 N1         -1.0575    2.6379    3.4997 N.pl3     1 <0>        -0.3989
      5 C4         -1.0841    3.0541    4.8006 C.2       1 <0>         0.4631
      6 C5         -2.2651    3.4007    5.4189 C.2       1 <0>        -0.2063
      7 C6         -3.4727    3.3377    4.7363 C.2       1 <0>         0.0207
      8 C7         -3.4868    2.9173    3.4060 C.2       1 <0>        -0.1669
      9 C8         -2.2165    2.5544    2.7718 C.2       1 <0>         0.2998
     10 N2         -1.9112    2.1355    1.5577 N.2       1 <0>        -0.4550
     11 C9         -4.7467    2.8402    2.6579 C.2       1 <0>         0.5753
     12 O1         -4.7441    2.4717    1.4979 O.2       1 <0>        -0.4980
     13 N3         -5.9068    3.1774    3.2552 N.am      1 <0>        -0.7394
     14 C10        -7.1647    3.1004    2.5082 C.3       1 <0>         0.1277
     15 C11        -8.3213    3.5341    3.4110 C.3       1 <0>        -0.1131
     16 C12        -8.4783    2.5324    4.5584 C.3       1 <0>        -0.1463
     17 C13        -9.6743    2.9377    5.4229 C.3       1 <0>        -0.0096
     18 C14       -10.7810    3.9491    3.5191 C.3       1 <0>         0.0005
     19 C15        -9.6181    3.5740    2.5978 C.3       1 <0>        -0.1414
     20 C16       -12.0797    3.2103    5.4239 C.3       1 <0>        -0.0028
     21 C17       -12.1083    2.2214    6.5911 C.3       1 <0>        -0.1211
     22 C18       -13.3212    2.5129    7.4769 C.3       1 <0>        -0.1525
     23 C19       -12.2045    0.7942    6.0481 C.3       1 <0>        -0.1721
     24 Cl1        -2.2436    3.9238    7.0741 Cl        1 <0>        -0.0368
     25 N4          0.0931    3.1292    5.5076 N.pl3     1 <0>        -0.8310
     26 H1          0.2132    0.3680    0.2761 H         1 <0>         0.0803
     27 H2          1.1638    1.8729    0.2645 H         1 <0>         0.0778
     28 H3         -0.3680    1.7808   -0.6375 H         1 <0>         0.0810
     29 H4          1.0118    2.1918    2.9228 H         1 <0>         0.1869
     30 H5         -4.3930    3.6114    5.2309 H         1 <0>         0.1490
     31 H6         -5.9089    3.4711    4.1797 H         1 <0>         0.3951
     32 H7         -7.1135    3.7594    1.6415 H         1 <0>         0.0799
     33 H8         -7.3279    2.0752    2.1760 H         1 <0>         0.0758
     34 H9         -8.1152    4.5246    3.8166 H         1 <0>         0.0978
     35 H10        -8.6452    1.5354    4.1507 H         1 <0>         0.0927
     36 H11        -7.5736    2.5309    5.1664 H         1 <0>         0.1114
     37 H12        -9.5005    3.9291    5.8414 H         1 <0>         0.1317
     38 H13        -9.7974    2.2184    6.2326 H         1 <0>         0.1328
     39 H14       -10.6021    4.9357    3.9465 H         1 <0>         0.1312
     40 H15       -11.7081    3.9644    2.9460 H         1 <0>         0.1307
     41 H16        -9.5278    4.3166    1.8050 H         1 <0>         0.1179
     42 H17        -9.8029    2.5934    2.1593 H         1 <0>         0.0930
     43 H18       -12.0461    4.2286    5.8112 H         1 <0>         0.1314
     44 H19       -12.9759    3.0818    4.8169 H         1 <0>         0.1291
     45 H20       -11.1960    2.3260    7.1783 H         1 <0>         0.0951
     46 H21       -13.2937    1.8672    8.3546 H         1 <0>         0.0770
     47 H22       -13.2984    3.5560    7.7924 H         1 <0>         0.0672
     48 H23       -14.2356    2.3233    6.9148 H         1 <0>         0.0681
     49 H24       -11.3404    0.5866    5.4170 H         1 <0>         0.0506
     50 H25       -12.2248    0.0898    6.8796 H         1 <0>         0.0838
     51 H26       -13.1168    0.6896    5.4609 H         1 <0>         0.0735
     52 H27         0.9307    2.8879    5.0820 H         1 <0>         0.4140
     53 H28         0.0859    3.4234    6.4319 H         1 <0>         0.4273
     54 N5        -10.8938    2.9332    4.5874 N.4       1 <0>        -0.3953
     55 H29       -10.9988    2.0071    4.1565 H         1 <0>         0.4256
@<TRIPOS>BOND
     1    1    2 1
     2    1   26 1
     3    1   27 1
     4    1   28 1
     5    2   10 1
     6    2    3 2
     7    3    4 1
     8    3   29 1
     9    4    9 1
    10    4    5 1
    11    5    6 2
    12    5   25 1
    13    6    7 1
    14    6   24 1
    15    7    8 2
    16    7   30 1
    17    8    9 1
    18    8   11 1
    19    9   10 2
    20   11   12 2
    21   11   13 am
    22   13   14 1
    23   13   31 1
    24   14   15 1
    25   14   32 1
    26   14   33 1
    27   15   19 1
    28   15   16 1
    29   15   34 1
    30   16   17 1
    31   16   35 1
    32   16   36 1
    33   17   37 1
    34   17   38 1
    35   17   54 1
    36   18   19 1
    37   18   39 1
    38   18   40 1
    39   18   54 1
    40   19   41 1
    41   19   42 1
    42   20   21 1
    43   20   43 1
    44   20   44 1
    45   20   54 1
    46   21   22 1
    47   21   23 1
    48   21   45 1
    49   22   46 1
    50   22   47 1
    51   22   48 1
    52   23   49 1
    53   23   50 1
    54   23   51 1
    55   25   52 1
    56   25   53 1
    57   54   55 1
@<TRIPOS>MOLECULE
ZINC03820131
   56    58     0     0     0
SMALL
USER_CHARGES
2-amino-3-chloro-N-[(1-isobutyl-4-piperidyl)methyl]-8-methyl-1,7-diazabicyclo[4.3.0]nona-2,4,6,8-tetraene-5-carboxamide
@<TRIPOS>ATOM
      1 C1          0.1564    1.4565    0.2613 C.3       1 <0>        -0.1090
      2 C2         -0.5897    1.9371    1.4793 C.2       1 <0>         0.1115
      3 C3         -0.0368    2.2446    2.6697 C.2       1 <0>        -0.0374
      4 N1         -1.0575    2.6379    3.4997 N.pl3     1 <0>        -0.3695
      5 C4         -1.0841    3.0541    4.8006 C.2       1 <0>         0.4791
      6 C5         -2.2651    3.4007    5.4189 C.2       1 <0>        -0.1802
      7 C6         -3.4727    3.3377    4.7363 C.2       1 <0>         0.0781
      8 C7         -3.4868    2.9173    3.4060 C.2       1 <0>        -0.2040
      9 C8         -2.2165    2.5544    2.7718 C.cat     1 <0>         0.3916
     10 C9         -4.7467    2.8402    2.6579 C.2       1 <0>         0.5854
     11 O1         -4.7441    2.4717    1.4979 O.2       1 <0>        -0.5330
     12 N2         -5.9068    3.1774    3.2552 N.am      1 <0>        -0.7190
     13 C10        -7.1647    3.1004    2.5082 C.3       1 <0>         0.1227
     14 C11        -8.3213    3.5341    3.4110 C.3       1 <0>        -0.1153
     15 C12        -8.4783    2.5324    4.5584 C.3       1 <0>        -0.1467
     16 C13        -9.6743    2.9377    5.4229 C.3       1 <0>        -0.0107
     17 C14       -10.7810    3.9491    3.5191 C.3       1 <0>        -0.0008
     18 C15        -9.6181    3.5740    2.5978 C.3       1 <0>        -0.1414
     19 C16       -12.0797    3.2103    5.4239 C.3       1 <0>        -0.0039
     20 C17       -12.1083    2.2214    6.5911 C.3       1 <0>        -0.1199
     21 C18       -13.3212    2.5129    7.4769 C.3       1 <0>        -0.1542
     22 C19       -12.2045    0.7942    6.0481 C.3       1 <0>        -0.1724
     23 Cl1        -2.2436    3.9238    7.0741 Cl        1 <0>         0.0153
     24 N3          0.0931    3.1292    5.5076 N.pl3     1 <0>        -0.7988
     25 H1          0.2132    0.3680    0.2761 H         1 <0>         0.1108
     26 H2          1.1638    1.8729    0.2645 H         1 <0>         0.1142
     27 H3         -0.3680    1.7808   -0.6375 H         1 <0>         0.0998
     28 H4          1.0118    2.1918    2.9228 H         1 <0>         0.2291
     29 H5         -4.3930    3.6114    5.2309 H         1 <0>         0.1763
     30 H6         -5.9089    3.4711    4.1797 H         1 <0>         0.4026
     31 H7         -7.1135    3.7594    1.6415 H         1 <0>         0.0887
     32 H8         -7.3279    2.0752    2.1760 H         1 <0>         0.0847
     33 H9         -8.1152    4.5246    3.8166 H         1 <0>         0.1008
     34 H10        -8.6452    1.5354    4.1507 H         1 <0>         0.0939
     35 H11        -7.5736    2.5309    5.1664 H         1 <0>         0.1078
     36 H12        -9.5005    3.9291    5.8414 H         1 <0>         0.1327
     37 H13        -9.7974    2.2184    6.2326 H         1 <0>         0.1352
     38 H14       -10.6021    4.9357    3.9465 H         1 <0>         0.1327
     39 H15       -11.7081    3.9644    2.9460 H         1 <0>         0.1341
     40 H16        -9.5278    4.3166    1.8050 H         1 <0>         0.1192
     41 H17        -9.8029    2.5934    2.1593 H         1 <0>         0.0943
     42 H18       -12.0461    4.2286    5.8112 H         1 <0>         0.1329
     43 H19       -12.9759    3.0818    4.8169 H         1 <0>         0.1315
     44 H20       -11.1960    2.3260    7.1783 H         1 <0>         0.0939
     45 H21       -13.2937    1.8672    8.3546 H         1 <0>         0.0785
     46 H22       -13.2984    3.5560    7.7924 H         1 <0>         0.0682
     47 H23       -14.2356    2.3233    6.9148 H         1 <0>         0.0697
     48 H24       -11.3404    0.5866    5.4170 H         1 <0>         0.0482
     49 H25       -12.2248    0.0898    6.8796 H         1 <0>         0.0851
     50 H26       -13.1168    0.6896    5.4609 H         1 <0>         0.0751
     51 H27         0.9307    2.8879    5.0820 H         1 <0>         0.4258
     52 H28         0.0859    3.4234    6.4319 H         1 <0>         0.4435
     53 N4        -10.8938    2.9332    4.5874 N.4       1 <0>        -0.3954
     54 H29       -10.9988    2.0071    4.1565 H         1 <0>         0.4261
     55 N5         -1.9102    2.1357    1.5589 N.pl3     1 <0>        -0.4953
     56 H30        -2.5803    1.9858    0.7955 H         1 <0>         0.4876
@<TRIPOS>BOND
     1    1    2 1
     2    1   25 1
     3    1   26 1
     4    1   27 1
     5    2    3 2
     6    2   55 1
     7    3    4 1
     8    3   28 1
     9    4    9 1
    10    4    5 1
    11    5    6 2
    12    5   24 1
    13    6    7 1
    14    6   23 1
    15    7    8 2
    16    7   29 1
    17    8    9 1
    18    8   10 1
    19    9   55 2
    20   10   11 2
    21   10   12 am
    22   12   13 1
    23   12   30 1
    24   13   14 1
    25   13   31 1
    26   13   32 1
    27   14   18 1
    28   14   15 1
    29   14   33 1
    30   15   16 1
    31   15   34 1
    32   15   35 1
    33   16   36 1
    34   16   37 1
    35   16   53 1
    36   17   18 1
    37   17   38 1
    38   17   39 1
    39   17   53 1
    40   18   40 1
    41   18   41 1
    42   19   20 1
    43   19   42 1
    44   19   43 1
    45   19   53 1
    46   20   21 1
    47   20   22 1
    48   20   44 1
    49   21   45 1
    50   21   46 1
    51   21   47 1
    52   22   48 1
    53   22   49 1
    54   22   50 1
    55   24   51 1
    56   24   52 1
    57   53   54 1
    58   55   56 1
@<TRIPOS>MOLECULE
ZINC12402836
   58    60     0     0     0
SMALL
USER_CHARGES

@<TRIPOS>ATOM
      1 C1         -0.8538    2.3356   -5.5554 C.3       1 <0>        -0.1878
      2 C2         -1.0529    0.8415   -5.2932 C.3       1 <0>        -0.0174
      3 N1         -0.7528    0.5471   -3.8856 N.4       1 <0>        -0.3876
      4 C3         -1.7299    1.2264   -3.0242 C.3       1 <0>        -0.0157
      5 C4         -1.3270    1.0505   -1.5587 C.3       1 <0>        -0.1892
      6 C5         -0.8274   -0.9028   -3.6618 C.3       1 <0>        -0.0058
      7 C6          0.2741   -1.5998   -4.4629 C.3       1 <0>         0.0256
      8 O1          1.5521   -1.1808   -3.9799 O.3       1 <0>        -0.3271
      9 C7          2.6438   -1.6359   -4.6486 C.ar      1 <0>         0.1168
     10 C8          2.4847   -2.4648   -5.7514 C.ar      1 <0>        -0.2008
     11 C9          3.5897   -2.9283   -6.4327 C.ar      1 <0>        -0.0542
     12 C10         4.8700   -2.5633   -6.0128 C.ar      1 <0>        -0.0628
     13 C11         5.0258   -1.7299   -4.9038 C.ar      1 <0>        -0.0541
     14 C12         3.9156   -1.2664   -4.2309 C.ar      1 <0>        -0.1392
     15 C13         6.0586   -3.0588   -6.7408 C.2       1 <0>        -0.0320
     16 C14         6.2742   -2.6795   -8.0257 C.2       1 <0>        -0.0003
     17 C15         7.3804   -3.2737   -8.7925 C.ar      1 <0>        -0.0654
     18 C16         7.5488   -4.6619   -8.8226 C.ar      1 <0>        -0.0824
     19 C17         8.5877   -5.2111   -9.5439 C.ar      1 <0>        -0.1196
     20 C18         9.4628   -4.3925  -10.2366 C.ar      1 <0>        -0.1015
     21 C19         9.3032   -3.0179  -10.2114 C.ar      1 <0>        -0.1201
     22 C20         8.2656   -2.4537   -9.4998 C.ar      1 <0>        -0.0923
     23 Cl1         5.2448   -1.4930   -8.7647 Cl        1 <0>        -0.0607
     24 C21         7.0125   -3.9682   -6.0680 C.ar      1 <0>        -0.0445
     25 C22         6.6149   -5.2550   -5.7026 C.ar      1 <0>        -0.1038
     26 C23         7.5090   -6.0979   -5.0755 C.ar      1 <0>        -0.1169
     27 C24         8.7973   -5.6698   -4.8083 C.ar      1 <0>        -0.1098
     28 C25         9.1977   -4.3952   -5.1681 C.ar      1 <0>        -0.1143
     29 C26         8.3152   -3.5446   -5.8013 C.ar      1 <0>        -0.0949
     30 H1         -1.5225    2.9094   -4.9137 H         1 <0>         0.0816
     31 H2          0.1793    2.6079   -5.3395 H         1 <0>         0.0810
     32 H3         -1.0765    2.5540   -6.5998 H         1 <0>         0.1068
     33 H4         -2.0860    0.5691   -5.5091 H         1 <0>         0.1312
     34 H5         -0.3842    0.2677   -5.9348 H         1 <0>         0.1278
     35 H6         -1.7542    2.2882   -3.2695 H         1 <0>         0.1338
     36 H7         -2.7176    0.7940   -3.1839 H         1 <0>         0.1298
     37 H8         -0.3642    1.5315   -1.3864 H         1 <0>         0.0818
     38 H9         -2.0811    1.5068   -0.9174 H         1 <0>         0.1068
     39 H10        -1.2488   -0.0120   -1.3284 H         1 <0>         0.0798
     40 H11        -0.6942   -1.1141   -2.6008 H         1 <0>         0.1443
     41 H12        -1.8008   -1.2709   -3.9861 H         1 <0>         0.1493
     42 H13         0.1787   -2.6796   -4.3486 H         1 <0>         0.1095
     43 H14         0.1796   -1.3362   -5.5163 H         1 <0>         0.0864
     44 H15         1.4938   -2.7470   -6.0754 H         1 <0>         0.1291
     45 H16         3.4652   -3.5731   -7.2900 H         1 <0>         0.1307
     46 H17         6.0148   -1.4457   -4.5757 H         1 <0>         0.1362
     47 H18         4.0352   -0.6183   -3.3753 H         1 <0>         0.1351
     48 H19         6.8672   -5.3019   -8.2821 H         1 <0>         0.1237
     49 H20         8.7191   -6.2828   -9.5682 H         1 <0>         0.1269
     50 H21        10.2748   -4.8287  -10.7995 H         1 <0>         0.1265
     51 H22         9.9904   -2.3859  -10.7542 H         1 <0>         0.1279
     52 H23         8.1395   -1.3812   -9.4850 H         1 <0>         0.1252
     53 H24         5.6094   -5.5901   -5.9099 H         1 <0>         0.1205
     54 H25         7.2026   -7.0941   -4.7921 H         1 <0>         0.1253
     55 H26         9.4933   -6.3333   -4.3166 H         1 <0>         0.1247
     56 H27        10.2046   -4.0668   -4.9565 H         1 <0>         0.1256
     57 H28         8.6304   -2.5516   -6.0859 H         1 <0>         0.1212
     58 H29         0.1756    0.8743   -3.6641 H         1 <0>         0.4295
@<TRIPOS>BOND
     1    1    2 1
     2    1   30 1
     3    1   31 1
     4    1   32 1
     5    2    3 1
     6    2   33 1
     7    2   34 1
     8    3    4 1
     9    3    6 1
    10    3   58 1
    11    4    5 1
    12    4   35 1
    13    4   36 1
    14    5   37 1
    15    5   38 1
    16    5   39 1
    17    6    7 1
    18    6   40 1
    19    6   41 1
    20    7    8 1
    21    7   42 1
    22    7   43 1
    23    8    9 1
    24    9   14 ar
    25    9   10 ar
    26   10   11 ar
    27   10   44 1
    28   11   12 ar
    29   11   45 1
    30   12   13 ar
    31   12   15 1
    32   13   14 ar
    33   13   46 1
    34   14   47 1
    35   15   16 2
    36   15   24 1
    37   16   17 1
    38   16   23 1
    39   17   22 ar
    40   17   18 ar
    41   18   19 ar
    42   18   48 1
    43   19   20 ar
    44   19   49 1
    45   20   21 ar
    46   20   50 1
    47   21   22 ar
    48   21   51 1
    49   22   52 1
    50   24   29 ar
    51   24   25 ar
    52   25   26 ar
    53   25   53 1
    54   26   27 ar
    55   26   54 1
    56   27   28 ar
    57   27   55 1
    58   28   29 ar
    59   28   56 1
    60   29   57 1
@<TRIPOS>MOLECULE
ZINC66079908
   48    51     0     0     0
SMALL
USER_CHARGES

@<TRIPOS>ATOM
      1 C1         -0.0119    1.3643    0.0014 C.2       1 <0>        -0.0688
      2 C2          1.2031    2.0621    0.0038 C.2       1 <0>        -0.1895
      3 C3          2.3752    1.3874    0.0029 C.2       1 <0>         0.1036
      4 N1          2.3964    0.0244   -0.0000 N.am      1 <0>        -0.4044
      5 C4          1.2250   -0.6824   -0.0015 C.2       1 <0>         0.1908
      6 C5         -0.0026   -0.0003   -0.0015 C.2       1 <0>        -0.1409
      7 C6          1.2367   -2.0853   -0.0040 C.2       1 <0>        -0.2136
      8 C7          2.4226   -2.7583   -0.0054 C.2       1 <0>         0.0188
      9 C8          3.6276   -2.0279   -0.0042 C.2       1 <0>        -0.2624
     10 C9          3.5823   -0.6173   -0.0009 C.2       1 <0>         0.4997
     11 O1          4.6194    0.0235    0.0009 O.2       1 <0>        -0.4943
     12 C10         4.8743   -2.7039   -0.0060 C.2       1 <0>         0.5274
     13 O2          4.9070   -3.9286   -0.0085 O.co2     1 <0>        -0.7038
     14 O3          5.9185   -2.0632   -0.0050 O.co2     1 <0>        -0.6688
     15 C11        -0.0624   -2.8490   -0.0047 C.3       1 <0>         0.1216
     16 N2         -0.4241   -3.1988   -1.3849 N.3       1 <0>        -0.5324
     17 C12         0.5444   -4.1418   -1.9600 C.3       1 <0>         0.0322
     18 C13         0.2374   -4.3400   -3.4482 C.3       1 <0>         0.1215
     19 N3         -1.1725   -4.7353   -3.5858 N.pl3     1 <0>        -0.6162
     20 C14        -2.1939   -3.9133   -2.9192 C.3       1 <0>         0.1218
     21 C15        -1.7913   -3.7319   -1.4518 C.3       1 <0>         0.0381
     22 C16        -1.5308   -5.8572   -4.3276 C.ar      1 <0>         0.2575
     23 C17        -2.8569   -6.2791   -4.3518 C.ar      1 <0>        -0.2095
     24 C18        -3.2146   -7.3882   -5.0843 C.ar      1 <0>        -0.0160
     25 C19        -2.2442   -8.0911   -5.8046 C.ar      1 <0>        -0.1090
     26 C20        -0.9131   -7.6645   -5.7781 C.ar      1 <0>        -0.0139
     27 C21        -0.5632   -6.5512   -5.0480 C.ar      1 <0>        -0.2053
     28 C22        -2.6127   -9.2457   -6.5674 C.1       1 <0>         0.2661
     29 N4         -2.9051  -10.1616   -7.1725 N.1       1 <0>        -0.4438
     30 H1         -0.9484    1.9022    0.0063 H         1 <0>         0.1361
     31 H2          1.2036    3.1421    0.0061 H         1 <0>         0.1459
     32 H3          3.3059    1.9352    0.0040 H         1 <0>         0.1743
     33 H4         -0.9316   -0.5511   -0.0034 H         1 <0>         0.1508
     34 H5          2.4382   -3.8382   -0.0069 H         1 <0>         0.1364
     35 H6          0.0513   -3.7599    0.5830 H         1 <0>         0.0470
     36 H7         -0.8475   -2.2311    0.4311 H         1 <0>         0.0819
     37 H8          1.5523   -3.7426   -1.8465 H         1 <0>         0.1016
     38 H9          0.4714   -5.0986   -1.4430 H         1 <0>         0.0423
     39 H10         0.4103   -3.4073   -3.9851 H         1 <0>         0.0753
     40 H11         0.8785   -5.1231   -3.8531 H         1 <0>         0.0905
     41 H12        -2.2548   -2.9396   -3.4053 H         1 <0>         0.0742
     42 H13        -3.1604   -4.4143   -2.9745 H         1 <0>         0.0874
     43 H14        -1.8317   -4.6945   -0.9419 H         1 <0>         0.0394
     44 H15        -2.4773   -3.0354   -0.9698 H         1 <0>         0.0854
     45 H16        -3.6060   -5.7359   -3.7948 H         1 <0>         0.1318
     46 H17        -4.2438   -7.7153   -5.1023 H         1 <0>         0.1282
     47 H18        -0.1609   -8.2052   -6.3334 H         1 <0>         0.1300
     48 H19         0.4641   -6.2184   -5.0310 H         1 <0>         0.1350
@<TRIPOS>BOND
     1    1    6 2
     2    1    2 1
     3    1   30 1
     4    2    3 2
     5    2   31 1
     6    3    4 1
     7    3   32 1
     8    4   10 am
     9    4    5 1
    10    5    6 1
    11    5    7 2
    12    6   33 1
    13    7    8 1
    14    7   15 1
    15    8    9 2
    16    8   34 1
    17    9   10 1
    18    9   12 1
    19   10   11 2
    20   12   13 2
    21   12   14 1
    22   15   16 1
    23   15   35 1
    24   15   36 1
    25   16   21 1
    26   16   17 1
    27   17   18 1
    28   17   37 1
    29   17   38 1
    30   18   19 1
    31   18   39 1
    32   18   40 1
    33   19   20 1
    34   19   22 1
    35   20   21 1
    36   20   41 1
    37   20   42 1
    38   21   43 1
    39   21   44 1
    40   22   27 ar
    41   22   23 ar
    42   23   24 ar
    43   23   45 1
    44   24   25 ar
    45   24   46 1
    46   25   26 ar
    47   25   28 1
    48   26   27 ar
    49   26   47 1
    50   27   48 1
    51   28   29 3
@<TRIPOS>MOLECULE
ZINC00538550
   50    54     0     0     0
SMALL
USER_CHARGES

@<TRIPOS>ATOM
      1 C1          2.6263   -1.6012    3.5769 C.ar      1 <0>        -0.1190
      2 C2          3.6377   -0.6760    3.3483 C.ar      1 <0>        -0.0682
      3 C3          3.9136   -0.2683    2.0698 C.ar      1 <0>        -0.0729
      4 C4          3.1814   -0.7831    1.0209 C.ar      1 <0>        -0.1315
      5 C5          2.1473   -1.7252    1.2248 C.ar      1 <0>        -0.1451
      6 C6          1.8930   -2.1204    2.5550 C.ar      1 <0>        -0.0442
      7 C7          1.5160   -2.1252   -0.0237 C.2       1 <0>         0.3651
      8 N1          1.9319   -1.6135   -1.1449 N.2       1 <0>        -0.4432
      9 S1          3.1728   -0.5662   -0.7370 S.3       1 <0>         0.2466
     10 N2          0.4719   -3.0515   -0.0182 N.pl3     1 <0>        -0.6548
     11 C8         -0.9273   -2.6134    0.1017 C.3       1 <0>         0.1241
     12 C9         -1.7410   -3.2754   -1.0152 C.3       1 <0>        -0.0227
     13 N3         -1.5546   -4.7307   -0.9586 N.4       1 <0>        -0.3801
     14 C10        -0.1529   -5.0667   -1.2386 C.3       1 <0>        -0.0285
     15 C11         0.7391   -4.4931   -0.1384 C.3       1 <0>         0.1238
     16 C12        -2.4192   -5.3726   -1.9578 C.3       1 <0>        -0.0095
     17 C13        -2.3203   -6.8928   -1.8166 C.3       1 <0>        -0.0983
     18 C14        -3.2073   -7.5513   -2.8417 C.ar      1 <0>        -0.1206
     19 C15        -2.6615   -8.0596   -4.0078 C.ar      1 <0>        -0.0388
     20 C16        -3.4747   -8.6603   -4.9418 C.ar      1 <0>        -0.1333
     21 C17        -4.8442   -8.7652   -4.7313 C.ar      1 <0>         0.1797
     22 C18        -5.3873   -8.2514   -3.5560 C.ar      1 <0>        -0.1298
     23 C19        -4.5688   -7.6545   -2.6174 C.ar      1 <0>         0.0073
     24 Cl1        -5.2527   -7.0236   -1.1518 Cl        1 <0>        -0.0525
     25 N4         -5.4502   -9.4084   -5.8111 N.am      1 <0>        -0.6604
     26 C20        -4.5639   -9.7540   -6.7601 C.2       1 <0>         0.5283
     27 O1         -4.8099  -10.3226   -7.8028 O.2       1 <0>        -0.4792
     28 C21        -3.2006   -9.3003   -6.2833 C.3       1 <0>        -0.1183
     29 H1          2.4206   -1.9188    4.5884 H         1 <0>         0.1364
     30 H2          4.2049   -0.2788    4.1770 H         1 <0>         0.1435
     31 H3          4.6980    0.4507    1.8851 H         1 <0>         0.1419
     32 H4          1.1130   -2.8379    2.7631 H         1 <0>         0.1277
     33 H5         -1.3236   -2.9146    1.0714 H         1 <0>         0.0880
     34 H6         -0.9816   -1.5294    0.0013 H         1 <0>         0.1163
     35 H7         -2.7970   -3.0388   -0.8847 H         1 <0>         0.1402
     36 H8         -1.4017   -2.9028   -1.9818 H         1 <0>         0.1340
     37 H9         -0.0387   -6.1502   -1.2728 H         1 <0>         0.1418
     38 H10         0.1383   -4.6400   -2.1984 H         1 <0>         0.1345
     39 H11         1.7859   -4.6512   -0.3976 H         1 <0>         0.1162
     40 H12         0.5139   -4.9874    0.8066 H         1 <0>         0.0875
     41 H13        -3.4513   -5.0594   -1.8001 H         1 <0>         0.1319
     42 H14        -2.0991   -5.0789   -2.9575 H         1 <0>         0.1342
     43 H15        -1.2883   -7.2060   -1.9743 H         1 <0>         0.1020
     44 H16        -2.6404   -7.1865   -0.8169 H         1 <0>         0.1015
     45 H17        -1.5987   -7.9846   -4.1847 H         1 <0>         0.1440
     46 H18        -6.4498   -8.3241   -3.3763 H         1 <0>         0.1460
     47 H19        -6.4019   -9.5862   -5.8697 H         1 <0>         0.4209
     48 H20        -2.7771   -8.5717   -6.9747 H         1 <0>         0.1320
     49 H21        -2.5322  -10.1538   -6.1698 H         1 <0>         0.1330
     50 H22        -1.8020   -5.0647   -0.0391 H         1 <0>         0.4224
@<TRIPOS>BOND
     1    1    6 ar
     2    1    2 ar
     3    1   29 1
     4    2    3 ar
     5    2   30 1
     6    3    4 ar
     7    3   31 1
     8    4    9 1
     9    4    5 ar
    10    5    6 ar
    11    5    7 1
    12    6   32 1
    13    7    8 2
    14    7   10 1
    15    8    9 1
    16   10   15 1
    17   10   11 1
    18   11   12 1
    19   11   33 1
    20   11   34 1
    21   12   13 1
    22   12   35 1
    23   12   36 1
    24   13   14 1
    25   13   16 1
    26   13   50 1
    27   14   15 1
    28   14   37 1
    29   14   38 1
    30   15   39 1
    31   15   40 1
    32   16   17 1
    33   16   41 1
    34   16   42 1
    35   17   18 1
    36   17   43 1
    37   17   44 1
    38   18   23 ar
    39   18   19 ar
    40   19   20 ar
    41   19   45 1
    42   20   28 1
    43   20   21 ar
    44   21   22 ar
    45   21   25 1
    46   22   23 ar
    47   22   46 1
    48   23   24 1
    49   25   26 am
    50   25   47 1
    51   26   27 2
    52   26   28 1
    53   28   48 1
    54   28   49 1
@<TRIPOS>MOLECULE
ZINC00538550
   49    53     0     0     0
SMALL
USER_CHARGES

@<TRIPOS>ATOM
      1 C1          2.6265   -1.6014    3.5768 C.ar      1 <0>        -0.1277
      2 C2          3.6378   -0.6762    3.3482 C.ar      1 <0>        -0.0756
      3 C3          3.9137   -0.2684    2.0698 C.ar      1 <0>        -0.0789
      4 C4          3.1814   -0.7831    1.0209 C.ar      1 <0>        -0.1286
      5 C5          2.1474   -1.7253    1.2248 C.ar      1 <0>        -0.1409
      6 C6          1.8931   -2.1205    2.5549 C.ar      1 <0>        -0.0356
      7 C7          1.5160   -2.1252   -0.0237 C.2       1 <0>         0.3892
      8 N1          1.9318   -1.6135   -1.1448 N.2       1 <0>        -0.4422
      9 S1          3.1728   -0.5662   -0.7370 S.3       1 <0>         0.1982
     10 N2          0.4719   -3.0515   -0.0182 N.pl3     1 <0>        -0.6554
     11 C8         -0.9266   -2.6120    0.1018 C.3       1 <0>         0.1547
     12 C9         -1.7384   -3.2579   -1.0260 C.3       1 <0>         0.0408
     13 N3         -1.5399   -4.7132   -0.9964 N.3       1 <0>        -0.5317
     14 C10        -0.1365   -5.0648   -1.2509 C.3       1 <0>         0.0356
     15 C11         0.7405   -4.4925   -0.1385 C.3       1 <0>         0.1543
     16 C12        -2.4324   -5.3857   -1.9498 C.3       1 <0>         0.0614
     17 C13        -2.3803   -6.8972   -1.7181 C.3       1 <0>        -0.0762
     18 C14        -3.2960   -7.5871   -2.6961 C.ar      1 <0>        -0.0908
     19 C15        -2.7761   -8.1815   -3.8330 C.ar      1 <0>        -0.0501
     20 C16        -3.6154   -8.8107   -4.7241 C.ar      1 <0>        -0.1350
     21 C17        -4.9858   -8.8591   -4.4990 C.ar      1 <0>         0.1527
     22 C18        -5.5028   -8.2587   -3.3533 C.ar      1 <0>        -0.1290
     23 C19        -4.6582   -7.6332   -2.4574 C.ar      1 <0>         0.0011
     24 Cl1        -5.3098   -6.8941   -1.0281 Cl        1 <0>        -0.0490
     25 N4         -5.6206   -9.5461   -5.5344 N.am      1 <0>        -0.6589
     26 C20        -4.7535   -9.9760   -6.4664 C.2       1 <0>         0.5295
     27 O1         -5.0259  -10.5979   -7.4715 O.2       1 <0>        -0.4966
     28 C21        -3.3726   -9.5384   -6.0263 C.3       1 <0>        -0.1158
     29 H1          2.4208   -1.9190    4.5884 H         1 <0>         0.1325
     30 H2          4.2051   -0.2790    4.1770 H         1 <0>         0.1377
     31 H3          4.6981    0.4506    1.8851 H         1 <0>         0.1363
     32 H4          1.1132   -2.8380    2.7630 H         1 <0>         0.1314
     33 H5         -1.3270   -2.9242    1.0664 H         1 <0>         0.0687
     34 H6         -0.9781   -1.5267    0.0148 H         1 <0>         0.0714
     35 H7         -2.7958   -3.0322   -0.8883 H         1 <0>         0.0841
     36 H8         -1.4041   -2.8647   -1.9860 H         1 <0>         0.0388
     37 H9         -0.0322   -6.1495   -1.2765 H         1 <0>         0.0869
     38 H10         0.1755   -4.6464   -2.2079 H         1 <0>         0.0384
     39 H11         1.7907   -4.6499   -0.3844 H         1 <0>         0.0710
     40 H12         0.5035   -4.9890    0.8025 H         1 <0>         0.0681
     41 H13        -3.4528   -5.0309   -1.8047 H         1 <0>         0.0802
     42 H14        -2.1115   -5.1628   -2.9673 H         1 <0>         0.0353
     43 H15        -1.3600   -7.2520   -1.8632 H         1 <0>         0.0779
     44 H16        -2.7013   -7.1201   -0.7005 H         1 <0>         0.0914
     45 H17        -1.7129   -8.1512   -4.0207 H         1 <0>         0.1394
     46 H18        -6.5655   -8.2866   -3.1629 H         1 <0>         0.1391
     47 H19        -6.5779   -9.6966   -5.5762 H         1 <0>         0.4161
     48 H20        -2.9322   -8.8664   -6.7629 H         1 <0>         0.1276
     49 H21        -2.7306  -10.4045   -5.8659 H         1 <0>         0.1281
@<TRIPOS>BOND
     1    1    6 ar
     2    1    2 ar
     3    1   29 1
     4    2    3 ar
     5    2   30 1
     6    3    4 ar
     7    3   31 1
     8    4    9 1
     9    4    5 ar
    10    5    6 ar
    11    5    7 1
    12    6   32 1
    13    7    8 2
    14    7   10 1
    15    8    9 1
    16   10   15 1
    17   10   11 1
    18   11   12 1
    19   11   33 1
    20   11   34 1
    21   12   13 1
    22   12   35 1
    23   12   36 1
    24   13   14 1
    25   13   16 1
    26   14   15 1
    27   14   37 1
    28   14   38 1
    29   15   39 1
    30   15   40 1
    31   16   17 1
    32   16   41 1
    33   16   42 1
    34   17   18 1
    35   17   43 1
    36   17   44 1
    37   18   23 ar
    38   18   19 ar
    39   19   20 ar
    40   19   45 1
    41   20   28 1
    42   20   21 ar
    43   21   22 ar
    44   21   25 1
    45   22   23 ar
    46   22   46 1
    47   23   24 1
    48   25   26 am
    49   25   47 1
    50   26   27 2
    51   26   28 1
    52   28   48 1
    53   28   49 1
@<TRIPOS>MOLECULE
ZINC03812892
   77    80     0     0     0
SMALL
USER_CHARGES

@<TRIPOS>ATOM
      1 C1         -5.6570   -1.8380   -5.8329 C.3       1 <0>        -0.1410
      2 C2         -5.2316   -3.3070   -5.7878 C.3       1 <0>        -0.0339
      3 C3         -5.1149   -3.7596   -4.3310 C.3       1 <0>        -0.1396
      4 C4         -6.2769   -4.1630   -6.5057 C.3       1 <0>        -0.1471
      5 C5         -3.8977   -3.4648   -6.4712 C.ar      1 <0>        -0.0573
      6 C6         -3.7802   -4.2876   -7.5758 C.ar      1 <0>        -0.1168
      7 C7         -2.5567   -4.4324   -8.2027 C.ar      1 <0>        -0.1067
      8 C8         -1.4508   -3.7541   -7.7253 C.ar      1 <0>        -0.1350
      9 C9         -1.5686   -2.9306   -6.6212 C.ar      1 <0>        -0.1088
     10 C10        -2.7930   -2.7825   -5.9969 C.ar      1 <0>        -0.1103
     11 C11        -0.1168   -3.9128   -8.4081 C.3       1 <0>         0.1533
     12 H1         -0.2727   -4.2002   -9.4478 H         1 <0>         0.1093
     13 C12         0.6951   -4.9963   -7.6956 C.3       1 <0>        -0.1445
     14 C13         1.9961   -5.2452   -8.4615 C.3       1 <0>        -0.1465
     15 C14         2.8080   -6.3287   -7.7490 C.3       1 <0>        -0.0105
     16 N1          4.0571   -6.5677   -8.4843 N.4       1 <0>        -0.3824
     17 C15         4.8871   -5.3578   -8.4420 C.3       1 <0>        -0.0079
     18 C16         6.1529   -5.5737   -9.2743 C.3       1 <0>        -0.1472
     19 C17         6.9399   -6.7549   -8.6994 C.3       1 <0>        -0.1198
     20 C18         6.0400   -7.9939   -8.6795 C.3       1 <0>        -0.1384
     21 C19         4.7784   -7.6883   -7.8693 C.3       1 <0>        -0.0058
     22 C20         8.1658   -7.0269   -9.5736 C.3       1 <0>         0.2364
     23 C21         9.0396   -5.7996   -9.6092 C.ar      1 <0>        -0.1208
     24 C22         9.4143   -5.1835   -8.4299 C.ar      1 <0>        -0.1129
     25 C23        10.2158   -4.0577   -8.4626 C.ar      1 <0>        -0.1158
     26 C24        10.6430   -3.5483   -9.6747 C.ar      1 <0>        -0.1101
     27 C25        10.2690   -4.1651  -10.8540 C.ar      1 <0>        -0.1131
     28 C26         9.4710   -5.2933  -10.8210 C.ar      1 <0>        -0.1068
     29 C27         8.9453   -8.1821   -9.0001 C.ar      1 <0>        -0.0827
     30 C28         9.3013   -8.1805   -7.6644 C.ar      1 <0>        -0.1158
     31 C29        10.0164   -9.2401   -7.1384 C.ar      1 <0>        -0.1179
     32 C30        10.3751  -10.3016   -7.9480 C.ar      1 <0>        -0.1104
     33 C31        10.0184  -10.3036   -9.2835 C.ar      1 <0>        -0.1181
     34 C32         9.2996   -9.2460   -9.8085 C.ar      1 <0>        -0.0910
     35 O1          7.7429   -7.3493  -10.8999 O.3       1 <0>        -0.5409
     36 O2          0.5943   -2.6743   -8.3578 O.3       1 <0>        -0.5537
     37 H2         -4.9123   -1.2282   -5.3215 H         1 <0>         0.0572
     38 H3         -5.7401   -1.5155   -6.8708 H         1 <0>         0.0574
     39 H4         -6.6218   -1.7238   -5.3387 H         1 <0>         0.0630
     40 H5         -6.0797   -3.6455   -3.8367 H         1 <0>         0.0629
     41 H6         -4.8118   -4.8062   -4.2989 H         1 <0>         0.0558
     42 H7         -4.3702   -3.1498   -3.8196 H         1 <0>         0.0568
     43 H8         -6.3600   -3.8405   -7.5436 H         1 <0>         0.0596
     44 H9         -5.9738   -5.2095   -6.4736 H         1 <0>         0.0586
     45 H10        -7.2417   -4.0488   -6.0114 H         1 <0>         0.0628
     46 H11        -4.6441   -4.8176   -7.9488 H         1 <0>         0.1307
     47 H12        -2.4646   -5.0758   -9.0653 H         1 <0>         0.1217
     48 H13        -0.7046   -2.4010   -6.2480 H         1 <0>         0.1176
     49 H14        -2.8859   -2.1362   -5.1366 H         1 <0>         0.1244
     50 H15         0.9270   -4.6692   -6.6821 H         1 <0>         0.0787
     51 H16         0.1148   -5.9182   -7.6560 H         1 <0>         0.0860
     52 H17         1.7641   -5.5723   -9.4750 H         1 <0>         0.0879
     53 H18         2.5764   -4.3234   -8.5011 H         1 <0>         0.0944
     54 H19         3.0399   -6.0016   -6.7355 H         1 <0>         0.1285
     55 H20         2.2277   -7.2506   -7.7094 H         1 <0>         0.1306
     56 H21         4.3245   -4.5174   -8.8485 H         1 <0>         0.1351
     57 H22         5.1637   -5.1434   -7.4097 H         1 <0>         0.1288
     58 H23         5.8774   -5.7879  -10.3069 H         1 <0>         0.0889
     59 H24         6.7686   -4.6749   -9.2401 H         1 <0>         0.1173
     60 H25         7.2596   -6.5203   -7.6841 H         1 <0>         0.1001
     61 H26         5.7622   -8.2584   -9.6998 H         1 <0>         0.0971
     62 H27         6.5751   -8.8251   -8.2202 H         1 <0>         0.1150
     63 H28         5.0574   -7.4243   -6.8492 H         1 <0>         0.1274
     64 H29         4.1356   -8.5685   -7.8530 H         1 <0>         0.1314
     65 H30         9.0806   -5.5814   -7.4830 H         1 <0>         0.1196
     66 H31        10.5080   -3.5759   -7.5413 H         1 <0>         0.1259
     67 H32        11.2686   -2.6684   -9.7003 H         1 <0>         0.1266
     68 H33        10.6025   -3.7669  -11.8009 H         1 <0>         0.1271
     69 H34         9.1819   -5.7773  -11.7422 H         1 <0>         0.1293
     70 H35         9.0210   -7.3512   -7.0319 H         1 <0>         0.1189
     71 H36        10.2951   -9.2385   -6.0950 H         1 <0>         0.1260
     72 H37        10.9345  -11.1291   -7.5372 H         1 <0>         0.1261
     73 H38        10.2990  -11.1328   -9.9161 H         1 <0>         0.1265
     74 H39         9.0176   -9.2493  -10.8511 H         1 <0>         0.1327
     75 H40         7.2342   -6.6493  -11.3316 H         1 <0>         0.3777
     76 H41         0.7687   -2.3570   -7.4611 H         1 <0>         0.3762
     77 H42         3.8432   -6.7930   -9.4443 H         1 <0>         0.4225
@<TRIPOS>BOND
     1    1    2 1
     2    1   37 1
     3    1   38 1
     4    1   39 1
     5    2    3 1
     6    2    4 1
     7    2    5 1
     8    3   40 1
     9    3   41 1
    10    3   42 1
    11    4   43 1
    12    4   44 1
    13    4   45 1
    14    5   10 ar
    15    5    6 ar
    16    6    7 ar
    17    6   46 1
    18    7    8 ar
    19    7   47 1
    20    8    9 ar
    21    8   11 1
    22    9   10 ar
    23    9   48 1
    24   10   49 1
    25   11   12 1
    26   11   13 1
    27   11   36 1
    28   13   14 1
    29   13   50 1
    30   13   51 1
    31   14   15 1
    32   14   52 1
    33   14   53 1
    34   15   16 1
    35   15   54 1
    36   15   55 1
    37   16   21 1
    38   16   17 1
    39   16   77 1
    40   17   18 1
    41   17   56 1
    42   17   57 1
    43   18   19 1
    44   18   58 1
    45   18   59 1
    46   19   20 1
    47   19   22 1
    48   19   60 1
    49   20   21 1
    50   20   61 1
    51   20   62 1
    52   21   63 1
    53   21   64 1
    54   22   23 1
    55   22   29 1
    56   22   35 1
    57   23   28 ar
    58   23   24 ar
    59   24   25 ar
    60   24   65 1
    61   25   26 ar
    62   25   66 1
    63   26   27 ar
    64   26   67 1
    65   27   28 ar
    66   27   68 1
    67   28   69 1
    68   29   34 ar
    69   29   30 ar
    70   30   31 ar
    71   30   70 1
    72   31   32 ar
    73   31   71 1
    74   32   33 ar
    75   32   72 1
    76   33   34 ar
    77   33   73 1
    78   34   74 1
    79   35   75 1
    80   36   76 1
@<TRIPOS>MOLECULE
ZINC03831511
   77    80     0     0     0
SMALL
USER_CHARGES

@<TRIPOS>ATOM
      1 C1          8.5157   -0.1133    0.5257 C.3       1 <0>        -0.1396
      2 C2          8.2329   -1.6122    0.4070 C.3       1 <0>        -0.0339
      3 C3          9.4003   -2.4003    1.0044 C.3       1 <0>        -0.1410
      4 C4          6.9480   -1.9504    1.1657 C.3       1 <0>        -0.1471
      5 C5          8.0700   -1.9792   -1.0455 C.ar      1 <0>        -0.0570
      6 C6          6.8812   -2.5261   -1.4911 C.ar      1 <0>        -0.1171
      7 C7          6.7318   -2.8628   -2.8235 C.ar      1 <0>        -0.1058
      8 C8          7.7711   -2.6522   -3.7103 C.ar      1 <0>        -0.1351
      9 C9          8.9595   -2.1045   -3.2649 C.ar      1 <0>        -0.1088
     10 C10         9.1074   -1.7638   -1.9334 C.ar      1 <0>        -0.1105
     11 C11         7.6085   -3.0201   -5.1627 C.3       1 <0>         0.1534
     12 H1          6.7941   -3.7370   -5.2669 H         1 <0>         0.1083
     13 C12         7.2888   -1.7633   -5.9745 C.3       1 <0>        -0.1447
     14 C13         7.0011   -2.1531   -7.4258 C.3       1 <0>        -0.1461
     15 C14         6.6814   -0.8963   -8.2376 C.3       1 <0>        -0.0105
     16 N1          6.4052   -1.2705   -9.6310 N.4       1 <0>        -0.3824
     17 C15         5.1925   -2.0957   -9.6833 C.3       1 <0>        -0.0077
     18 C16         4.9455   -2.5556  -11.1217 C.3       1 <0>        -0.1474
     19 C17         4.7691   -1.3287  -12.0210 C.3       1 <0>        -0.1197
     20 C18         6.0089   -0.4378  -11.9013 C.3       1 <0>        -0.1385
     21 C19         6.2165   -0.0564  -10.4340 C.3       1 <0>        -0.0057
     22 C20         4.6009   -1.7789  -13.4735 C.3       1 <0>         0.2363
     23 C21         3.3927   -2.6726  -13.5857 C.ar      1 <0>        -0.1208
     24 C22         2.1799   -2.2641  -13.0630 C.ar      1 <0>        -0.1130
     25 C23         1.0716   -3.0839  -13.1659 C.ar      1 <0>        -0.1159
     26 C24         1.1760   -4.3120  -13.7919 C.ar      1 <0>        -0.1102
     27 C25         2.3886   -4.7200  -14.3155 C.ar      1 <0>        -0.1131
     28 C26         3.4958   -3.8984  -14.2163 C.ar      1 <0>        -0.1068
     29 C27         4.4159   -0.5710  -14.3556 C.ar      1 <0>        -0.0827
     30 C28         3.4639    0.3789  -14.0360 C.ar      1 <0>        -0.1158
     31 C29         3.2942    1.4868  -14.8450 C.ar      1 <0>        -0.1179
     32 C30         4.0769    1.6450  -15.9735 C.ar      1 <0>        -0.1103
     33 C31         5.0295    0.6955  -16.2925 C.ar      1 <0>        -0.1181
     34 C32         5.2021   -0.4102  -15.4811 C.ar      1 <0>        -0.0909
     35 O1          5.7648   -2.4972  -13.8874 O.3       1 <0>        -0.5409
     36 O2          8.8208   -3.6031   -5.6449 O.3       1 <0>        -0.5535
     37 H2          9.4311    0.1277   -0.0148 H         1 <0>         0.0568
     38 H3          7.6840    0.4482    0.1001 H         1 <0>         0.0558
     39 H4          8.6335    0.1522    1.5763 H         1 <0>         0.0630
     40 H5          9.5181   -2.1349    2.0550 H         1 <0>         0.0630
     41 H6          9.1989   -3.4682    0.9199 H         1 <0>         0.0575
     42 H7         10.3157   -2.1594    0.4639 H         1 <0>         0.0572
     43 H8          6.1163   -1.3889    0.7401 H         1 <0>         0.0585
     44 H9          6.7465   -3.0183    1.0812 H         1 <0>         0.0596
     45 H10         7.0658   -1.6849    2.2163 H         1 <0>         0.0628
     46 H11         6.0693   -2.6907   -0.7982 H         1 <0>         0.1306
     47 H12         5.8033   -3.2907   -3.1715 H         1 <0>         0.1216
     48 H13         9.7716   -1.9402   -3.9577 H         1 <0>         0.1174
     49 H14        10.0346   -1.3325   -1.5861 H         1 <0>         0.1245
     50 H15         6.4142   -1.2698   -5.5507 H         1 <0>         0.0854
     51 H16         8.1405   -1.0838   -5.9427 H         1 <0>         0.0792
     52 H17         7.8757   -2.6466   -7.8496 H         1 <0>         0.0944
     53 H18         6.1495   -2.8326   -7.4575 H         1 <0>         0.0876
     54 H19         5.8068   -0.4027   -7.8138 H         1 <0>         0.1286
     55 H20         7.5331   -0.2168   -8.2059 H         1 <0>         0.1305
     56 H21         5.3183   -2.9669   -9.0404 H         1 <0>         0.1340
     57 H22         4.3402   -1.5105   -9.3380 H         1 <0>         0.1290
     58 H23         5.7972   -3.1412  -11.4679 H         1 <0>         0.0892
     59 H24         4.0437   -3.1667  -11.1587 H         1 <0>         0.1172
     60 H25         3.8873   -0.7703  -11.7068 H         1 <0>         0.1001
     61 H26         6.8827   -0.9794  -12.2637 H         1 <0>         0.0972
     62 H27         5.8672    0.4650  -12.4955 H         1 <0>         0.1151
     63 H28         5.3424    0.4854  -10.0727 H         1 <0>         0.1274
     64 H29         7.0983    0.5781  -10.3452 H         1 <0>         0.1315
     65 H30         2.0983   -1.3047  -12.5739 H         1 <0>         0.1196
     66 H31         0.1243   -2.7651  -12.7569 H         1 <0>         0.1258
     67 H32         0.3103   -4.9527  -13.8717 H         1 <0>         0.1266
     68 H33         2.4702   -5.6796  -14.8043 H         1 <0>         0.1272
     69 H34         4.4423   -4.2156  -14.6286 H         1 <0>         0.1294
     70 H35         2.8524    0.2553  -13.1544 H         1 <0>         0.1188
     71 H36         2.5499    2.2287  -14.5958 H         1 <0>         0.1260
     72 H37         3.9438    2.5103  -16.6060 H         1 <0>         0.1261
     73 H38         5.6408    0.8189  -17.1743 H         1 <0>         0.1265
     74 H39         5.9489   -1.1502  -15.7284 H         1 <0>         0.1327
     75 H40         5.9458   -3.2889  -13.3624 H         1 <0>         0.3777
     76 H41         9.5897   -3.0199   -5.5826 H         1 <0>         0.3768
     77 H42         7.1840   -1.7972   -9.9974 H         1 <0>         0.4229
@<TRIPOS>BOND
     1    1    2 1
     2    1   37 1
     3    1   38 1
     4    1   39 1
     5    2    3 1
     6    2    4 1
     7    2    5 1
     8    3   40 1
     9    3   41 1
    10    3   42 1
    11    4   43 1
    12    4   44 1
    13    4   45 1
    14    5   10 ar
    15    5    6 ar
    16    6    7 ar
    17    6   46 1
    18    7    8 ar
    19    7   47 1
    20    8    9 ar
    21    8   11 1
    22    9   10 ar
    23    9   48 1
    24   10   49 1
    25   11   12 1
    26   11   13 1
    27   11   36 1
    28   13   14 1
    29   13   50 1
    30   13   51 1
    31   14   15 1
    32   14   52 1
    33   14   53 1
    34   15   16 1
    35   15   54 1
    36   15   55 1
    37   16   21 1
    38   16   17 1
    39   16   77 1
    40   17   18 1
    41   17   56 1
    42   17   57 1
    43   18   19 1
    44   18   58 1
    45   18   59 1
    46   19   20 1
    47   19   22 1
    48   19   60 1
    49   20   21 1
    50   20   61 1
    51   20   62 1
    52   21   63 1
    53   21   64 1
    54   22   23 1
    55   22   29 1
    56   22   35 1
    57   23   28 ar
    58   23   24 ar
    59   24   25 ar
    60   24   65 1
    61   25   26 ar
    62   25   66 1
    63   26   27 ar
    64   26   67 1
    65   27   28 ar
    66   27   68 1
    67   28   69 1
    68   29   34 ar
    69   29   30 ar
    70   30   31 ar
    71   30   70 1
    72   31   32 ar
    73   31   71 1
    74   32   33 ar
    75   32   72 1
    76   33   34 ar
    77   33   73 1
    78   34   74 1
    79   35   75 1
    80   36   76 1
@<TRIPOS>MOLECULE
ZINC03775140
   62    64     0     0     0
SMALL
USER_CHARGES

@<TRIPOS>ATOM
      1 C1         -0.0173    1.4248    0.0099 C.3       1 <0>         0.0171
      2 O1          0.0021   -0.0041    0.0020 O.3       1 <0>        -0.2760
      3 C2          0.6048   -0.6061   -1.0540 C.ar      1 <0>         0.2490
      4 C3          1.1714    0.1577   -2.0595 C.ar      1 <0>        -0.2968
      5 C4          1.7875   -0.4643   -3.1379 C.ar      1 <0>         0.3045
      6 C5          1.8368   -1.8562   -3.2112 C.ar      1 <0>        -0.1599
      7 C6          1.2804   -2.6188   -2.2247 C.ar      1 <0>         0.0104
      8 C7          0.6619   -2.0064   -1.1291 C.ar      1 <0>        -0.2378
      9 C8          0.0677   -2.8282   -0.0619 C.2       1 <0>         0.5777
     10 O2         -0.4739   -2.2937    0.8871 O.2       1 <0>        -0.5075
     11 N1          0.1238   -4.1727   -0.1363 N.am      1 <0>        -0.7330
     12 C9         -0.4675   -4.9905    0.9257 C.3       1 <0>         0.1404
     13 H1         -1.3642   -4.5012    1.3060 H         1 <0>         0.1248
     14 C10         0.5437   -5.1622    2.0629 C.3       1 <0>        -0.1546
     15 C11         1.7671   -5.9184    1.5404 C.3       1 <0>        -0.0167
     16 N2          1.3566   -7.2378    1.0453 N.4       1 <0>        -0.3759
     17 C12         0.4423   -7.0806   -0.0921 C.3       1 <0>        -0.0388
     18 C13        -0.8339   -6.3685    0.3670 C.3       1 <0>         0.0659
     19 H2         -1.3203   -6.9585    1.1438 H         1 <0>         0.1015
     20 O3         -1.7219   -6.2131   -0.7418 O.3       1 <0>        -0.3502
     21 C14        -2.6322   -7.3011   -0.9143 C.3       1 <0>         0.0179
     22 C15         2.5438   -7.9895    0.6171 C.3       1 <0>        -0.0062
     23 C16         3.4343   -8.2703    1.8292 C.3       1 <0>        -0.1507
     24 C17         4.6708   -9.0533    1.3832 C.3       1 <0>         0.0614
     25 O4          5.5024   -9.3155    2.5152 O.3       1 <0>        -0.3099
     26 C18         6.6507  -10.0076    2.2904 C.ar      1 <0>         0.1104
     27 C19         6.9722  -10.4203    1.0058 C.ar      1 <0>        -0.1786
     28 C20         8.1394  -11.1237    0.7787 C.ar      1 <0>        -0.1136
     29 C21         8.9878  -11.4170    1.8328 C.ar      1 <0>         0.0730
     30 C22         8.6679  -11.0061    3.1156 C.ar      1 <0>        -0.1109
     31 C23         7.5046  -10.2969    3.3445 C.ar      1 <0>        -0.1156
     32 F1         10.1287  -12.1053    1.6094 F         1 <0>        -0.1339
     33 Cl1         2.6089   -2.6229   -4.5639 Cl        1 <0>        -0.0623
     34 N3          2.3569    0.3038   -4.1485 N.pl3     1 <0>        -0.8495
     35 H3          1.0053    1.8021    0.0021 H         1 <0>         0.0609
     36 H4         -0.5445    1.7859   -0.8732 H         1 <0>         0.0614
     37 H5         -0.5275    1.7763    0.9067 H         1 <0>         0.1085
     38 H6          1.1342    1.2357   -2.0059 H         1 <0>         0.1464
     39 H7          1.3215   -3.6961   -2.2880 H         1 <0>         0.1333
     40 H8          0.5557   -4.5989   -0.8931 H         1 <0>         0.3942
     41 H9          0.8503   -4.1821    2.4284 H         1 <0>         0.1283
     42 H10         0.0859   -5.7273    2.8748 H         1 <0>         0.1026
     43 H11         2.2242   -5.3523    0.7288 H         1 <0>         0.1317
     44 H12         2.4891   -6.0421    2.3475 H         1 <0>         0.1399
     45 H13         0.9276   -6.4898   -0.8690 H         1 <0>         0.1341
     46 H14         0.1862   -8.0624   -0.4903 H         1 <0>         0.1380
     47 H15        -2.0715   -8.2215   -1.0778 H         1 <0>         0.0481
     48 H16        -3.2481   -7.4047   -0.0210 H         1 <0>         0.0566
     49 H17        -3.2712   -7.1071   -1.7758 H         1 <0>         0.1042
     50 H18         2.2339   -8.9329    0.1676 H         1 <0>         0.1368
     51 H19         3.1003   -7.4039   -0.1147 H         1 <0>         0.1356
     52 H20         3.7442   -7.3269    2.2786 H         1 <0>         0.1012
     53 H21         2.8778   -8.8559    2.5610 H         1 <0>         0.1013
     54 H22         4.3608   -9.9967    0.9337 H         1 <0>         0.0740
     55 H23         5.2272   -8.4676    0.6514 H         1 <0>         0.0740
     56 H24         6.3103  -10.1922    0.1835 H         1 <0>         0.1353
     57 H25         8.3900  -11.4451   -0.2214 H         1 <0>         0.1422
     58 H26         9.3304  -11.2359    3.9370 H         1 <0>         0.1482
     59 H27         7.2577   -9.9722    4.3445 H         1 <0>         0.1439
     60 H28         2.3233    1.2719   -4.0992 H         1 <0>         0.4097
     61 H29         2.7876   -0.1289   -4.9023 H         1 <0>         0.4089
     62 H30         0.8896   -7.7426    1.7837 H         1 <0>         0.4252
@<TRIPOS>BOND
     1    1    2 1
     2    1   35 1
     3    1   36 1
     4    1   37 1
     5    2    3 1
     6    3    8 ar
     7    3    4 ar
     8    4    5 ar
     9    4   38 1
    10    5    6 ar
    11    5   34 1
    12    6    7 ar
    13    6   33 1
    14    7    8 ar
    15    7   39 1
    16    8    9 1
    17    9   10 2
    18    9   11 am
    19   11   12 1
    20   11   40 1
    21   12   13 1
    22   12   18 1
    23   12   14 1
    24   14   15 1
    25   14   41 1
    26   14   42 1
    27   15   16 1
    28   15   43 1
    29   15   44 1
    30   16   17 1
    31   16   22 1
    32   16   62 1
    33   17   18 1
    34   17   45 1
    35   17   46 1
    36   18   19 1
    37   18   20 1
    38   20   21 1
    39   21   47 1
    40   21   48 1
    41   21   49 1
    42   22   23 1
    43   22   50 1
    44   22   51 1
    45   23   24 1
    46   23   52 1
    47   23   53 1
    48   24   25 1
    49   24   54 1
    50   24   55 1
    51   25   26 1
    52   26   31 ar
    53   26   27 ar
    54   27   28 ar
    55   27   56 1
    56   28   29 ar
    57   28   57 1
    58   29   30 ar
    59   29   32 1
    60   30   31 ar
    61   30   58 1
    62   31   59 1
    63   34   60 1
    64   34   61 1
@<TRIPOS>MOLECULE
ZINC03830564
   62    64     0     0     0
SMALL
USER_CHARGES

@<TRIPOS>ATOM
      1 C1         -0.0173    1.4248    0.0099 C.3       1 <0>         0.0173
      2 O1          0.0021   -0.0041    0.0020 O.3       1 <0>        -0.2768
      3 C2          0.6048   -0.6061   -1.0540 C.ar      1 <0>         0.2482
      4 C3          1.1714    0.1577   -2.0595 C.ar      1 <0>        -0.2974
      5 C4          1.7875   -0.4643   -3.1379 C.ar      1 <0>         0.3044
      6 C5          1.8368   -1.8562   -3.2112 C.ar      1 <0>        -0.1594
      7 C6          1.2804   -2.6188   -2.2247 C.ar      1 <0>         0.0124
      8 C7          0.6619   -2.0064   -1.1291 C.ar      1 <0>        -0.2376
      9 C8          0.0677   -2.8282   -0.0619 C.2       1 <0>         0.5803
     10 O2         -0.4739   -2.2937    0.8871 O.2       1 <0>        -0.5144
     11 N1          0.1238   -4.1727   -0.1363 N.am      1 <0>        -0.7279
     12 C9         -0.4675   -4.9905    0.9257 C.3       1 <0>         0.1426
     13 H1         -0.3382   -4.4904    1.8855 H         1 <0>         0.1147
     14 C10        -1.9606   -5.1884    0.6484 C.3       1 <0>        -0.1574
     15 C11        -2.5547   -6.1082    1.7173 C.3       1 <0>        -0.0121
     16 N2         -1.8729   -7.4076    1.6837 N.4       1 <0>        -0.3780
     17 C12        -0.4544   -7.2346    2.0193 C.3       1 <0>        -0.0308
     18 C13         0.2219   -6.3574    0.9634 C.3       1 <0>         0.0634
     19 H2          0.1375   -6.8346   -0.0130 H         1 <0>         0.0897
     20 O3          1.6015   -6.1871    1.2946 O.3       1 <0>        -0.3498
     21 C14         2.4612   -7.1803    0.7321 C.3       1 <0>         0.0175
     22 C15        -2.4981   -8.3123    2.6576 C.3       1 <0>        -0.0056
     23 C16        -3.9400   -8.5999    2.2341 C.3       1 <0>        -0.1510
     24 C17        -4.5912   -9.5422    3.2484 C.3       1 <0>         0.0612
     25 O4         -5.9378   -9.8107    2.8528 O.3       1 <0>        -0.3101
     26 C18        -6.6627  -10.6375    3.6523 C.ar      1 <0>         0.1103
     27 C19        -6.0908  -11.1740    4.7964 C.ar      1 <0>        -0.1786
     28 C20        -6.8286  -12.0140    5.6079 C.ar      1 <0>        -0.1136
     29 C21        -8.1381  -12.3209    5.2793 C.ar      1 <0>         0.0729
     30 C22        -8.7100  -11.7865    4.1373 C.ar      1 <0>        -0.1110
     31 C23        -7.9767  -10.9409    3.3276 C.ar      1 <0>        -0.1157
     32 F1         -8.8583  -13.1429    6.0736 F         1 <0>        -0.1339
     33 Cl1         2.6089   -2.6229   -4.5639 Cl        1 <0>        -0.0612
     34 N3          2.3569    0.3038   -4.1485 N.pl3     1 <0>        -0.8498
     35 H3          1.0053    1.8021    0.0021 H         1 <0>         0.0610
     36 H4         -0.5445    1.7859   -0.8732 H         1 <0>         0.0608
     37 H5         -0.5275    1.7763    0.9067 H         1 <0>         0.1075
     38 H6          1.1342    1.2357   -2.0059 H         1 <0>         0.1460
     39 H7          1.3215   -3.6961   -2.2880 H         1 <0>         0.1366
     40 H8          0.5557   -4.5989   -0.8931 H         1 <0>         0.4011
     41 H9         -2.4669   -4.2235    0.6762 H         1 <0>         0.1280
     42 H10        -2.0914   -5.6407   -0.3346 H         1 <0>         0.0936
     43 H11        -2.4236   -5.6548    2.6998 H         1 <0>         0.1373
     44 H12        -3.6177   -6.2510    1.5230 H         1 <0>         0.1408
     45 H13        -0.3681   -6.7573    2.9954 H         1 <0>         0.1434
     46 H14         0.0331   -8.2090    2.0480 H         1 <0>         0.1370
     47 H15         2.1631   -8.1650    1.0923 H         1 <0>         0.0484
     48 H16         2.3857   -7.1529   -0.3549 H         1 <0>         0.0550
     49 H17         3.4905   -6.9808    1.0300 H         1 <0>         0.1046
     50 H18        -1.9380   -9.2465    2.6975 H         1 <0>         0.1365
     51 H19        -2.4951   -7.8445    3.6421 H         1 <0>         0.1371
     52 H20        -4.5001   -7.6657    2.1942 H         1 <0>         0.1015
     53 H21        -3.9430   -9.0676    1.2495 H         1 <0>         0.1005
     54 H22        -4.0310  -10.4764    3.2882 H         1 <0>         0.0740
     55 H23        -4.5881   -9.0744    4.2329 H         1 <0>         0.0745
     56 H24        -5.0691  -10.9353    5.0526 H         1 <0>         0.1356
     57 H25        -6.3836  -12.4318    6.4989 H         1 <0>         0.1423
     58 H26        -9.7315  -12.0270    3.8820 H         1 <0>         0.1482
     59 H27        -8.4246  -10.5203    2.4394 H         1 <0>         0.1438
     60 H28         2.3233    1.2719   -4.0992 H         1 <0>         0.4092
     61 H29         2.7876   -0.1289   -4.9023 H         1 <0>         0.4089
     62 H30        -1.9528   -7.8044    0.7595 H         1 <0>         0.4239
@<TRIPOS>BOND
     1    1    2 1
     2    1   35 1
     3    1   36 1
     4    1   37 1
     5    2    3 1
     6    3    8 ar
     7    3    4 ar
     8    4    5 ar
     9    4   38 1
    10    5    6 ar
    11    5   34 1
    12    6    7 ar
    13    6   33 1
    14    7    8 ar
    15    7   39 1
    16    8    9 1
    17    9   10 2
    18    9   11 am
    19   11   12 1
    20   11   40 1
    21   12   13 1
    22   12   18 1
    23   12   14 1
    24   14   15 1
    25   14   41 1
    26   14   42 1
    27   15   16 1
    28   15   43 1
    29   15   44 1
    30   16   17 1
    31   16   22 1
    32   16   62 1
    33   17   18 1
    34   17   45 1
    35   17   46 1
    36   18   19 1
    37   18   20 1
    38   20   21 1
    39   21   47 1
    40   21   48 1
    41   21   49 1
    42   22   23 1
    43   22   50 1
    44   22   51 1
    45   23   24 1
    46   23   52 1
    47   23   53 1
    48   24   25 1
    49   24   54 1
    50   24   55 1
    51   25   26 1
    52   26   31 ar
    53   26   27 ar
    54   27   28 ar
    55   27   56 1
    56   28   29 ar
    57   28   57 1
    58   29   30 ar
    59   29   32 1
    60   30   31 ar
    61   30   58 1
    62   31   59 1
    63   34   60 1
    64   34   61 1
