@<TRIPOS>MOLECULE
ZINC21983255
   61    64     0     0     0
SMALL
USER_CHARGES
1-[[5-(4-chlorophenyl)-2-furyl]methyleneamino]-3-[4-(4-methylpiperazin-1-yl)butyl]imidazolidine-2,4-dione
@<TRIPOS>ATOM
      1 C1         -3.0458   17.1500    3.7611 C.3       1 <0>         0.0170
      2 N1         -3.1260   15.6832    3.7521 N.3       1 <0>        -0.5442
      3 C2         -4.4029   15.2222    4.3149 C.3       1 <0>         0.0231
      4 C3         -4.4143   13.6924    4.3610 C.3       1 <0>         0.0005
      5 N2         -4.2181   13.1626    3.0044 N.4       1 <0>        -0.4008
      6 C4         -2.9413   13.6236    2.4416 C.3       1 <0>        -0.0038
      7 C5         -2.9298   15.1534    2.3955 C.3       1 <0>         0.0238
      8 C6         -4.2984   11.6958    2.9954 C.3       1 <0>        -0.0053
      9 C7         -4.3401   11.1962    1.5498 C.3       1 <0>        -0.1446
     10 C8         -4.4237    9.6685    1.5405 C.3       1 <0>        -0.1367
     11 C9         -4.4653    9.1689    0.0949 C.3       1 <0>         0.1154
     12 N3         -4.5454    7.7061    0.0860 N.am      1 <0>        -0.5767
     13 C10        -5.7000    7.0110    0.0924 C.2       1 <0>         0.5256
     14 O1         -6.8256    7.4612    0.1049 O.2       1 <0>        -0.4539
     15 C11        -5.2985    5.5494    0.0797 C.3       1 <0>         0.0834
     16 N4         -3.8261    5.5949    0.0664 N.am      1 <0>        -0.4701
     17 C12        -3.4812    6.8952    0.0763 C.2       1 <0>         0.6798
     18 O2         -2.3313    7.2893    0.0735 O.2       1 <0>        -0.5384
     19 N5         -2.9548    4.4979    0.0524 N.2       1 <0>        -0.2062
     20 C13        -1.6676    4.6894    0.0416 C.2       1 <0>         0.1577
     21 C14        -0.7568    3.5426    0.0270 C.2       1 <0>         0.0059
     22 C15         0.6091    3.6047    0.0147 C.2       1 <0>        -0.1340
     23 C16         1.0775    2.2841    0.0040 C.2       1 <0>        -0.1929
     24 C17        -0.0179    1.4720    0.0101 C.2       1 <0>         0.0627
     25 O3         -1.1214    2.2444    0.0189 O.3       1 <0>        -0.1512
     26 C18         0.0021   -0.0041    0.0020 C.ar      1 <0>        -0.0262
     27 C19         1.2194   -0.6889   -0.0191 C.ar      1 <0>        -0.0785
     28 C20         1.2313   -2.0679   -0.0212 C.ar      1 <0>        -0.1063
     29 C21         0.0396   -2.7737   -0.0136 C.ar      1 <0>        -0.0238
     30 C22        -1.1707   -2.1006    0.0020 C.ar      1 <0>        -0.1075
     31 C23        -1.1963   -0.7219    0.0096 C.ar      1 <0>        -0.0836
     32 Cl1         0.0632   -4.5095   -0.0242 Cl        1 <0>        -0.0575
     33 H1         -3.1958   17.5191    4.7864 H         1 <0>         0.0846
     34 H2         -3.8254   17.5639    3.1046 H         1 <0>         0.0400
     35 H3         -2.0561   17.4653    3.3990 H         1 <0>         0.0851
     36 H4         -4.5203   15.6216    5.3331 H         1 <0>         0.1241
     37 H5         -5.2311   15.5772    3.6840 H         1 <0>         0.0610
     38 H6         -3.6030   13.3392    5.0145 H         1 <0>         0.1354
     39 H7         -5.3805   13.3446    4.7554 H         1 <0>         0.1366
     40 H8         -2.1131   13.2686    3.0725 H         1 <0>         0.1357
     41 H9         -2.8239   13.2242    1.4234 H         1 <0>         0.1371
     42 H10        -3.7411   15.5077    1.7426 H         1 <0>         0.0609
     43 H11        -1.9637   15.5021    2.0018 H         1 <0>         0.1239
     44 H12        -3.4167   11.2772    3.5027 H         1 <0>         0.1299
     45 H13        -5.2102   11.3752    3.5206 H         1 <0>         0.1331
     46 H14        -5.2218   11.6148    1.0425 H         1 <0>         0.0930
     47 H15        -3.4283   11.5168    1.0246 H         1 <0>         0.0925
     48 H16        -3.5420    9.2500    2.0479 H         1 <0>         0.0837
     49 H17        -5.3355    9.3480    2.0657 H         1 <0>         0.0823
     50 H18        -5.3469    9.5875   -0.4125 H         1 <0>         0.1030
     51 H19        -3.5534    9.4894   -0.4302 H         1 <0>         0.1034
     52 H20        -5.6931    5.0530    0.9785 H         1 <0>         0.1397
     53 H21        -5.7097    5.0640   -0.8177 H         1 <0>         0.1409
     54 H22        -1.2637    5.7126    0.0434 H         1 <0>         0.1914
     55 H23         1.2119    4.5008    0.0141 H         1 <0>         0.1644
     56 H24         2.1104    1.9690   -0.0070 H         1 <0>         0.1624
     57 H25         2.1492   -0.1397   -0.0299 H         1 <0>         0.1414
     58 H26         2.1718   -2.5987   -0.0337 H         1 <0>         0.1438
     59 H27        -2.0965   -2.6568    0.0079 H         1 <0>         0.1413
     60 H28        -2.1407   -0.1982    0.0210 H         1 <0>         0.1393
     61 H29        -5.0286   13.5483    2.3685 H         1 <0>         0.4379
@<TRIPOS>BOND
     1    1    2 1
     2    1   33 1
     3    1   34 1
     4    1   35 1
     5    2    7 1
     6    2    3 1
     7    3    4 1
     8    3   36 1
     9    3   37 1
    10    4    5 1
    11    4   38 1
    12    4   39 1
    13    5    6 1
    14    5    8 1
    15    5   61 1
    16    6    7 1
    17    6   40 1
    18    6   41 1
    19    7   42 1
    20    7   43 1
    21    8    9 1
    22    8   44 1
    23    8   45 1
    24    9   10 1
    25    9   46 1
    26    9   47 1
    27   10   11 1
    28   10   48 1
    29   10   49 1
    30   11   12 1
    31   11   50 1
    32   11   51 1
    33   12   17 am
    34   12   13 am
    35   13   14 2
    36   13   15 1
    37   15   16 1
    38   15   52 1
    39   15   53 1
    40   16   17 am
    41   16   19 1
    42   17   18 2
    43   19   20 2
    44   20   21 1
    45   20   54 1
    46   21   25 1
    47   21   22 2
    48   22   23 1
    49   22   55 1
    50   23   24 2
    51   23   56 1
    52   24   25 1
    53   24   26 1
    54   26   31 ar
    55   26   27 ar
    56   27   28 ar
    57   27   57 1
    58   28   29 ar
    59   28   58 1
    60   29   30 ar
    61   29   32 1
    62   30   31 ar
    63   30   59 1
    64   31   60 1
@<TRIPOS>MOLECULE
ZINC21983255
   61    64     0     0     0
SMALL
USER_CHARGES
1-[[5-(4-chlorophenyl)-2-furyl]methyleneamino]-3-[4-(4-methylpiperazin-1-yl)butyl]imidazolidine-2,4-dione
@<TRIPOS>ATOM
      1 C1         -3.0458   17.1500    3.7611 C.3       1 <0>        -0.0453
      2 N1         -3.1260   15.6832    3.7521 N.4       1 <0>        -0.4029
      3 C2         -4.4029   15.2222    4.3149 C.3       1 <0>         0.0002
      4 C3         -4.4143   13.6924    4.3610 C.3       1 <0>         0.0239
      5 N2         -4.2181   13.1626    3.0044 N.3       1 <0>        -0.5397
      6 C4         -2.9413   13.6236    2.4416 C.3       1 <0>         0.0188
      7 C5         -2.9298   15.1534    2.3955 C.3       1 <0>         0.0000
      8 C6         -4.2984   11.6958    2.9954 C.3       1 <0>         0.0544
      9 C7         -4.3401   11.1962    1.5498 C.3       1 <0>        -0.1141
     10 C8         -4.4237    9.6685    1.5405 C.3       1 <0>        -0.1378
     11 C9         -4.4653    9.1689    0.0949 C.3       1 <0>         0.1161
     12 N3         -4.5454    7.7061    0.0860 N.am      1 <0>        -0.5753
     13 C10        -5.7000    7.0110    0.0924 C.2       1 <0>         0.5246
     14 O1         -6.8256    7.4612    0.1049 O.2       1 <0>        -0.4536
     15 C11        -5.2985    5.5494    0.0797 C.3       1 <0>         0.0838
     16 N4         -3.8261    5.5949    0.0664 N.am      1 <0>        -0.4715
     17 C12        -3.4812    6.8952    0.0763 C.2       1 <0>         0.6809
     18 O2         -2.3313    7.2893    0.0735 O.2       1 <0>        -0.5393
     19 N5         -2.9548    4.4979    0.0524 N.2       1 <0>        -0.2043
     20 C13        -1.6676    4.6894    0.0416 C.2       1 <0>         0.1530
     21 C14        -0.7568    3.5426    0.0270 C.2       1 <0>         0.0102
     22 C15         0.6091    3.6047    0.0147 C.2       1 <0>        -0.1370
     23 C16         1.0775    2.2841    0.0040 C.2       1 <0>        -0.1921
     24 C17        -0.0179    1.4720    0.0101 C.2       1 <0>         0.0596
     25 O3         -1.1214    2.2444    0.0189 O.3       1 <0>        -0.1511
     26 C18         0.0021   -0.0041    0.0020 C.ar      1 <0>        -0.0246
     27 C19         1.2194   -0.6889   -0.0191 C.ar      1 <0>        -0.0792
     28 C20         1.2313   -2.0679   -0.0212 C.ar      1 <0>        -0.1064
     29 C21         0.0396   -2.7737   -0.0136 C.ar      1 <0>        -0.0246
     30 C22        -1.1707   -2.1006    0.0020 C.ar      1 <0>        -0.1073
     31 C23        -1.1963   -0.7219    0.0096 C.ar      1 <0>        -0.0840
     32 Cl1         0.0632   -4.5095   -0.0242 Cl        1 <0>        -0.0584
     33 H1         -3.1958   17.5191    4.7864 H         1 <0>         0.1247
     34 H2         -3.8254   17.5639    3.1046 H         1 <0>         0.1201
     35 H3         -2.0561   17.4653    3.3990 H         1 <0>         0.1248
     36 H4         -4.5203   15.6216    5.3331 H         1 <0>         0.1363
     37 H5         -5.2311   15.5772    3.6840 H         1 <0>         0.1350
     38 H6         -3.6030   13.3392    5.0145 H         1 <0>         0.0609
     39 H7         -5.3805   13.3446    4.7554 H         1 <0>         0.1237
     40 H8         -2.1131   13.2686    3.0725 H         1 <0>         0.0613
     41 H9         -2.8239   13.2242    1.4234 H         1 <0>         0.1260
     42 H10        -3.7411   15.5077    1.7426 H         1 <0>         0.1350
     43 H11        -1.9637   15.5021    2.0018 H         1 <0>         0.1362
     44 H12        -3.4167   11.2772    3.5027 H         1 <0>         0.0483
     45 H13        -5.2102   11.3752    3.5206 H         1 <0>         0.0905
     46 H14        -5.2218   11.6148    1.0425 H         1 <0>         0.0823
     47 H15        -3.4283   11.5168    1.0246 H         1 <0>         0.0688
     48 H16        -3.5420    9.2500    2.0479 H         1 <0>         0.0726
     49 H17        -5.3355    9.3480    2.0657 H         1 <0>         0.0745
     50 H18        -5.3469    9.5875   -0.4125 H         1 <0>         0.1013
     51 H19        -3.5534    9.4894   -0.4302 H         1 <0>         0.0997
     52 H20        -5.6931    5.0530    0.9785 H         1 <0>         0.1384
     53 H21        -5.7097    5.0640   -0.8177 H         1 <0>         0.1395
     54 H22        -1.2637    5.7126    0.0434 H         1 <0>         0.1916
     55 H23         1.2119    4.5008    0.0141 H         1 <0>         0.1640
     56 H24         2.1104    1.9690   -0.0070 H         1 <0>         0.1618
     57 H25         2.1492   -0.1397   -0.0299 H         1 <0>         0.1411
     58 H26         2.1718   -2.5987   -0.0337 H         1 <0>         0.1434
     59 H27        -2.0965   -2.6568    0.0079 H         1 <0>         0.1411
     60 H28        -2.1407   -0.1982    0.0210 H         1 <0>         0.1395
     61 H29        -2.3154   15.2976    4.3879 H         1 <0>         0.4405
@<TRIPOS>BOND
     1    1    2 1
     2    1   33 1
     3    1   34 1
     4    1   35 1
     5    2    7 1
     6    2    3 1
     7    2   61 1
     8    3    4 1
     9    3   36 1
    10    3   37 1
    11    4    5 1
    12    4   38 1
    13    4   39 1
    14    5    6 1
    15    5    8 1
    16    6    7 1
    17    6   40 1
    18    6   41 1
    19    7   42 1
    20    7   43 1
    21    8    9 1
    22    8   44 1
    23    8   45 1
    24    9   10 1
    25    9   46 1
    26    9   47 1
    27   10   11 1
    28   10   48 1
    29   10   49 1
    30   11   12 1
    31   11   50 1
    32   11   51 1
    33   12   17 am
    34   12   13 am
    35   13   14 2
    36   13   15 1
    37   15   16 1
    38   15   52 1
    39   15   53 1
    40   16   17 am
    41   16   19 1
    42   17   18 2
    43   19   20 2
    44   20   21 1
    45   20   54 1
    46   21   25 1
    47   21   22 2
    48   22   23 1
    49   22   55 1
    50   23   24 2
    51   23   56 1
    52   24   25 1
    53   24   26 1
    54   26   31 ar
    55   26   27 ar
    56   27   28 ar
    57   27   57 1
    58   28   29 ar
    59   28   58 1
    60   29   30 ar
    61   29   32 1
    62   30   31 ar
    63   30   59 1
    64   31   60 1
