@<TRIPOS>MOLECULE
ZINC04097404
   98   103     0     0     0
SMALL
USER_CHARGES
[17-acetoxy-10,13-dimethyl-16-(1-methyl-3,4,5,6-tetrahydro-2H-pyridin-1-yl)-2-(1-piperidyl)-2,3,4,5,6,7,8,9,11,12,14,15,16,17-tetradecahydro-1H-cyclopenta[a]phenanthren-3-yl] acetate
@<TRIPOS>ATOM
      1 C1         -4.7984   -0.9023   -2.1644 C.3       1 <0>        -0.1500
      2 C2         -3.3194   -0.6560   -2.0126 C.2       1 <0>         0.4645
      3 O1         -2.5698   -0.8967   -2.9291 O.2       1 <0>        -0.4970
      4 O2         -2.8349   -0.1693   -0.8593 O.3       1 <0>        -0.3388
      5 C3         -1.4005    0.0430   -0.7843 C.3       1 <0>         0.0719
      6 H1         -0.8922   -0.6781   -1.4244 H         1 <0>         0.1089
      7 C4         -1.0648    1.4612   -1.2506 C.3       1 <0>        -0.1551
      8 C5         -1.7817    2.4727   -0.3544 C.3       1 <0>        -0.0795
      9 H2         -2.8580    2.3114   -0.4141 H         1 <0>         0.0988
     10 C6         -1.4547    3.8920   -0.8222 C.3       1 <0>        -0.1193
     11 C7         -2.1733    4.9034    0.0733 C.3       1 <0>        -0.1183
     12 C8         -1.7070    4.7256    1.5189 C.3       1 <0>        -0.0731
     13 H3         -0.6313    4.8900    1.5816 H         1 <0>         0.0859
     14 C9         -2.0405    3.3008    1.9878 C.3       1 <0>        -0.0669
     15 H4         -3.1155    3.1450    1.8979 H         1 <0>         0.0871
     16 C10        -1.3190    2.2923    1.0930 C.3       1 <0>        -0.0570
     17 C11        -1.6470    0.8723    1.5595 C.3       1 <0>        -0.1338
     18 C12        -0.9327   -0.1391    0.6611 C.3       1 <0>         0.0362
     19 H5         -1.1670   -1.1501    0.9942 H         1 <0>         0.1440
     20 C13         1.2165   -0.6575   -0.3253 C.3       1 <0>        -0.0224
     21 C14         2.7032   -0.2950   -0.3060 C.3       1 <0>        -0.1443
     22 C15         3.2932   -0.6532    1.0608 C.3       1 <0>        -0.1393
     23 C16         2.5172    0.0880    2.1530 C.3       1 <0>        -0.1454
     24 C17         1.0359   -0.2856    2.0625 C.3       1 <0>        -0.0078
     25 C18         0.1912    2.5221    1.1789 C.3       1 <0>        -0.1963
     26 C19        -1.6469    3.0823    3.4447 C.3       1 <0>        -0.1245
     27 C20        -2.2882    4.1371    4.3622 C.3       1 <0>        -0.1035
     28 C21        -1.8498    5.4988    3.8600 C.3       1 <0>        -0.0708
     29 C22        -2.4288    5.7009    2.4297 C.3       1 <0>        -0.0791
     30 H6         -3.4994    5.4961    2.4316 H         1 <0>         0.0974
     31 C23        -2.1548    7.1864    2.1716 C.3       1 <0>        -0.1335
     32 C24        -2.5036    7.8456    3.5341 C.3       1 <0>         0.0161
     33 H7         -3.5298    8.2128    3.5202 H         1 <0>         0.1447
     34 C25        -2.3817    6.7091    4.6206 C.3       1 <0>         0.0799
     35 H8         -3.3418    6.4743    5.0802 H         1 <0>         0.1347
     36 O3         -1.4274    7.1268    5.6321 O.3       1 <0>        -0.3594
     37 C26        -1.8738    7.2053    6.8956 C.2       1 <0>         0.4502
     38 O4         -3.0066    6.8769    7.1576 O.2       1 <0>        -0.4768
     39 C27        -0.9619    7.7030    7.9873 C.3       1 <0>        -0.1603
     40 N1         -1.5767    8.9510    3.8114 N.4       1 <0>        -0.2449
     41 C28        -0.1995    8.4432    3.8161 C.3       1 <0>        -0.0336
     42 C29         0.7755    9.6041    4.0240 C.3       1 <0>        -0.1465
     43 C30         0.4751   10.2821    5.3639 C.3       1 <0>        -0.1360
     44 C31        -0.9856   10.7417    5.3761 C.3       1 <0>        -0.1452
     45 C32        -1.8953    9.5386    5.1181 C.3       1 <0>        -0.0347
     46 C33        -1.7138    9.9764    2.7684 C.3       1 <0>        -0.0605
     47 C34        -0.3224    5.5590    3.7954 C.3       1 <0>        -0.1695
     48 H9         -5.3387    0.0343   -2.0262 H         1 <0>         0.1059
     49 H10        -5.0010   -1.2950   -3.1608 H         1 <0>         0.1117
     50 H11        -5.1252   -1.6242   -1.4159 H         1 <0>         0.1072
     51 H12        -1.3949    1.5908   -2.2812 H         1 <0>         0.1015
     52 H13         0.0117    1.6217   -1.1909 H         1 <0>         0.0729
     53 H14        -0.3785    4.0550   -0.7633 H         1 <0>         0.0651
     54 H15        -1.7854    4.0200   -1.8529 H         1 <0>         0.0764
     55 H16        -1.9415    5.9144   -0.2616 H         1 <0>         0.0706
     56 H17        -3.2494    4.7393    0.0158 H         1 <0>         0.0726
     57 H18        -2.7235    0.7112    1.5033 H         1 <0>         0.1234
     58 H19        -1.3136    0.7424    2.5891 H         1 <0>         0.0957
     59 H20         1.1018   -1.7290   -0.1613 H         1 <0>         0.1305
     60 H21         0.7901   -0.3906   -1.2922 H         1 <0>         0.1258
     61 H22         2.8194    0.7741   -0.4837 H         1 <0>         0.0809
     62 H23         3.2238   -0.8526   -1.0845 H         1 <0>         0.1152
     63 H24         4.3416   -0.3569    1.0939 H         1 <0>         0.0961
     64 H25         3.2132   -1.7281    1.2228 H         1 <0>         0.0858
     65 H26         2.6305    1.1632    2.0140 H         1 <0>         0.0808
     66 H27         2.9048   -0.1953    3.1316 H         1 <0>         0.1142
     67 H28         0.4783    0.2515    2.8298 H         1 <0>         0.1249
     68 H29         0.9222   -1.3588    2.2152 H         1 <0>         0.1298
     69 H30         0.6921    1.9384    0.4065 H         1 <0>         0.0779
     70 H31         0.4067    3.5804    1.0315 H         1 <0>         0.1090
     71 H32         0.5509    2.2113    2.1598 H         1 <0>         0.0872
     72 H33        -1.9742    2.0909    3.7578 H         1 <0>         0.0750
     73 H34        -0.5624    3.1447    3.5345 H         1 <0>         0.0714
     74 H35        -3.3743    4.0572    4.3165 H         1 <0>         0.0768
     75 H36        -1.9478    3.9928    5.3875 H         1 <0>         0.0745
     76 H37        -1.1060    7.3476    1.9223 H         1 <0>         0.0967
     77 H38        -2.8007    7.5659    1.3798 H         1 <0>         0.1071
     78 H39         0.0115    7.9495    7.5634 H         1 <0>         0.0954
     79 H40        -1.3948    8.5925    8.4449 H         1 <0>         0.1178
     80 H41        -0.8429    6.9268    8.7433 H         1 <0>         0.1209
     81 H42        -0.0817    7.7212    4.6241 H         1 <0>         0.1596
     82 H43         0.0117    7.9582    2.8630 H         1 <0>         0.1264
     83 H44         0.6586   10.3266    3.2162 H         1 <0>         0.0869
     84 H45         1.7973    9.2248    4.0289 H         1 <0>         0.1097
     85 H46         1.1296   11.1444    5.4908 H         1 <0>         0.0961
     86 H47         0.6413    9.5742    6.1759 H         1 <0>         0.0810
     87 H48        -1.1390   11.4878    4.5964 H         1 <0>         0.0894
     88 H49        -1.2226   11.1755    6.3476 H         1 <0>         0.1112
     89 H50        -2.9361    9.8623    5.1264 H         1 <0>         0.1218
     90 H51        -1.7409    8.7935    5.8985 H         1 <0>         0.1382
     91 H52        -2.7276   10.3767    2.7836 H         1 <0>         0.1217
     92 H53        -1.0026   10.7811    2.9544 H         1 <0>         0.1309
     93 H54        -1.5131    9.5322    1.7935 H         1 <0>         0.1208
     94 H55         0.0558    4.6651    3.2995 H         1 <0>         0.0757
     95 H56        -0.0170    6.4424    3.2346 H         1 <0>         0.0641
     96 H57         0.0822    5.6125    4.8061 H         1 <0>         0.0734
     97 N2          0.5224    0.1070    0.7330 N.4       1 <0>        -0.4262
     98 H58         0.6986    1.1084    0.5904 H         1 <0>         0.4251
@<TRIPOS>BOND
     1    1    2 1
     2    1   48 1
     3    1   49 1
     4    1   50 1
     5    2    3 2
     6    2    4 1
     7    4    5 1
     8    5    6 1
     9    5   18 1
    10    5    7 1
    11    7    8 1
    12    7   51 1
    13    7   52 1
    14    8    9 1
    15    8   16 1
    16    8   10 1
    17   10   11 1
    18   10   53 1
    19   10   54 1
    20   11   12 1
    21   11   55 1
    22   11   56 1
    23   12   13 1
    24   12   29 1
    25   12   14 1
    26   14   15 1
    27   14   16 1
    28   14   26 1
    29   16   17 1
    30   16   25 1
    31   17   18 1
    32   17   57 1
    33   17   58 1
    34   18   19 1
    35   18   97 1
    36   20   21 1
    37   20   59 1
    38   20   60 1
    39   20   97 1
    40   21   22 1
    41   21   61 1
    42   21   62 1
    43   22   23 1
    44   22   63 1
    45   22   64 1
    46   23   24 1
    47   23   65 1
    48   23   66 1
    49   24   67 1
    50   24   68 1
    51   24   97 1
    52   25   69 1
    53   25   70 1
    54   25   71 1
    55   26   27 1
    56   26   72 1
    57   26   73 1
    58   27   28 1
    59   27   74 1
    60   27   75 1
    61   28   34 1
    62   28   29 1
    63   28   47 1
    64   29   30 1
    65   29   31 1
    66   31   32 1
    67   31   76 1
    68   31   77 1
    69   32   33 1
    70   32   34 1
    71   32   40 1
    72   34   35 1
    73   34   36 1
    74   36   37 1
    75   37   38 2
    76   37   39 1
    77   39   78 1
    78   39   79 1
    79   39   80 1
    80   40   45 1
    81   40   41 1
    82   40   46 1
    83   41   42 1
    84   41   81 1
    85   41   82 1
    86   42   43 1
    87   42   83 1
    88   42   84 1
    89   43   44 1
    90   43   85 1
    91   43   86 1
    92   44   45 1
    93   44   87 1
    94   44   88 1
    95   45   89 1
    96   45   90 1
    97   46   91 1
    98   46   92 1
    99   46   93 1
   100   47   94 1
   101   47   95 1
   102   47   96 1
   103   97   98 1
@<TRIPOS>MOLECULE
ZINC01655706
   74    77     0     0     0
SMALL
USER_CHARGES

@<TRIPOS>ATOM
      1 C1         -1.7267   -0.5454    0.0551 C.3       1 <0>        -0.1537
      2 C2         -2.1747   -1.9842    0.0509 C.ar      1 <0>         0.2570
      3 C3         -2.3744   -2.6249   -1.1642 C.ar      1 <0>        -0.2650
      4 C4         -2.7859   -3.9483   -1.1831 C.ar      1 <0>         0.3563
      5 C5         -2.9870   -4.5969    0.0588 C.ar      1 <0>        -0.1366
      6 C6         -3.4022   -5.9341    0.1246 C.ar      1 <0>        -0.0582
      7 C7         -3.5847   -6.5238    1.3393 C.ar      1 <0>        -0.1117
      8 C8         -3.3641   -5.8141    2.5172 C.ar      1 <0>        -0.0300
      9 C9         -2.9605   -4.5144    2.4884 C.ar      1 <0>        -0.1519
     10 C10        -2.7615   -3.8729    1.2536 C.ar      1 <0>         0.1756
     11 N1         -2.3598   -2.5980    1.1965 N.ar      1 <0>        -0.4006
     12 C11        -2.1261   -1.8665    2.4442 C.3       1 <0>         0.0512
     13 C12        -3.4222   -1.1836    2.8854 C.3       1 <0>        -0.1424
     14 C13        -3.1782   -0.4197    4.1884 C.3       1 <0>        -0.1187
     15 C14        -4.4743    0.2632    4.6296 C.3       1 <0>        -0.1204
     16 C15        -4.2303    1.0271    5.9326 C.3       1 <0>        -0.1216
     17 C16        -5.5264    1.7101    6.3738 C.3       1 <0>        -0.1216
     18 C17        -5.2824    2.4740    7.6768 C.3       1 <0>        -0.1204
     19 C18        -6.5785    3.1569    8.1180 C.3       1 <0>        -0.1187
     20 C19        -6.3345    3.9208    9.4210 C.3       1 <0>        -0.1420
     21 C20        -7.6306    4.6037    9.8622 C.3       1 <0>         0.0513
     22 N2         -7.3969    5.3352   11.1098 N.ar      1 <0>        -0.4007
     23 C21        -7.1067    6.6143   11.0567 C.ar      1 <0>         0.2565
     24 C22        -6.8749    7.3613   12.2035 C.ar      1 <0>        -0.2647
     25 C23        -6.9486    6.7521   13.4463 C.ar      1 <0>         0.3563
     26 C24        -7.2623    5.3725   13.4898 C.ar      1 <0>        -0.1366
     27 C25        -7.4901    4.6837   12.2747 C.ar      1 <0>         0.1756
     28 C26        -7.8073    3.3150   12.3149 C.ar      1 <0>        -0.1516
     29 C27        -7.8956    2.6769   13.5141 C.ar      1 <0>        -0.0302
     30 C28        -7.6767    3.3592   14.7083 C.ar      1 <0>        -0.1117
     31 C29        -7.3553    4.6834   14.7069 C.ar      1 <0>        -0.0581
     32 N3         -6.7219    7.4711   14.6099 N.pl3     1 <0>        -0.7993
     33 C30        -7.0224    7.2908    9.7127 C.3       1 <0>        -0.1522
     34 N4         -2.9943   -4.6154   -2.3805 N.pl3     1 <0>        -0.7994
     35 H1         -0.6375   -0.5039    0.0510 H         1 <0>         0.1175
     36 H2         -2.1127   -0.0420   -0.8313 H         1 <0>         0.1161
     37 H3         -2.1058   -0.0494    0.9486 H         1 <0>         0.0988
     38 H4         -2.2102   -2.0945   -2.0905 H         1 <0>         0.1771
     39 H5         -3.5769   -6.4938   -0.7824 H         1 <0>         0.1465
     40 H6         -3.9046   -7.5541    1.3893 H         1 <0>         0.1516
     41 H7         -3.5160   -6.3026    3.4684 H         1 <0>         0.1534
     42 H8         -2.7941   -3.9779    3.4109 H         1 <0>         0.1536
     43 H9         -1.8005   -2.5621    3.2176 H         1 <0>         0.1201
     44 H10        -1.3546   -1.1133    2.2847 H         1 <0>         0.1230
     45 H11        -3.7479   -0.4880    2.1120 H         1 <0>         0.0803
     46 H12        -4.1938   -1.9368    3.0448 H         1 <0>         0.0805
     47 H13        -2.8526   -1.1153    4.9618 H         1 <0>         0.0720
     48 H14        -2.4067    0.3336    4.0289 H         1 <0>         0.0727
     49 H15        -4.8000    0.9588    3.8561 H         1 <0>         0.0653
     50 H16        -5.2459   -0.4900    4.7890 H         1 <0>         0.0649
     51 H17        -3.9046    0.3315    6.7060 H         1 <0>         0.0639
     52 H18        -3.4588    1.7804    5.7731 H         1 <0>         0.0642
     53 H19        -5.8521    2.4057    5.6003 H         1 <0>         0.0642
     54 H20        -6.2979    0.9568    6.5332 H         1 <0>         0.0639
     55 H21        -4.9567    1.7784    8.4502 H         1 <0>         0.0649
     56 H22        -4.5108    3.2272    7.5173 H         1 <0>         0.0652
     57 H23        -6.9041    3.8525    7.3445 H         1 <0>         0.0727
     58 H24        -7.3500    2.4036    8.2774 H         1 <0>         0.0720
     59 H25        -6.0088    3.2252   10.1944 H         1 <0>         0.0805
     60 H26        -5.5629    4.6740    9.2615 H         1 <0>         0.0798
     61 H27        -7.9562    5.2993    9.0887 H         1 <0>         0.1239
     62 H28        -8.4021    3.8505   10.0216 H         1 <0>         0.1190
     63 H29        -6.6378    8.4122   12.1277 H         1 <0>         0.1771
     64 H30        -7.9807    2.7716   11.3978 H         1 <0>         0.1534
     65 H31        -8.1396    1.6251   13.5399 H         1 <0>         0.1533
     66 H32        -7.7531    2.8300   15.6467 H         1 <0>         0.1516
     67 H33        -7.1867    5.2022   15.6390 H         1 <0>         0.1465
     68 H34        -6.5076    8.4160   14.5622 H         1 <0>         0.4275
     69 H35        -6.7774    7.0293   15.4716 H         1 <0>         0.4211
     70 H36        -8.0204    7.5916    9.3941 H         1 <0>         0.1163
     71 H37        -6.3845    8.1714    9.7886 H         1 <0>         0.1154
     72 H38        -6.6013    6.5988    8.9834 H         1 <0>         0.0998
     73 H39        -2.8522   -4.1559   -3.2229 H         1 <0>         0.4274
     74 H40        -3.2823   -5.5416   -2.3759 H         1 <0>         0.4211
@<TRIPOS>BOND
     1    1    2 1
     2    1   35 1
     3    1   36 1
     4    1   37 1
     5    2   11 ar
     6    2    3 ar
     7    3    4 ar
     8    3   38 1
     9    4    5 ar
    10    4   34 1
    11    5   10 ar
    12    5    6 ar
    13    6    7 ar
    14    6   39 1
    15    7    8 ar
    16    7   40 1
    17    8    9 ar
    18    8   41 1
    19    9   10 ar
    20    9   42 1
    21   10   11 ar
    22   11   12 1
    23   12   13 1
    24   12   43 1
    25   12   44 1
    26   13   14 1
    27   13   45 1
    28   13   46 1
    29   14   15 1
    30   14   47 1
    31   14   48 1
    32   15   16 1
    33   15   49 1
    34   15   50 1
    35   16   17 1
    36   16   51 1
    37   16   52 1
    38   17   18 1
    39   17   53 1
    40   17   54 1
    41   18   19 1
    42   18   55 1
    43   18   56 1
    44   19   20 1
    45   19   57 1
    46   19   58 1
    47   20   21 1
    48   20   59 1
    49   20   60 1
    50   21   22 1
    51   21   61 1
    52   21   62 1
    53   22   27 ar
    54   22   23 ar
    55   23   24 ar
    56   23   33 1
    57   24   25 ar
    58   24   63 1
    59   25   26 ar
    60   25   32 1
    61   26   31 ar
    62   26   27 ar
    63   27   28 ar
    64   28   29 ar
    65   28   64 1
    66   29   30 ar
    67   29   65 1
    68   30   31 ar
    69   30   66 1
    70   31   67 1
    71   32   68 1
    72   32   69 1
    73   33   70 1
    74   33   71 1
    75   33   72 1
    76   34   73 1
    77   34   74 1
@<TRIPOS>MOLECULE
ZINC03978083
   87    93     0     0     0
SMALL
USER_CHARGES
dimethoxy-trimethyl-BLAHdiol
@<TRIPOS>ATOM
      1 C1         -0.0415   12.4502    3.6774 C.3       1 <0>        -0.0505
      2 C2          1.2201   13.6546    2.0577 C.3       1 <0>        -0.0050
      3 C3          2.6133   14.0835    1.6120 C.3       1 <0>        -0.1036
      4 C4          3.5806   12.9382    1.5903 C.ar      1 <0>        -0.0707
      5 C5          4.8518   13.1407    1.0756 C.ar      1 <0>        -0.1671
      6 C6          5.7437   12.0981    0.9846 C.ar      1 <0>         0.1294
      7 C7          5.3950   10.8016    1.4174 C.ar      1 <0>         0.2168
      8 C8          4.1325   10.6176    1.9562 C.ar      1 <0>        -0.1537
      9 C9          3.2399   11.6760    2.0415 C.ar      1 <0>        -0.1248
     10 C10         1.8694   11.4386    2.6194 C.3       1 <0>         0.0942
     11 H1          1.9514   10.7054    3.4188 H         1 <0>         0.1418
     12 C11         0.9415   10.9363    1.5188 C.3       1 <0>        -0.1063
     13 C12         1.4395    9.5679    1.1030 C.ar      1 <0>        -0.0968
     14 C13         1.6612    8.6147    2.0807 C.ar      1 <0>        -0.0977
     15 C14         2.1859    7.3881    1.7356 C.ar      1 <0>        -0.1692
     16 C15         2.4903    7.1165    0.4091 C.ar      1 <0>         0.1463
     17 C16         2.2208    8.0713   -0.5713 C.ar      1 <0>        -0.1149
     18 C17         1.6970    9.2966   -0.2230 C.ar      1 <0>        -0.0699
     19 O1          3.0155    5.9593    0.0298 O.3       1 <0>        -0.2897
     20 C18         2.6574    4.6904    0.1608 C.ar      1 <0>         0.1978
     21 C19         3.7110    3.7568    0.1819 C.ar      1 <0>        -0.1817
     22 C20         3.4071    2.4185    0.2130 C.ar      1 <0>        -0.0133
     23 C21         2.1001    1.9831    0.3321 C.ar      1 <0>        -0.2156
     24 C22         1.0651    2.9016    0.3646 C.ar      1 <0>         0.1729
     25 C23         1.3506    4.2591    0.2443 C.ar      1 <0>         0.0085
     26 O2          0.3313    5.1617    0.2066 O.3       1 <0>        -0.4656
     27 O3         -0.2185    2.4800    0.4909 O.3       1 <0>        -0.2931
     28 C24        -0.4302    1.0718    0.6095 C.3       1 <0>         0.0185
     29 C25         4.5277    1.4111    0.1175 C.3       1 <0>        -0.1053
     30 C26         5.6246    2.0740   -0.7194 C.3       1 <0>        -0.0048
     31 N1          6.1286    3.2693   -0.0253 N.4       1 <0>        -0.2564
     32 C27         5.1305    4.2919    0.1698 C.3       1 <0>         0.1063
     33 H2          5.1932    5.0047   -0.6783 H         1 <0>         0.1452
     34 C28         5.2956    5.1019    1.4499 C.3       1 <0>        -0.1034
     35 C29         6.2873    6.2304    1.3733 C.ar      1 <0>        -0.0595
     36 C30         7.6471    6.0008    1.3989 C.ar      1 <0>        -0.1541
     37 C31         8.5309    7.0670    1.3243 C.ar      1 <0>        -0.0960
     38 C32         8.0586    8.3600    1.2646 C.ar      1 <0>         0.0905
     39 C33         6.6692    8.6168    1.2884 C.ar      1 <0>         0.2182
     40 C34         5.8097    7.5340    1.3189 C.ar      1 <0>        -0.1953
     41 O4          6.3087    9.8770    1.2673 O.3       1 <0>        -0.3438
     42 O5          8.9309    9.4025    1.1894 O.3       1 <0>        -0.4754
     43 C35         7.1920    3.8283   -0.8987 C.3       1 <0>        -0.0601
     44 C36         6.7691    2.8246    1.2181 C.3       1 <0>        -0.0658
     45 O6          6.9903   12.3135    0.4769 O.3       1 <0>        -0.2893
     46 C37         7.3000   13.6448    0.0602 C.3       1 <0>         0.0183
     47 H3         -0.0382   11.6480    4.4153 H         1 <0>         0.1272
     48 H4         -0.4556   13.3538    4.1249 H         1 <0>         0.1334
     49 H5         -0.6510   12.1556    2.8232 H         1 <0>         0.1207
     50 H6          0.6645   14.5235    2.4119 H         1 <0>         0.1393
     51 H7          0.6859   13.1667    1.2604 H         1 <0>         0.1314
     52 H8          2.9809   14.8513    2.2939 H         1 <0>         0.1085
     53 H9          2.5467   14.5057    0.6088 H         1 <0>         0.1240
     54 H10         5.1406   14.1252    0.7431 H         1 <0>         0.1516
     55 H11         3.8369    9.6386    2.3013 H         1 <0>         0.1387
     56 H12         0.9997   11.5922    0.6473 H         1 <0>         0.1059
     57 H13        -0.0855   10.8256    1.8409 H         1 <0>         0.1134
     58 H14         1.4294    8.8332    3.1118 H         1 <0>         0.1327
     59 H15         2.3611    6.6403    2.4958 H         1 <0>         0.1318
     60 H16         2.4152    7.8498   -1.6103 H         1 <0>         0.1396
     61 H17         1.5062   10.0362   -0.9843 H         1 <0>         0.1398
     62 H18         1.8840    0.9220    0.3975 H         1 <0>         0.1522
     63 H19         0.0676    5.4939    1.0756 H         1 <0>         0.3828
     64 H20         0.0886    0.6995    1.4928 H         1 <0>         0.0646
     65 H21        -1.4975    0.8714    0.7035 H         1 <0>         0.1150
     66 H22        -0.0431    0.5703   -0.2775 H         1 <0>         0.0659
     67 H23         4.1636    0.5237   -0.4060 H         1 <0>         0.1275
     68 H24         4.8712    1.1299    1.1008 H         1 <0>         0.1142
     69 H25         5.2237    2.3646   -1.6920 H         1 <0>         0.1330
     70 H26         6.4495    1.3705   -0.8644 H         1 <0>         0.1423
     71 H27         5.4652    4.5011    2.3330 H         1 <0>         0.1065
     72 H28         4.3097    5.5855    1.6516 H         1 <0>         0.1031
     73 H29         8.0538    5.0057    1.4738 H         1 <0>         0.1324
     74 H30         9.5968    6.8741    1.3104 H         1 <0>         0.1509
     75 H31         4.7440    7.7029    1.3064 H         1 <0>         0.1295
     76 H32         9.2062    9.7479    2.0496 H         1 <0>         0.3952
     77 H33         7.6352    4.7008   -0.4185 H         1 <0>         0.1263
     78 H34         7.9614    3.0739   -1.0627 H         1 <0>         0.1300
     79 H35         6.7599    4.1206   -1.8557 H         1 <0>         0.1238
     80 H36         6.0344    2.3186    1.8445 H         1 <0>         0.1233
     81 H37         7.5812    2.1366    0.9826 H         1 <0>         0.1324
     82 H38         7.1675    3.6882    1.7506 H         1 <0>         0.1256
     83 H39         8.3200   13.6777   -0.3226 H         1 <0>         0.1131
     84 H40         6.6075   13.9504   -0.7242 H         1 <0>         0.0613
     85 H41         7.2086   14.3219    0.9095 H         1 <0>         0.0618
     86 N2          1.3268   12.6990    3.1646 N.4       1 <0>        -0.3935
     87 H42         1.9331   13.0640    3.9086 H         1 <0>         0.4369
@<TRIPOS>BOND
     1    1   47 1
     2    1   48 1
     3    1   49 1
     4    1   86 1
     5    2    3 1
     6    2   50 1
     7    2   51 1
     8    2   86 1
     9    3    4 1
    10    3   52 1
    11    3   53 1
    12    4    9 ar
    13    4    5 ar
    14    5    6 ar
    15    5   54 1
    16    6    7 ar
    17    6   45 1
    18    7   41 1
    19    7    8 ar
    20    8    9 ar
    21    8   55 1
    22    9   10 1
    23   10   11 1
    24   10   12 1
    25   10   86 1
    26   12   13 1
    27   12   56 1
    28   12   57 1
    29   13   18 ar
    30   13   14 ar
    31   14   15 ar
    32   14   58 1
    33   15   16 ar
    34   15   59 1
    35   16   17 ar
    36   16   19 1
    37   17   18 ar
    38   17   60 1
    39   18   61 1
    40   19   20 1
    41   20   25 ar
    42   20   21 ar
    43   21   32 1
    44   21   22 ar
    45   22   23 ar
    46   22   29 1
    47   23   24 ar
    48   23   62 1
    49   24   25 ar
    50   24   27 1
    51   25   26 1
    52   26   63 1
    53   27   28 1
    54   28   64 1
    55   28   65 1
    56   28   66 1
    57   29   30 1
    58   29   67 1
    59   29   68 1
    60   30   31 1
    61   30   69 1
    62   30   70 1
    63   31   32 1
    64   31   43 1
    65   31   44 1
    66   32   33 1
    67   32   34 1
    68   34   35 1
    69   34   71 1
    70   34   72 1
    71   35   40 ar
    72   35   36 ar
    73   36   37 ar
    74   36   73 1
    75   37   38 ar
    76   37   74 1
    77   38   39 ar
    78   38   42 1
    79   39   40 ar
    80   39   41 1
    81   40   75 1
    82   42   76 1
    83   43   77 1
    84   43   78 1
    85   43   79 1
    86   44   80 1
    87   44   81 1
    88   44   82 1
    89   45   46 1
    90   46   83 1
    91   46   84 1
    92   46   85 1
    93   86   87 1
@<TRIPOS>MOLECULE
ZINC04097383
  101   106     0     0     0
SMALL
USER_CHARGES
[17-acetoxy-10,13-dimethyl-2,16-bis(1-methyl-3,4,5,6-tetrahydro-2H-pyridin-1-yl)-2,3,4,5,6,7,8,9,11,12,14,15,16,17-tetradecahydro-1H-cyclopenta[a]phenanthren-3-yl] acetate
@<TRIPOS>ATOM
      1 C1         -0.6421    4.0238    6.7037 C.3       1 <0>        -0.1502
      2 C2          0.1833    3.7961    5.4636 C.2       1 <0>         0.4641
      3 O1          1.2940    3.3290    5.5545 O.2       1 <0>        -0.4978
      4 O2         -0.3153    4.1121    4.2581 O.3       1 <0>        -0.3397
      5 C3          0.5355    3.8658    3.1076 C.3       1 <0>         0.0850
      6 H1          1.5807    3.9656    3.4003 H         1 <0>         0.1017
      7 C4          0.2858    2.4506    2.5819 C.3       1 <0>        -0.2718
      8 C5         -1.1814    2.3107    2.1723 C.3       1 <0>        -0.0759
      9 H2         -1.8187    2.4957    3.0370 H         1 <0>         0.0950
     10 C6         -1.4312    0.8950    1.6492 C.3       1 <0>        -0.1227
     11 C7         -2.8987    0.7532    1.2399 C.3       1 <0>        -0.1194
     12 C8         -3.2206    1.7649    0.1393 C.3       1 <0>        -0.0736
     13 H3         -2.5991    1.5686   -0.7344 H         1 <0>         0.0888
     14 C9         -2.9733    3.1852    0.6704 C.3       1 <0>        -0.0701
     15 H4         -3.5970    3.3457    1.5497 H         1 <0>         0.0870
     16 C10        -1.5054    3.3260    1.0743 C.3       1 <0>        -0.0562
     17 C11        -1.2532    4.7413    1.5986 C.3       1 <0>        -0.1320
     18 C12         0.2142    4.8807    2.0087 C.3       1 <0>         0.0339
     19 H5          0.3928    5.8891    2.3820 H         1 <0>         0.1419
     20 N1          1.0740    4.6303    0.8443 N.4       1 <0>        -0.2434
     21 C13         0.4722    5.2413   -0.3469 C.3       1 <0>        -0.0515
     22 C14         1.4031    5.0534   -1.5468 C.3       1 <0>        -0.1472
     23 C15         1.6160    3.5567   -1.7912 C.3       1 <0>        -0.1440
     24 C16         2.1746    2.9159   -0.5174 C.3       1 <0>        -0.1467
     25 C17         1.2151    3.1830    0.6443 C.3       1 <0>        -0.3031
     26 C18         2.3979    5.2221    1.0787 C.3       1 <0>        -0.0616
     27 C19        -0.6139    3.0654   -0.1415 C.3       1 <0>        -0.2925
     28 C20        -3.3334    4.2415   -0.3686 C.3       1 <0>        -0.1260
     29 C21        -4.7807    4.0728   -0.8605 C.3       1 <0>        -0.1045
     30 C22        -4.9073    2.6691   -1.4193 C.3       1 <0>        -0.0655
     31 C23        -4.6860    1.6788   -0.2442 C.3       1 <0>        -0.0801
     32 H6         -5.3160    1.9331    0.6082 H         1 <0>         0.0984
     33 C24        -5.1393    0.3537   -0.8656 C.3       1 <0>        -0.1341
     34 C25        -6.4138    0.7586   -1.6557 C.3       1 <0>         0.0162
     35 H7         -7.3023    0.5768   -1.0511 H         1 <0>         0.1464
     36 C26        -6.2773    2.2716   -1.9588 C.3       1 <0>         0.0745
     37 H8         -7.0611    2.8312   -1.4484 H         1 <0>         0.1313
     38 O3         -6.3415    2.5057   -3.3904 O.3       1 <0>        -0.3570
     39 C27        -7.4060    3.1818   -3.8501 C.2       1 <0>         0.4494
     40 O4         -8.2101    3.6424   -3.0748 O.2       1 <0>        -0.4767
     41 C28        -7.5982    3.3665   -5.3334 C.3       1 <0>        -0.1625
     42 N2         -6.4930   -0.0029   -2.9095 N.4       1 <0>        -0.2463
     43 C29        -5.2979    0.2642   -3.7187 C.3       1 <0>        -0.0407
     44 C30        -5.3364   -0.5883   -4.9889 C.3       1 <0>        -0.1459
     45 C31        -6.5899   -0.2366   -5.7953 C.3       1 <0>        -0.1372
     46 C32        -7.8262   -0.4482   -4.9167 C.3       1 <0>        -0.1459
     47 C33        -7.6954    0.3991   -3.6492 C.3       1 <0>        -0.0347
     48 C34        -6.5641   -1.4382   -2.6052 C.3       1 <0>        -0.0608
     49 C35        -3.8424    2.4426   -2.4943 C.3       1 <0>        -0.1754
     50 H9         -1.5626    3.4435    6.6391 H         1 <0>         0.1053
     51 H10        -0.0753    3.7096    7.5802 H         1 <0>         0.1112
     52 H11        -0.8855    5.0828    6.7888 H         1 <0>         0.1067
     53 H12         0.5153    1.7267    3.3639 H         1 <0>         0.0934
     54 H13         0.9236    2.2662    1.7175 H         1 <0>         0.1904
     55 H14        -0.7934    0.7093    0.7850 H         1 <0>         0.0640
     56 H15        -1.2011    0.1726    2.4323 H         1 <0>         0.0793
     57 H16        -3.0765   -0.2562    0.8689 H         1 <0>         0.0711
     58 H17        -3.5366    0.9406    2.1036 H         1 <0>         0.0728
     59 H18        -1.4801    5.4645    0.8153 H         1 <0>         0.0974
     60 H19        -1.8926    4.9283    2.4614 H         1 <0>         0.1215
     61 H20        -0.4866    4.7658   -0.5536 H         1 <0>         0.1607
     62 H21         0.3183    6.3058   -0.1703 H         1 <0>         0.1280
     63 H22         2.3622    5.5287   -1.3413 H         1 <0>         0.0910
     64 H23         0.9543    5.5063   -2.4309 H         1 <0>         0.1129
     65 H24         2.3230    3.4179   -2.6092 H         1 <0>         0.0958
     66 H25         0.6647    3.0902   -2.0470 H         1 <0>         0.0830
     67 H26         3.1497    3.3469   -0.2905 H         1 <0>         0.0871
     68 H27         2.2766    1.8408   -0.6654 H         1 <0>         0.1088
     69 H28         1.6096    2.7279    1.5528 H         1 <0>         0.1919
     70 H29         0.2405    2.7515    0.4160 H         1 <0>         0.3028
     71 H30         2.8453    4.7720    1.9649 H         1 <0>         0.1197
     72 H31         3.0368    5.0368    0.2152 H         1 <0>         0.1317
     73 H32         2.2940    6.2965    1.2299 H         1 <0>         0.1232
     74 H33        -0.3079    2.0193   -0.1500 H         1 <0>         0.1244
     75 H34         0.2693    3.7019   -0.0875 H         1 <0>         0.1517
     76 H35        -1.1680    3.2893   -1.0530 H         1 <0>         0.0918
     77 H36        -2.6555    4.1526   -1.2175 H         1 <0>         0.0716
     78 H37        -3.2207    5.2305    0.0756 H         1 <0>         0.0754
     79 H38        -4.9946    4.8031   -1.6409 H         1 <0>         0.0748
     80 H39        -5.4736    4.2048   -0.0296 H         1 <0>         0.0763
     81 H40        -4.3764   -0.0377   -1.5386 H         1 <0>         0.0963
     82 H41        -5.3809   -0.3733   -0.0903 H         1 <0>         0.1062
     83 H42        -6.7791    2.8860   -5.8685 H         1 <0>         0.0968
     84 H43        -8.5436    2.9163   -5.6361 H         1 <0>         0.1178
     85 H44        -7.6109    4.4308   -5.5684 H         1 <0>         0.1222
     86 H45        -5.2720    1.3194   -3.9905 H         1 <0>         0.1678
     87 H46        -4.4065    0.0164   -3.1423 H         1 <0>         0.1284
     88 H47        -5.3620   -1.6438   -4.7182 H         1 <0>         0.0867
     89 H48        -4.4491   -0.3873   -5.5892 H         1 <0>         0.1102
     90 H49        -6.6516   -0.8807   -6.6725 H         1 <0>         0.0971
     91 H50        -6.5403    0.8058   -6.1099 H         1 <0>         0.0812
     92 H51        -7.9035   -1.5008   -4.6444 H         1 <0>         0.0912
     93 H52        -8.7185   -0.1470   -5.4654 H         1 <0>         0.1120
     94 H53        -8.5741    0.2510   -3.0214 H         1 <0>         0.1237
     95 H54        -7.6182    1.4513   -3.9230 H         1 <0>         0.1333
     96 H55        -7.3986   -1.6255   -1.9294 H         1 <0>         0.1215
     97 H56        -6.7115   -1.9985   -3.5285 H         1 <0>         0.1308
     98 H57        -5.6349   -1.7558   -2.1319 H         1 <0>         0.1213
     99 H58        -3.9630    1.4469   -2.9211 H         1 <0>         0.0699
    100 H59        -3.9538    3.1904   -3.2794 H         1 <0>         0.0729
    101 H60        -2.8516    2.5290   -2.0481 H         1 <0>         0.0758
@<TRIPOS>BOND
     1    1    2 1
     2    1   50 1
     3    1   51 1
     4    1   52 1
     5    2    3 2
     6    2    4 1
     7    4    5 1
     8    5    6 1
     9    5   18 1
    10    5    7 1
    11    7    8 1
    12    7   53 1
    13    7   54 1
    14    8    9 1
    15    8   16 1
    16    8   10 1
    17   10   11 1
    18   10   55 1
    19   10   56 1
    20   11   12 1
    21   11   57 1
    22   11   58 1
    23   12   13 1
    24   12   31 1
    25   12   14 1
    26   14   15 1
    27   14   16 1
    28   14   28 1
    29   16   17 1
    30   16   27 1
    31   17   18 1
    32   17   59 1
    33   17   60 1
    34   18   19 1
    35   18   20 1
    36   20   25 1
    37   20   21 1
    38   20   26 1
    39   21   22 1
    40   21   61 1
    41   21   62 1
    42   22   23 1
    43   22   63 1
    44   22   64 1
    45   23   24 1
    46   23   65 1
    47   23   66 1
    48   24   25 1
    49   24   67 1
    50   24   68 1
    51   25   69 1
    52   25   70 1
    53   26   71 1
    54   26   72 1
    55   26   73 1
    56   27   74 1
    57   27   75 1
    58   27   76 1
    59   28   29 1
    60   28   77 1
    61   28   78 1
    62   29   30 1
    63   29   79 1
    64   29   80 1
    65   30   36 1
    66   30   31 1
    67   30   49 1
    68   31   32 1
    69   31   33 1
    70   33   34 1
    71   33   81 1
    72   33   82 1
    73   34   35 1
    74   34   36 1
    75   34   42 1
    76   36   37 1
    77   36   38 1
    78   38   39 1
    79   39   40 2
    80   39   41 1
    81   41   83 1
    82   41   84 1
    83   41   85 1
    84   42   47 1
    85   42   43 1
    86   42   48 1
    87   43   44 1
    88   43   86 1
    89   43   87 1
    90   44   45 1
    91   44   88 1
    92   44   89 1
    93   45   46 1
    94   45   90 1
    95   45   91 1
    96   46   47 1
    97   46   92 1
    98   46   93 1
    99   47   94 1
   100   47   95 1
   101   48   96 1
   102   48   97 1
   103   48   98 1
   104   49   99 1
   105   49  100 1
   106   49  101 1
@<TRIPOS>MOLECULE
ZINC03981933
   66    70     0     0     0
SMALL
USER_CHARGES

@<TRIPOS>ATOM
      1 C1         -0.0164    1.3588    0.0095 C.ar      1 <0>        -0.1020
      2 C2          1.1723    2.0813    0.0020 C.ar      1 <0>        -0.0262
      3 C3          2.3803    1.4528   -0.0001 C.ar      1 <0>        -0.1493
      4 C4          2.4385    0.0491    0.0104 C.ar      1 <0>         0.1686
      5 C5          1.2259   -0.6834   -0.0213 C.ar      1 <0>        -0.1273
      6 C6          0.0021   -0.0041    0.0020 C.ar      1 <0>        -0.0612
      7 C7          1.2787   -2.0982   -0.0986 C.ar      1 <0>         0.3560
      8 C8          2.5318   -2.6874   -0.1198 C.ar      1 <0>        -0.2753
      9 C9          3.6736   -1.9048   -0.0309 C.ar      1 <0>         0.2030
     10 N1          3.6126   -0.5949    0.0456 N.ar      1 <0>        -0.3925
     11 C10         4.8577    0.1641    0.1748 C.3       1 <0>         0.0525
     12 C11         5.8727   -0.6266    1.0016 C.3       1 <0>        -0.1495
     13 C12         6.8461   -1.3586    0.0755 C.3       1 <0>        -0.1432
     14 C13         7.7701   -2.2477    0.9115 C.3       1 <0>        -0.1496
     15 C14         8.2332   -3.4434    0.0878 C.3       1 <0>         0.0530
     16 N2          7.2256   -4.5009    0.0259 N.ar      1 <0>        -0.3911
     17 C15         6.2084   -4.5161    0.8507 C.ar      1 <0>         0.2001
     18 C16         5.2428   -5.5159    0.8218 C.ar      1 <0>        -0.2791
     19 C17         5.3312   -6.5387   -0.1062 C.ar      1 <0>         0.3562
     20 C18         6.4304   -6.5095   -1.0028 C.ar      1 <0>        -0.1272
     21 C19         7.3794   -5.4654   -0.8966 C.ar      1 <0>         0.1633
     22 C20         8.4850   -5.4616   -1.7636 C.ar      1 <0>        -0.1484
     23 C21         8.6134   -6.4376   -2.7042 C.ar      1 <0>        -0.0271
     24 C22         7.6675   -7.4528   -2.8190 C.ar      1 <0>        -0.1025
     25 C23         6.5917   -7.4977   -1.9841 C.ar      1 <0>        -0.0627
     26 N3          4.3987   -7.5608   -0.1609 N.pl3     1 <0>        -0.6679
     27 C24         3.3555   -7.7028    0.8535 C.3       1 <0>         0.0894
     28 C25         1.9897   -7.3744    0.2441 C.3       1 <0>        -0.1451
     29 C26         1.9902   -5.9190   -0.2212 C.3       1 <0>        -0.1342
     30 C27         0.8810   -5.1342    0.4810 C.3       1 <0>        -0.1521
     31 C28         0.1580   -4.2665   -0.5443 C.3       1 <0>         0.0919
     32 N4          0.1182   -2.8600   -0.1312 N.pl3     1 <0>        -0.6767
     33 H1         -0.9617    1.8793    0.0258 H         1 <0>         0.1552
     34 H2          1.1375    3.1605   -0.0056 H         1 <0>         0.1570
     35 H3          3.2846    2.0409   -0.0242 H         1 <0>         0.1563
     36 H4         -0.9262   -0.5570    0.0115 H         1 <0>         0.1474
     37 H5          2.6291   -3.7562   -0.2149 H         1 <0>         0.1752
     38 H6          4.6333   -2.3972   -0.0227 H         1 <0>         0.1820
     39 H7          5.2690    0.3565   -0.8159 H         1 <0>         0.1212
     40 H8          4.6603    1.1126    0.6766 H         1 <0>         0.1277
     41 H9          6.4340    0.0666    1.6336 H         1 <0>         0.1147
     42 H10         5.3566   -1.3451    1.6356 H         1 <0>         0.0823
     43 H11         6.2967   -1.9673   -0.6392 H         1 <0>         0.0629
     44 H12         7.4487   -0.6251   -0.4658 H         1 <0>         0.0981
     45 H13         8.6487   -1.6592    1.2047 H         1 <0>         0.1183
     46 H14         7.2655   -2.5691    1.8169 H         1 <0>         0.0887
     47 H15         8.4587   -3.1056   -0.9292 H         1 <0>         0.1222
     48 H16         9.1510   -3.8484    0.5237 H         1 <0>         0.1227
     49 H17         6.0917   -3.7335    1.5841 H         1 <0>         0.1944
     50 H18         4.4280   -5.4807    1.5290 H         1 <0>         0.1752
     51 H19         9.2345   -4.6876   -1.6911 H         1 <0>         0.1560
     52 H20         9.4615   -6.4242   -3.3722 H         1 <0>         0.1567
     53 H21         7.7892   -8.2148   -3.5747 H         1 <0>         0.1544
     54 H22         5.8678   -8.2926   -2.0847 H         1 <0>         0.1465
     55 H23         4.4313   -8.1992   -0.8968 H         1 <0>         0.4218
     56 H24         3.3448   -8.7352    1.2145 H         1 <0>         0.1041
     57 H25         3.5500   -7.0365    1.6930 H         1 <0>         0.0988
     58 H26         1.8103   -8.0257   -0.6096 H         1 <0>         0.0821
     59 H27         1.2102   -7.5256    0.9913 H         1 <0>         0.0996
     60 H28         2.9546   -5.4734    0.0190 H         1 <0>         0.0631
     61 H29         1.8357   -5.8822   -1.2996 H         1 <0>         0.0764
     62 H30         0.1711   -5.8245    0.9382 H         1 <0>         0.0933
     63 H31         1.3136   -4.5004    1.2540 H         1 <0>         0.0787
     64 H32         0.6736   -4.3398   -1.5061 H         1 <0>         0.0885
     65 H33        -0.8644   -4.6353   -0.6675 H         1 <0>         0.1112
     66 H34        -0.7306   -2.4594    0.1264 H         1 <0>         0.4235
@<TRIPOS>BOND
     1    1    6 ar
     2    1    2 ar
     3    1   33 1
     4    2    3 ar
     5    2   34 1
     6    3    4 ar
     7    3   35 1
     8    4   10 ar
     9    4    5 ar
    10    5    6 ar
    11    5    7 ar
    12    6   36 1
    13    7   32 1
    14    7    8 ar
    15    8    9 ar
    16    8   37 1
    17    9   10 ar
    18    9   38 1
    19   10   11 1
    20   11   12 1
    21   11   39 1
    22   11   40 1
    23   12   13 1
    24   12   41 1
    25   12   42 1
    26   13   14 1
    27   13   43 1
    28   13   44 1
    29   14   15 1
    30   14   45 1
    31   14   46 1
    32   15   16 1
    33   15   47 1
    34   15   48 1
    35   16   21 ar
    36   16   17 ar
    37   17   18 ar
    38   17   49 1
    39   18   19 ar
    40   18   50 1
    41   19   20 ar
    42   19   26 1
    43   20   25 ar
    44   20   21 ar
    45   21   22 ar
    46   22   23 ar
    47   22   51 1
    48   23   24 ar
    49   23   52 1
    50   24   25 ar
    51   24   53 1
    52   25   54 1
    53   26   27 1
    54   26   55 1
    55   27   28 1
    56   27   56 1
    57   27   57 1
    58   28   29 1
    59   28   58 1
    60   28   59 1
    61   29   30 1
    62   29   60 1
    63   29   61 1
    64   30   31 1
    65   30   62 1
    66   30   63 1
    67   31   32 1
    68   31   64 1
    69   31   65 1
    70   32   66 1
@<TRIPOS>MOLECULE
ZINC00088330
   31    33     0     0     0
SMALL
USER_CHARGES
4-methyl-N-[4-(2-pyridyl)thiazol-2-yl]pyridin-2-amine
@<TRIPOS>ATOM
      1 C1         -5.8044    9.2051   -0.3492 C.3       1 <0>        -0.1205
      2 C2         -5.5291    7.7273   -0.2433 C.ar      1 <0>        -0.0005
      3 C3         -6.5712    6.8093   -0.2401 C.ar      1 <0>        -0.2079
      4 C4         -6.2853    5.4623   -0.1422 C.ar      1 <0>         0.1539
      5 N1         -5.0382    5.0396   -0.0572 N.ar      1 <0>        -0.5296
      6 C5         -4.0180    5.8834   -0.0520 C.ar      1 <0>         0.3795
      7 C6         -4.2328    7.2546   -0.1477 C.ar      1 <0>        -0.2071
      8 N2         -2.7189    5.3941    0.0444 N.pl3     1 <0>        -0.5925
      9 C7         -2.4903    4.0263    0.0288 C.2       1 <0>         0.3369
     10 N3         -1.3441    3.3721    0.0189 N.2       1 <0>        -0.5481
     11 C8         -1.3108    2.0413   -0.0000 C.2       1 <0>         0.1059
     12 C9         -2.4865    1.3435    0.0024 C.2       1 <0>        -0.2079
     13 S1         -3.6697    2.6836    0.0249 S.3       1 <0>         0.1257
     14 C10        -0.0143    1.3246   -0.0173 C.ar      1 <0>         0.1926
     15 C11         1.1770    2.0497   -0.0253 C.ar      1 <0>        -0.1395
     16 C12         2.3793    1.3663   -0.0468 C.ar      1 <0>        -0.0786
     17 C13         2.3530   -0.0220   -0.0601 C.ar      1 <0>        -0.1735
     18 C14         1.1364   -0.6773   -0.0515 C.ar      1 <0>         0.1026
     19 N4          0.0043   -0.0026   -0.0305 N.ar      1 <0>        -0.4773
     20 H1         -5.8185    9.4978   -1.3991 H         1 <0>         0.0817
     21 H2         -6.7709    9.4280    0.1030 H         1 <0>         0.0764
     22 H3         -5.0232    9.7586    0.1718 H         1 <0>         0.0741
     23 H4         -7.5948    7.1458   -0.3137 H         1 <0>         0.1401
     24 H5         -7.0927    4.7450   -0.1393 H         1 <0>         0.1653
     25 H6         -3.3987    7.9407   -0.1469 H         1 <0>         0.1395
     26 H7         -1.9733    6.0096    0.1225 H         1 <0>         0.4332
     27 H8         -2.6543    0.2766   -0.0073 H         1 <0>         0.2011
     28 H9          1.1610    3.1295   -0.0149 H         1 <0>         0.1424
     29 H10         3.3179    1.9006   -0.0528 H         1 <0>         0.1361
     30 H11         3.2748   -0.5844   -0.0766 H         1 <0>         0.1363
     31 H12         1.1129   -1.7570   -0.0618 H         1 <0>         0.1598
@<TRIPOS>BOND
     1    1    2 1
     2    1   20 1
     3    1   21 1
     4    1   22 1
     5    2    7 ar
     6    2    3 ar
     7    3    4 ar
     8    3   23 1
     9    4    5 ar
    10    4   24 1
    11    5    6 ar
    12    6    7 ar
    13    6    8 1
    14    7   25 1
    15    8    9 1
    16    8   26 1
    17    9   13 1
    18    9   10 2
    19   10   11 1
    20   11   12 2
    21   11   14 1
    22   12   13 1
    23   12   27 1
    24   14   19 ar
    25   14   15 ar
    26   15   16 ar
    27   15   28 1
    28   16   17 ar
    29   16   29 1
    30   17   18 ar
    31   17   30 1
    32   18   19 ar
    33   18   31 1
@<TRIPOS>MOLECULE
ZINC00257247
   28    30     0     0     0
SMALL
USER_CHARGES
N-[4-(2-pyridyl)thiazol-2-yl]pyridin-2-amine
@<TRIPOS>ATOM
      1 C1         -0.0182    1.3865    0.0379 C.ar      1 <0>        -0.0785
      2 C2          0.0001   -0.0020    0.0365 C.ar      1 <0>        -0.1734
      3 C3          1.2128   -0.6642    0.0219 C.ar      1 <0>         0.1026
      4 N1          2.3489    0.0040    0.0094 N.ar      1 <0>        -0.4773
      5 C4          2.3752    1.3311    0.0102 C.ar      1 <0>         0.1924
      6 C5          1.1881    2.0630    0.0245 C.ar      1 <0>        -0.1395
      7 C6          3.6758    2.0405   -0.0041 C.2       1 <0>         0.1060
      8 C7          4.8474    1.3359   -0.0182 C.2       1 <0>        -0.2075
      9 S1          6.0383    2.6692   -0.0308 S.3       1 <0>         0.1251
     10 C8          4.8668    4.0187   -0.0161 C.2       1 <0>         0.3363
     11 N2          3.7168    3.3711   -0.0090 N.2       1 <0>        -0.5478
     12 N3          5.1034    5.3852   -0.0176 N.pl3     1 <0>        -0.5926
     13 C9          6.4057    5.8659    0.0781 C.ar      1 <0>         0.3750
     14 C10         6.6290    7.2347    0.1878 C.ar      1 <0>        -0.2037
     15 C11         7.9283    7.6984    0.2870 C.ar      1 <0>        -0.0339
     16 C12         8.9652    6.7749    0.2626 C.ar      1 <0>        -0.2061
     17 C13         8.6713    5.4312    0.1462 C.ar      1 <0>         0.1501
     18 N4          7.4215    5.0169    0.0584 N.ar      1 <0>        -0.5259
     19 H1         -0.9536    1.9262    0.0447 H         1 <0>         0.1362
     20 H2         -0.9250   -0.5592    0.0470 H         1 <0>         0.1363
     21 H3          1.2300   -1.7441    0.0205 H         1 <0>         0.1599
     22 H4          1.2104    3.1428    0.0256 H         1 <0>         0.1424
     23 H5          5.0089    0.2680   -0.0213 H         1 <0>         0.2013
     24 H6          4.3611    6.0059   -0.0854 H         1 <0>         0.4335
     25 H7          5.7989    7.9255    0.1992 H         1 <0>         0.1404
     26 H8          8.1320    8.7552    0.3773 H         1 <0>         0.1427
     27 H9          9.9912    7.1047    0.3342 H         1 <0>         0.1408
     28 H10         9.4746    4.7095    0.1272 H         1 <0>         0.1650
@<TRIPOS>BOND
     1    1    6 ar
     2    1    2 ar
     3    1   19 1
     4    2    3 ar
     5    2   20 1
     6    3    4 ar
     7    3   21 1
     8    4    5 ar
     9    5    6 ar
    10    5    7 1
    11    6   22 1
    12    7   11 1
    13    7    8 2
    14    8    9 1
    15    8   23 1
    16    9   10 1
    17   10   11 2
    18   10   12 1
    19   12   13 1
    20   12   24 1
    21   13   18 ar
    22   13   14 ar
    23   14   15 ar
    24   14   25 1
    25   15   16 ar
    26   15   26 1
    27   16   17 ar
    28   16   27 1
    29   17   18 ar
    30   17   28 1
