@<TRIPOS>MOLECULE
ZINC03807804
   42    45     0     0     0
SMALL
USER_CHARGES

@<TRIPOS>ATOM
      1 C1         -0.1404    1.0961   -0.4391 C.ar      1 <0>        -0.1020
      2 C2          0.9979    1.8788   -0.4898 C.ar      1 <0>        -0.1176
      3 C3          2.2443    1.2953   -0.3597 C.ar      1 <0>        -0.1015
      4 C4          2.3524   -0.0709   -0.1784 C.ar      1 <0>        -0.0957
      5 C5          1.2140   -0.8534   -0.1268 C.ar      1 <0>        -0.0879
      6 C6         -0.0323   -0.2701   -0.2583 C.ar      1 <0>        -0.1206
      7 C7          3.7112   -0.7071   -0.0376 C.3       1 <0>         0.3033
      8 C8          3.5548   -2.1991    0.1055 C.ar      1 <0>        -0.0980
      9 C9          4.1018   -3.0454   -0.8408 C.ar      1 <0>        -0.0924
     10 C10         3.9584   -4.4140   -0.7096 C.ar      1 <0>        -0.1192
     11 C11         3.2684   -4.9364    0.3683 C.ar      1 <0>        -0.1040
     12 C12         2.7222   -4.0902    1.3152 C.ar      1 <0>        -0.1220
     13 C13         2.8693   -2.7218    1.1862 C.ar      1 <0>        -0.0909
     14 C14         4.5372   -0.4037   -1.2609 C.ar      1 <0>        -0.0899
     15 C15         5.7856    0.1744   -1.1262 C.ar      1 <0>        -0.0993
     16 C16         6.5434    0.4528   -2.2482 C.ar      1 <0>        -0.1105
     17 C17         6.0533    0.1533   -3.5058 C.ar      1 <0>        -0.0985
     18 C18         4.8053   -0.4246   -3.6418 C.ar      1 <0>        -0.1111
     19 C19         4.0487   -0.7087   -2.5187 C.ar      1 <0>        -0.0192
     20 Cl1         2.4837   -1.4408   -2.6883 Cl        1 <0>        -0.0484
     21 N1          4.3811   -0.1702    1.1495 N.pl3     1 <0>        -0.4460
     22 C20         5.5751   -0.5924    1.6690 C.2       1 <0>        -0.0513
     23 C21         5.8188    0.1680    2.7534 C.2       1 <0>        -0.0258
     24 N2          4.8014    1.0309    2.8923 N.2       1 <0>        -0.4890
     25 C22         3.9390    0.8376    1.9322 C.2       1 <0>         0.1875
     26 H1         -1.1143    1.5526   -0.5363 H         1 <0>         0.1257
     27 H2          0.9135    2.9461   -0.6315 H         1 <0>         0.1275
     28 H3          3.1337    1.9067   -0.4001 H         1 <0>         0.1221
     29 H4          1.2985   -1.9209    0.0142 H         1 <0>         0.1329
     30 H5         -0.9216   -0.8816   -0.2183 H         1 <0>         0.1255
     31 H6          4.6409   -2.6372   -1.6830 H         1 <0>         0.1253
     32 H7          4.3851   -5.0750   -1.4493 H         1 <0>         0.1258
     33 H8          3.1557   -6.0056    0.4705 H         1 <0>         0.1257
     34 H9          2.1828   -4.4983    2.1571 H         1 <0>         0.1266
     35 H10         2.4458   -2.0608    1.9279 H         1 <0>         0.1217
     36 H11         6.1689    0.4089   -0.1441 H         1 <0>         0.1411
     37 H12         7.5185    0.9047   -2.1424 H         1 <0>         0.1336
     38 H13         6.6456    0.3714   -4.3821 H         1 <0>         0.1361
     39 H14         4.4225   -0.6582   -4.6243 H         1 <0>         0.1382
     40 H15         6.2011   -1.3835    1.2836 H         1 <0>         0.1702
     41 H16         6.6821    0.0956    3.3983 H         1 <0>         0.1703
     42 H17         3.0222    1.3901    1.7888 H         1 <0>         0.2017
@<TRIPOS>BOND
     1    1    6 ar
     2    1    2 ar
     3    1   26 1
     4    2    3 ar
     5    2   27 1
     6    3    4 ar
     7    3   28 1
     8    4    5 ar
     9    4    7 1
    10    5    6 ar
    11    5   29 1
    12    6   30 1
    13    7    8 1
    14    7   14 1
    15    7   21 1
    16    8   13 ar
    17    8    9 ar
    18    9   10 ar
    19    9   31 1
    20   10   11 ar
    21   10   32 1
    22   11   12 ar
    23   11   33 1
    24   12   13 ar
    25   12   34 1
    26   13   35 1
    27   14   19 ar
    28   14   15 ar
    29   15   16 ar
    30   15   36 1
    31   16   17 ar
    32   16   37 1
    33   17   18 ar
    34   17   38 1
    35   18   19 ar
    36   18   39 1
    37   19   20 1
    38   21   25 1
    39   21   22 1
    40   22   23 2
    41   22   40 1
    42   23   24 1
    43   23   41 1
    44   24   25 2
    45   25   42 1
@<TRIPOS>MOLECULE
ZINC03807804
   43    46     0     0     0
SMALL
USER_CHARGES

@<TRIPOS>ATOM
      1 C1          0.5987    1.7832    1.4981 C.ar      1 <0>        -0.0892
      2 C2          0.3739    1.0091    0.3751 C.ar      1 <0>        -0.1131
      3 C3          1.3811    0.2033   -0.1220 C.ar      1 <0>        -0.1073
      4 C4          2.6134    0.1720    0.5037 C.ar      1 <0>        -0.1169
      5 C5          2.8385    0.9468    1.6262 C.ar      1 <0>        -0.0809
      6 C6          1.8308    1.7515    2.1240 C.ar      1 <0>        -0.1100
      7 C7          3.7112   -0.7071   -0.0376 C.3       1 <0>         0.3108
      8 C8          4.1045   -0.2308   -1.4122 C.ar      1 <0>        -0.1114
      9 C9          4.1390   -1.1216   -2.4687 C.ar      1 <0>        -0.1224
     10 C10         4.4997   -0.6846   -3.7296 C.ar      1 <0>        -0.1050
     11 C11         4.8255    0.6431   -3.9340 C.ar      1 <0>        -0.0966
     12 C12         4.7901    1.5341   -2.8777 C.ar      1 <0>        -0.1040
     13 C13         4.4252    1.0980   -1.6177 C.ar      1 <0>        -0.0870
     14 C14         4.9061   -0.6400    0.8783 C.ar      1 <0>        -0.1243
     15 C15         6.0946   -0.0984    0.4255 C.ar      1 <0>        -0.0806
     16 C16         7.1906   -0.0368    1.2654 C.ar      1 <0>        -0.1064
     17 C17         7.0990   -0.5167    2.5588 C.ar      1 <0>        -0.0779
     18 C18         5.9114   -1.0584    3.0126 C.ar      1 <0>        -0.1060
     19 C19         4.8121   -1.1151    2.1740 C.ar      1 <0>        -0.0235
     20 Cl1         3.3179   -1.7894    2.7455 Cl        1 <0>        -0.0546
     21 N1          3.2345   -2.0901   -0.1178 N.pl3     1 <0>        -0.3928
     22 C20         1.9543   -2.5219    0.1018 C.2       1 <0>         0.0325
     23 C21         1.9573   -3.8567   -0.0767 C.2       1 <0>         0.0033
     24 N2          3.2053   -4.2297   -0.3965 N.pl3     1 <0>        -0.4715
     25 C22         3.9747   -3.1761   -0.4280 C.cat     1 <0>         0.2859
     26 H1         -0.1868    2.4161    1.8838 H         1 <0>         0.1340
     27 H2         -0.5889    1.0335   -0.1137 H         1 <0>         0.1343
     28 H3          1.2053   -0.4020   -0.9989 H         1 <0>         0.1246
     29 H4          3.8010    0.9218    2.1154 H         1 <0>         0.1290
     30 H5          2.0066    2.3566    3.0012 H         1 <0>         0.1338
     31 H6          3.8845   -2.1589   -2.3090 H         1 <0>         0.1110
     32 H7          4.5274   -1.3807   -4.5549 H         1 <0>         0.1325
     33 H8          5.1080    0.9843   -4.9190 H         1 <0>         0.1349
     34 H9          5.0450    2.5713   -3.0374 H         1 <0>         0.1371
     35 H10         4.3939    1.7949   -0.7931 H         1 <0>         0.1317
     36 H11         6.1669    0.2763   -0.5848 H         1 <0>         0.1476
     37 H12         8.1191    0.3861    0.9110 H         1 <0>         0.1431
     38 H13         7.9558   -0.4686    3.2145 H         1 <0>         0.1451
     39 H14         5.8400   -1.4335    4.0228 H         1 <0>         0.1446
     40 H15         1.1050   -1.9099    0.3675 H         1 <0>         0.2211
     41 H16         1.1044   -4.5120    0.0207 H         1 <0>         0.2258
     42 H17         5.0293   -3.1735   -0.6609 H         1 <0>         0.2540
     43 H18         3.4903   -5.1387   -0.5793 H         1 <0>         0.4647
@<TRIPOS>BOND
     1    1    6 ar
     2    1    2 ar
     3    1   26 1
     4    2    3 ar
     5    2   27 1
     6    3    4 ar
     7    3   28 1
     8    4    5 ar
     9    4    7 1
    10    5    6 ar
    11    5   29 1
    12    6   30 1
    13    7    8 1
    14    7   14 1
    15    7   21 1
    16    8   13 ar
    17    8    9 ar
    18    9   10 ar
    19    9   31 1
    20   10   11 ar
    21   10   32 1
    22   11   12 ar
    23   11   33 1
    24   12   13 ar
    25   12   34 1
    26   13   35 1
    27   14   19 ar
    28   14   15 ar
    29   15   16 ar
    30   15   36 1
    31   16   17 ar
    32   16   37 1
    33   17   18 ar
    34   17   38 1
    35   18   19 ar
    36   18   39 1
    37   19   20 1
    38   21   25 1
    39   21   22 1
    40   22   23 2
    41   22   40 1
    42   23   24 1
    43   23   41 1
    44   24   25 2
    45   24   43 1
    46   25   42 1
@<TRIPOS>MOLECULE
ZINC05668900
   41    43     0     0     0
SMALL
USER_CHARGES
3-imino-N-methyl-4-oxaspiro[4.4]non-1-en-1-amine
@<TRIPOS>ATOM
      1 C1          1.1757    4.9531   -2.0086 C.3       1 <0>        -0.0576
      2 C2         -0.0705    5.3471    0.0297 C.3       1 <0>         0.2217
      3 C3         -0.1977    3.8621    0.2528 C.ar      1 <0>        -0.1207
      4 C4          0.9340    3.0691    0.2884 C.ar      1 <0>        -0.1262
      5 C5          0.8174    1.7069    0.4926 C.ar      1 <0>        -0.1014
      6 C6         -0.4310    1.1377    0.6611 C.ar      1 <0>        -0.0921
      7 C7         -1.5631    1.9299    0.6202 C.ar      1 <0>        -0.1040
      8 C8         -1.4461    3.2929    0.4213 C.ar      1 <0>        -0.0861
      9 C9         -1.2488    5.8374   -0.7717 C.ar      1 <0>        -0.1441
     10 C10        -1.7838    5.0446   -1.7698 C.ar      1 <0>        -0.0937
     11 C11        -2.8677    5.4924   -2.5017 C.ar      1 <0>        -0.1156
     12 C12        -3.4103    6.7370   -2.2422 C.ar      1 <0>        -0.0818
     13 C13        -2.8717    7.5321   -1.2479 C.ar      1 <0>        -0.1144
     14 C14        -1.7911    7.0822   -0.5125 C.ar      1 <0>        -0.0848
     15 C15        -0.0388    6.0540    1.3602 C.ar      1 <0>        -0.1249
     16 C16        -0.7105    5.5188    2.4434 C.ar      1 <0>        -0.0802
     17 C17        -0.6774    6.1648    3.6651 C.ar      1 <0>        -0.1032
     18 C18         0.0191    7.3512    3.8010 C.ar      1 <0>        -0.0924
     19 C19         0.6860    7.8893    2.7163 C.ar      1 <0>        -0.1016
     20 C20         0.6572    7.2406    1.4960 C.ar      1 <0>        -0.1313
     21 H1          2.1060    5.1775   -2.5303 H         1 <0>         0.1300
     22 H2          1.0923    3.8763   -1.8613 H         1 <0>         0.1272
     23 H3          0.3320    5.3050   -2.6023 H         1 <0>         0.1278
     24 H4          1.9094    3.5138    0.1564 H         1 <0>         0.1166
     25 H5          1.7015    1.0873    0.5201 H         1 <0>         0.1365
     26 H6         -0.5222    0.0734    0.8203 H         1 <0>         0.1366
     27 H7         -2.5388    1.4846    0.7474 H         1 <0>         0.1375
     28 H8         -2.3303    3.9124    0.3930 H         1 <0>         0.1351
     29 H9         -1.3573    4.0739   -1.9753 H         1 <0>         0.1322
     30 H10        -3.2882    4.8713   -3.2788 H         1 <0>         0.1362
     31 H11        -4.2547    7.0884   -2.8165 H         1 <0>         0.1358
     32 H12        -3.2954    8.5047   -1.0454 H         1 <0>         0.1357
     33 H13        -1.3703    7.7034    0.2643 H         1 <0>         0.1340
     34 H14        -1.2579    4.5941    2.3362 H         1 <0>         0.1340
     35 H15        -1.1987    5.7446    4.5124 H         1 <0>         0.1366
     36 H16         0.0418    7.8578    4.7545 H         1 <0>         0.1365
     37 H17         1.2298    8.8163    2.8224 H         1 <0>         0.1369
     38 H18         1.1783    7.6610    0.6485 H         1 <0>         0.1176
     39 N1          1.1791    5.6337   -0.6998 N.4       1 <0>        -0.5132
     40 H19         1.2617    6.6467   -0.8451 H         1 <0>         0.4328
     41 H20         1.9779    5.3009   -0.1471 H         1 <0>         0.4321
@<TRIPOS>BOND
     1    1   21 1
     2    1   22 1
     3    1   23 1
     4    1   39 1
     5    2    3 1
     6    2    9 1
     7    2   15 1
     8    2   39 1
     9    3    8 ar
    10    3    4 ar
    11    4    5 ar
    12    4   24 1
    13    5    6 ar
    14    5   25 1
    15    6    7 ar
    16    6   26 1
    17    7    8 ar
    18    7   27 1
    19    8   28 1
    20    9   14 ar
    21    9   10 ar
    22   10   11 ar
    23   10   29 1
    24   11   12 ar
    25   11   30 1
    26   12   13 ar
    27   12   31 1
    28   13   14 ar
    29   13   32 1
    30   14   33 1
    31   15   20 ar
    32   15   16 ar
    33   16   17 ar
    34   16   34 1
    35   17   18 ar
    36   17   35 1
    37   18   19 ar
    38   18   36 1
    39   19   20 ar
    40   19   37 1
    41   20   38 1
    42   39   40 1
    43   39   41 1
@<TRIPOS>MOLECULE
ZINC04696706
   41    43     0     0     0
SMALL
USER_CHARGES
methyl 2,2,2-triphenylacetate
@<TRIPOS>ATOM
      1 C1          1.2181    8.1052   -2.2234 C.3       1 <0>         0.0309
      2 O1          0.5286    7.4422   -1.1310 O.3       1 <0>        -0.3503
      3 C2          0.6191    6.1041   -1.0759 C.2       1 <0>         0.4773
      4 O2          1.2535    5.5066   -1.9128 O.2       1 <0>        -0.4862
      5 C3         -0.0705    5.3471    0.0297 C.3       1 <0>         0.0840
      6 C4          0.1856    3.8713   -0.1363 C.ar      1 <0>        -0.0771
      7 C5          1.4828    3.3975   -0.1975 C.ar      1 <0>        -0.0804
      8 C6          1.7178    2.0439   -0.3502 C.ar      1 <0>        -0.1228
      9 C7          0.6556    1.1640   -0.4418 C.ar      1 <0>        -0.1097
     10 C8         -0.6416    1.6384   -0.3859 C.ar      1 <0>        -0.1221
     11 C9         -0.8766    2.9914   -0.2278 C.ar      1 <0>        -0.1047
     12 C10        -1.5533    5.6095   -0.0308 C.ar      1 <0>        -0.0742
     13 C11        -2.0884    6.3095   -1.0960 C.ar      1 <0>        -0.1067
     14 C12        -3.4491    6.5460   -1.1539 C.ar      1 <0>        -0.1141
     15 C13        -4.2734    6.0912   -0.1416 C.ar      1 <0>        -0.1122
     16 C14        -3.7375    5.3961    0.9264 C.ar      1 <0>        -0.1174
     17 C15        -2.3775    5.1551    0.9817 C.ar      1 <0>        -0.0963
     18 C16         0.4664    5.8034    1.3618 C.ar      1 <0>        -0.0869
     19 C17         0.9836    4.8804    2.2514 C.ar      1 <0>        -0.1036
     20 C18         1.4805    5.2995    3.4714 C.ar      1 <0>        -0.1212
     21 C19         1.4512    6.6405    3.8057 C.ar      1 <0>        -0.1107
     22 C20         0.9289    7.5629    2.9184 C.ar      1 <0>        -0.1204
     23 C21         0.4367    7.1443    1.6963 C.ar      1 <0>        -0.0942
     24 H1          2.2843    7.8858   -2.1664 H         1 <0>         0.0648
     25 H2          0.8235    7.7456   -3.1737 H         1 <0>         0.0644
     26 H3          1.0642    9.1817   -2.1501 H         1 <0>         0.1051
     27 H4          2.3127    4.0850   -0.1264 H         1 <0>         0.1193
     28 H5          2.7313    1.6738   -0.3984 H         1 <0>         0.1250
     29 H6          0.8391    0.1065   -0.5614 H         1 <0>         0.1239
     30 H7         -1.4716    0.9514   -0.4618 H         1 <0>         0.1248
     31 H8         -1.8901    3.3616   -0.1804 H         1 <0>         0.1308
     32 H9         -1.4439    6.6683   -1.8848 H         1 <0>         0.1187
     33 H10        -3.8678    7.0893   -1.9881 H         1 <0>         0.1257
     34 H11        -5.3360    6.2792   -0.1850 H         1 <0>         0.1254
     35 H12        -4.3814    5.0411    1.7174 H         1 <0>         0.1270
     36 H13        -1.9588    4.6120    1.8160 H         1 <0>         0.1260
     37 H14         1.0027    3.8322    1.9919 H         1 <0>         0.1304
     38 H15         1.8883    4.5789    4.1648 H         1 <0>         0.1251
     39 H16         1.8361    6.9676    4.7604 H         1 <0>         0.1238
     40 H17         0.9056    8.6105    3.1798 H         1 <0>         0.1253
     41 H18         0.0286    7.8649    1.0031 H         1 <0>         0.1334
@<TRIPOS>BOND
     1    1    2 1
     2    1   24 1
     3    1   25 1
     4    1   26 1
     5    2    3 1
     6    3    4 2
     7    3    5 1
     8    5    6 1
     9    5   12 1
    10    5   18 1
    11    6   11 ar
    12    6    7 ar
    13    7    8 ar
    14    7   27 1
    15    8    9 ar
    16    8   28 1
    17    9   10 ar
    18    9   29 1
    19   10   11 ar
    20   10   30 1
    21   11   31 1
    22   12   17 ar
    23   12   13 ar
    24   13   14 ar
    25   13   32 1
    26   14   15 ar
    27   14   33 1
    28   15   16 ar
    29   15   34 1
    30   16   17 ar
    31   16   35 1
    32   17   36 1
    33   18   23 ar
    34   18   19 ar
    35   19   20 ar
    36   19   37 1
    37   20   21 ar
    38   20   38 1
    39   21   22 ar
    40   21   39 1
    41   22   23 ar
    42   22   40 1
    43   23   41 1
@<TRIPOS>MOLECULE
ZINC04283529
   38    40     0     0     0
SMALL
USER_CHARGES
triphenylmethanamine
@<TRIPOS>ATOM
      1 C1          0.1995    1.6565    0.5358 C.ar      1 <0>        -0.0915
      2 C2          1.4387    2.2653    0.4661 C.ar      1 <0>        -0.1032
      3 C3          2.5750    1.5005    0.2797 C.ar      1 <0>        -0.0880
      4 C4          2.4723    0.1268    0.1644 C.ar      1 <0>        -0.1234
      5 C5          1.2332   -0.4820    0.2341 C.ar      1 <0>        -0.1231
      6 C6          0.0968    0.2829    0.4200 C.ar      1 <0>        -0.1011
      7 C7          3.7112   -0.7071   -0.0378 C.3       1 <0>         0.2291
      8 C8          4.7099    0.0678   -0.8582 C.ar      1 <0>        -0.1261
      9 C9          5.5796    0.9462   -0.2394 C.ar      1 <0>        -0.0864
     10 C10         6.4993    1.6530   -0.9913 C.ar      1 <0>        -0.1028
     11 C11         6.5420    1.4897   -2.3633 C.ar      1 <0>        -0.0915
     12 C12         5.6684    0.6155   -2.9828 C.ar      1 <0>        -0.1004
     13 C13         4.7526   -0.0956   -2.2302 C.ar      1 <0>        -0.1249
     14 C14         4.3144   -1.0435    1.3016 C.ar      1 <0>        -0.1276
     15 C15         4.1699   -0.1704    2.3636 C.ar      1 <0>        -0.0867
     16 C16         4.7187   -0.4814    3.5936 C.ar      1 <0>        -0.1033
     17 C17         5.4214   -1.6603    3.7588 C.ar      1 <0>        -0.0909
     18 C18         5.5708   -2.5307    2.6953 C.ar      1 <0>        -0.1009
     19 C19         5.0171   -2.2224    1.4668 C.ar      1 <0>        -0.1232
     20 H1         -0.6888    2.2545    0.6762 H         1 <0>         0.1370
     21 H2          1.5189    3.3385    0.5563 H         1 <0>         0.1379
     22 H3          3.5431    1.9761    0.2250 H         1 <0>         0.1352
     23 H4          1.1529   -1.5552    0.1436 H         1 <0>         0.1170
     24 H5         -0.8713   -0.1927    0.4744 H         1 <0>         0.1369
     25 H6          5.5433    1.0771    0.8321 H         1 <0>         0.1345
     26 H7          7.1820    2.3357   -0.5073 H         1 <0>         0.1379
     27 H8          7.2580    2.0447   -2.9512 H         1 <0>         0.1371
     28 H9          5.7017    0.4879   -4.0547 H         1 <0>         0.1370
     29 H10         4.0701   -0.7785   -2.7142 H         1 <0>         0.1169
     30 H11         3.6247    0.7527    2.2334 H         1 <0>         0.1353
     31 H12         4.6017    0.1984    4.4246 H         1 <0>         0.1378
     32 H13         5.8534   -1.9016    4.7188 H         1 <0>         0.1371
     33 H14         6.1198   -3.4518    2.8243 H         1 <0>         0.1371
     34 H15         5.1338   -2.9024    0.6359 H         1 <0>         0.1173
     35 H16         2.6882   -2.4853   -0.2105 H         1 <0>         0.4386
     36 H17         3.0102   -1.7513   -1.6677 H         1 <0>         0.4383
     37 N1          3.3799   -1.9587   -0.7414 N.4       1 <0>        -0.6432
     38 H18         4.2300   -2.5261   -0.8394 H         1 <0>         0.4405
@<TRIPOS>BOND
     1    1    6 ar
     2    1    2 ar
     3    1   20 1
     4    2    3 ar
     5    2   21 1
     6    3    4 ar
     7    3   22 1
     8    4    5 ar
     9    4    7 1
    10    5    6 ar
    11    5   23 1
    12    6   24 1
    13    7    8 1
    14    7   14 1
    15    7   37 1
    16    8   13 ar
    17    8    9 ar
    18    9   10 ar
    19    9   25 1
    20   10   11 ar
    21   10   26 1
    22   11   12 ar
    23   11   27 1
    24   12   13 ar
    25   12   28 1
    26   13   29 1
    27   14   19 ar
    28   14   15 ar
    29   15   16 ar
    30   15   30 1
    31   16   17 ar
    32   16   31 1
    33   17   18 ar
    34   17   32 1
    35   18   19 ar
    36   18   33 1
    37   19   34 1
    38   35   37 1
    39   36   37 1
    40   37   38 1
@<TRIPOS>MOLECULE
ZINC03816408
   39    41     0     0     0
SMALL
USER_CHARGES
2,2-bis(4-fluorophenyl)-2-phenyl-acetamide
@<TRIPOS>ATOM
      1 C1         -0.8190    3.6165    0.4183 C.ar      1 <0>        -0.1108
      2 C2         -0.9943    2.2511    0.5442 C.ar      1 <0>        -0.1228
      3 C3          0.0849    1.3994    0.3990 C.ar      1 <0>        -0.0713
      4 C4          1.3372    1.9124    0.1171 C.ar      1 <0>        -0.0739
      5 C5          1.5113    3.2774   -0.0145 C.ar      1 <0>        -0.1103
      6 C6          0.4332    4.1295    0.1359 C.ar      1 <0>        -0.1241
      7 C7          2.5124    0.9835   -0.0473 C.3       1 <0>         0.0560
      8 C8          3.7196    1.7732   -0.4834 C.ar      1 <0>        -0.0949
      9 C9          3.6999    2.4586   -1.6838 C.ar      1 <0>        -0.0722
     10 C10         4.8046    3.1869   -2.0825 C.ar      1 <0>        -0.1503
     11 C11         5.9353    3.2214   -1.2842 C.ar      1 <0>         0.1081
     12 C12         5.9558    2.5303   -0.0846 C.ar      1 <0>        -0.1497
     13 C13         4.8480    1.8069    0.3145 C.ar      1 <0>        -0.0809
     14 F1          7.0176    3.9293   -1.6751 F         1 <0>        -0.1358
     15 C14         2.8038    0.3048    1.2662 C.ar      1 <0>        -0.0884
     16 C15         2.8794   -1.0742    1.3293 C.ar      1 <0>        -0.0962
     17 C16         3.1514   -1.6975    2.5324 C.ar      1 <0>        -0.1462
     18 C17         3.3377   -0.9409    3.6769 C.ar      1 <0>         0.1065
     19 C18         3.2565    0.4399    3.6135 C.ar      1 <0>        -0.1491
     20 C19         2.9897    1.0613    2.4083 C.ar      1 <0>        -0.0688
     21 F2          3.5990   -1.5494    4.8545 F         1 <0>        -0.1356
     22 C20         2.1890   -0.0562   -1.0892 C.2       1 <0>         0.5349
     23 O1          1.0693   -0.1250   -1.5500 O.2       1 <0>        -0.5161
     24 N1          3.1441   -0.9095   -1.5087 N.am      1 <0>        -0.8515
     25 H1         -1.6612    4.2822    0.5362 H         1 <0>         0.1223
     26 H2         -1.9735    1.8500    0.7601 H         1 <0>         0.1232
     27 H3         -0.0513    0.3330    0.5015 H         1 <0>         0.1212
     28 H4          2.4897    3.6782   -0.2351 H         1 <0>         0.1265
     29 H5          0.5693    5.1959    0.0331 H         1 <0>         0.1230
     30 H6          2.8193    2.4281   -2.3084 H         1 <0>         0.1347
     31 H7          4.7874    3.7256   -3.0184 H         1 <0>         0.1403
     32 H8          6.8371    2.5568    0.5391 H         1 <0>         0.1400
     33 H9          4.8637    1.2680    1.2504 H         1 <0>         0.1416
     34 H10         2.7300   -1.6643    0.4372 H         1 <0>         0.1407
     35 H11         3.2145   -2.7746    2.5806 H         1 <0>         0.1402
     36 H12         3.4021    1.0311    4.5056 H         1 <0>         0.1412
     37 H13         2.9267    2.1383    2.3586 H         1 <0>         0.1377
     38 H14         4.0200   -0.9000   -1.0921 H         1 <0>         0.4043
     39 H15         2.9556   -1.5332   -2.2273 H         1 <0>         0.4068
@<TRIPOS>BOND
     1    1    6 ar
     2    1    2 ar
     3    1   25 1
     4    2    3 ar
     5    2   26 1
     6    3    4 ar
     7    3   27 1
     8    4    5 ar
     9    4    7 1
    10    5    6 ar
    11    5   28 1
    12    6   29 1
    13    7    8 1
    14    7   15 1
    15    7   22 1
    16    8   13 ar
    17    8    9 ar
    18    9   10 ar
    19    9   30 1
    20   10   11 ar
    21   10   31 1
    22   11   12 ar
    23   11   14 1
    24   12   13 ar
    25   12   32 1
    26   13   33 1
    27   15   20 ar
    28   15   16 ar
    29   16   17 ar
    30   16   34 1
    31   17   18 ar
    32   17   35 1
    33   18   19 ar
    34   18   21 1
    35   19   20 ar
    36   19   36 1
    37   20   37 1
    38   22   23 2
    39   22   24 am
    40   24   38 1
    41   24   39 1
@<TRIPOS>MOLECULE
ZINC13829441
   44    47     0     0     0
SMALL
USER_CHARGES

@<TRIPOS>ATOM
      1 C1         -0.0167    1.3784    0.0096 C.ar      1 <0>        -0.1582
      2 C2          1.1698    2.0883    0.0021 C.ar      1 <0>        -0.0802
      3 C3          2.3773    1.4175   -0.0134 C.ar      1 <0>        -0.1529
      4 C4          2.3989    0.0304   -0.0210 C.ar      1 <0>         0.1284
      5 C5          1.2070   -0.6796   -0.0130 C.ar      1 <0>        -0.2099
      6 C6          0.0021   -0.0041    0.0020 C.ar      1 <0>        -0.0804
      7 O1          3.5855   -0.6319   -0.0368 O.3       1 <0>        -0.3159
      8 C7          3.5315   -2.0598   -0.0438 C.3       1 <0>         0.0609
      9 C8          4.9536   -2.6239   -0.0615 C.3       1 <0>        -0.1169
     10 C9          4.8957   -4.1528   -0.0690 C.3       1 <0>        -0.1159
     11 C10         6.3178   -4.7169   -0.0867 C.3       1 <0>         0.0668
     12 O2          6.2638   -6.1449   -0.0937 O.3       1 <0>        -0.3252
     13 C11         7.4481   -6.8058   -0.1094 C.ar      1 <0>         0.2185
     14 C12         8.0578   -7.1399   -1.3257 C.ar      1 <0>        -0.1924
     15 C13         7.4325   -6.7842   -2.5997 C.2       1 <0>         0.0104
     16 C14         8.0700   -7.1337   -3.7481 C.2       1 <0>        -0.2463
     17 C15         9.2992   -7.8196   -3.6866 C.2       1 <0>         0.5115
     18 O3          9.8594   -8.1260   -4.7237 O.2       1 <0>        -0.4543
     19 O4          9.8695   -8.1440   -2.5158 O.3       1 <0>        -0.2668
     20 C16         9.2901   -7.8271   -1.3354 C.ar      1 <0>         0.1847
     21 C17         9.8993   -8.1727   -0.1433 C.ar      1 <0>        -0.1335
     22 C18         9.3028   -7.8465    1.0684 C.ar      1 <0>         0.1227
     23 C19         8.0766   -7.1561    1.0844 C.ar      1 <0>        -0.1719
     24 C20         7.7473   -6.9722    2.5045 C.2       1 <0>        -0.1910
     25 C21         8.7492   -7.5308    3.1946 C.2       1 <0>         0.0149
     26 O5          9.6599   -8.0524    2.3526 O.3       1 <0>        -0.1849
     27 H1         -0.9596    1.9047    0.0260 H         1 <0>         0.1246
     28 H2          1.1525    3.1682    0.0080 H         1 <0>         0.1301
     29 H3          3.3038    1.9724   -0.0200 H         1 <0>         0.1305
     30 H4          1.2211   -1.7595   -0.0193 H         1 <0>         0.1271
     31 H5         -0.9260   -0.5563    0.0082 H         1 <0>         0.1253
     32 H6          3.0134   -2.4083    0.8497 H         1 <0>         0.0649
     33 H7          2.9951   -2.3988   -0.9302 H         1 <0>         0.0650
     34 H8          5.4716   -2.2755   -0.9550 H         1 <0>         0.0793
     35 H9          5.4899   -2.2850    0.8248 H         1 <0>         0.0792
     36 H10         4.3777   -4.5012    0.8245 H         1 <0>         0.0806
     37 H11         4.3594   -4.4918   -0.9554 H         1 <0>         0.0800
     38 H12         6.8358   -4.3685   -0.9802 H         1 <0>         0.0625
     39 H13         6.8542   -4.3780    0.7997 H         1 <0>         0.0644
     40 H14         6.4894   -6.2585   -2.6268 H         1 <0>         0.1558
     41 H15         7.6353   -6.8865   -4.7054 H         1 <0>         0.1683
     42 H16        10.8425   -8.6987   -0.1540 H         1 <0>         0.1582
     43 H17         6.8732   -6.4844    2.9098 H         1 <0>         0.1651
     44 H18         8.8129   -7.5658    4.2722 H         1 <0>         0.2168
@<TRIPOS>BOND
     1    1    6 ar
     2    1    2 ar
     3    1   27 1
     4    2    3 ar
     5    2   28 1
     6    3    4 ar
     7    3   29 1
     8    4    5 ar
     9    4    7 1
    10    5    6 ar
    11    5   30 1
    12    6   31 1
    13    7    8 1
    14    8    9 1
    15    8   32 1
    16    8   33 1
    17    9   10 1
    18    9   34 1
    19    9   35 1
    20   10   11 1
    21   10   36 1
    22   10   37 1
    23   11   12 1
    24   11   38 1
    25   11   39 1
    26   12   13 1
    27   13   23 ar
    28   13   14 ar
    29   14   20 ar
    30   14   15 1
    31   15   16 2
    32   15   40 1
    33   16   17 1
    34   16   41 1
    35   17   18 2
    36   17   19 1
    37   19   20 1
    38   20   21 ar
    39   21   22 ar
    40   21   42 1
    41   22   26 1
    42   22   23 ar
    43   23   24 1
    44   24   25 2
    45   24   43 1
    46   25   26 1
    47   25   44 1
@<TRIPOS>MOLECULE
ZINC05929443
   43    46     0     0     0
SMALL
USER_CHARGES

@<TRIPOS>ATOM
      1 C1         -0.0184    1.5028    0.0103 C.3       1 <0>        -0.1274
      2 C2          0.0021   -0.0041    0.0020 C.ar      1 <0>        -0.0236
      3 C3          0.0057   -0.6887   -1.1989 C.ar      1 <0>        -0.1402
      4 C4          0.0245   -2.0709   -1.2065 C.ar      1 <0>        -0.0149
      5 C5          0.0400   -2.7685   -0.0132 C.ar      1 <0>        -0.6857
      6 C6          0.0373   -2.0839    1.1877 C.ar      1 <0>        -0.0158
      7 C7          0.0229   -0.7016    1.1953 C.ar      1 <0>        -0.1405
      8 S1          0.0628   -4.5303   -0.0229 S.o2      1 <0>         2.6846
      9 O1         -0.4759   -4.9503    1.2232 O.2       1 <0>        -0.9328
     10 O2         -0.4897   -4.9367   -1.2674 O.2       1 <0>        -0.9435
     11 N1          1.6509   -4.9994   -0.0343 N.pl3     1 <0>        -0.9397
     12 C8          2.3538   -5.1959   -1.2998 C.3       1 <0>         0.0700
     13 C9          3.1757   -6.4573   -1.2581 C.2       1 <0>         0.4086
     14 O3          4.3039   -6.4833   -1.7031 O.2       1 <0>        -0.4215
     15 C10         2.5678   -7.6579   -0.6603 C.ar      1 <0>        -0.1483
     16 C11         2.2568   -8.7703   -1.4404 C.ar      1 <0>        -0.0774
     17 C12         1.6662   -9.8720   -0.8576 C.ar      1 <0>        -0.1148
     18 C13         1.3775   -9.8789    0.4984 C.ar      1 <0>        -0.0980
     19 C14         1.6862   -8.7910    1.2900 C.ar      1 <0>        -0.1031
     20 C15         2.2932   -7.6727    0.7287 C.ar      1 <0>        -0.0164
     21 C16         2.6728   -6.5162    1.5645 C.ar      1 <0>        -0.0481
     22 C17         2.3340   -5.2058    1.1648 C.ar      1 <0>         0.1458
     23 C18         2.6828   -4.1261    1.9612 C.ar      1 <0>        -0.1197
     24 C19         3.3696   -4.3291    3.1425 C.ar      1 <0>        -0.0978
     25 C20         3.7150   -5.6097    3.5392 C.ar      1 <0>        -0.1081
     26 C21         3.3688   -6.7082    2.7565 C.ar      1 <0>        -0.0882
     27 H1          1.0042    1.8801    0.0026 H         1 <0>         0.0814
     28 H2         -0.5455    1.8639   -0.8728 H         1 <0>         0.0746
     29 H3         -0.5286    1.8543    0.9071 H         1 <0>         0.0746
     30 H4         -0.0064   -0.1436   -2.1312 H         1 <0>         0.1356
     31 H5          0.0266   -2.6057   -2.1448 H         1 <0>         0.1411
     32 H6          0.0491   -2.6289    2.1200 H         1 <0>         0.1415
     33 H7          0.0245   -0.1667    2.1335 H         1 <0>         0.1356
     34 H8          1.6260   -5.2676   -2.1079 H         1 <0>         0.1349
     35 H9          3.0102   -4.3450   -1.4823 H         1 <0>         0.1065
     36 H10         2.4772   -8.7694   -2.4977 H         1 <0>         0.1333
     37 H11         1.4268  -10.7348   -1.4614 H         1 <0>         0.1339
     38 H12         0.9064  -10.7446    0.9401 H         1 <0>         0.1330
     39 H13         1.4556   -8.8080    2.3449 H         1 <0>         0.1352
     40 H14         2.4168   -3.1244    1.6577 H         1 <0>         0.1312
     41 H15         3.6387   -3.4845    3.7594 H         1 <0>         0.1346
     42 H16         4.2557   -5.7587    4.4622 H         1 <0>         0.1341
     43 H17         3.6401   -7.7061    3.0681 H         1 <0>         0.1356
@<TRIPOS>BOND
     1    1    2 1
     2    1   27 1
     3    1   28 1
     4    1   29 1
     5    2    7 ar
     6    2    3 ar
     7    3    4 ar
     8    3   30 1
     9    4    5 ar
    10    4   31 1
    11    5    6 ar
    12    5    8 1
    13    6    7 ar
    14    6   32 1
    15    7   33 1
    16    8    9 2
    17    8   10 2
    18    8   11 1
    19   11   22 1
    20   11   12 1
    21   12   13 1
    22   12   34 1
    23   12   35 1
    24   13   14 2
    25   13   15 1
    26   15   20 ar
    27   15   16 ar
    28   16   17 ar
    29   16   36 1
    30   17   18 ar
    31   17   37 1
    32   18   19 ar
    33   18   38 1
    34   19   20 ar
    35   19   39 1
    36   20   21 1
    37   21   26 ar
    38   21   22 ar
    39   22   23 ar
    40   23   24 ar
    41   23   40 1
    42   24   25 ar
    43   24   41 1
    44   25   26 ar
    45   25   42 1
    46   26   43 1
@<TRIPOS>MOLECULE
ZINC03975392
   42    45     0     0     0
SMALL
USER_CHARGES

@<TRIPOS>ATOM
      1 C1          0.1113    1.5663   -0.3836 C.ar      1 <0>        -0.1033
      2 C2          1.3309    2.2116   -0.3001 C.ar      1 <0>        -0.1293
      3 C3          2.4959    1.4759   -0.1880 C.ar      1 <0>        -0.0595
      4 C4          2.4411    0.0949   -0.1588 C.ar      1 <0>        -0.0903
      5 C5          1.2214   -0.5503   -0.2414 C.ar      1 <0>        -0.0874
      6 C6          0.0566    0.1853   -0.3550 C.ar      1 <0>        -0.1326
      7 C7          3.7112   -0.7071   -0.0376 C.3       1 <0>         0.3302
      8 C8          3.3706   -2.1670    0.1167 C.ar      1 <0>        -0.1022
      9 C9          3.8594   -3.0902   -0.7886 C.ar      1 <0>        -0.0922
     10 C10         3.5470   -4.4293   -0.6471 C.ar      1 <0>        -0.1196
     11 C11         2.7461   -4.8453    0.4000 C.ar      1 <0>        -0.1029
     12 C12         2.2580   -3.9222    1.3059 C.ar      1 <0>        -0.1228
     13 C13         2.5740   -2.5837    1.1668 C.ar      1 <0>        -0.0869
     14 C14         4.5471   -0.5145   -1.2766 C.ar      1 <0>        -0.0897
     15 C15         5.8542   -0.0779   -1.1677 C.ar      1 <0>        -0.0958
     16 C16         6.6211    0.0987   -2.3040 C.ar      1 <0>        -0.1111
     17 C17         6.0814   -0.1611   -3.5501 C.ar      1 <0>        -0.0997
     18 C18         4.7749   -0.5976   -3.6603 C.ar      1 <0>        -0.1105
     19 C19         4.0085   -0.7801   -2.5227 C.ar      1 <0>        -0.0192
     20 Cl1         2.3692   -1.3348   -2.6599 Cl        1 <0>        -0.0473
     21 N1          4.4643   -0.2548    1.1348 N.pl3     1 <0>        -0.3616
     22 C20         5.4813   -0.9143    1.7279 C.2       1 <0>         0.0591
     23 C21         5.9048   -0.1656    2.7725 C.2       1 <0>        -0.2697
     24 C22         5.1197    0.9910    2.8194 C.2       1 <0>         0.0438
     25 N2          4.2598    0.9414    1.8345 N.2       1 <0>        -0.2814
     26 H1         -0.7992    2.1412   -0.4667 H         1 <0>         0.1212
     27 H2          1.3737    3.2905   -0.3229 H         1 <0>         0.1221
     28 H3          3.4488    1.9800   -0.1235 H         1 <0>         0.1233
     29 H4          1.1787   -1.6293   -0.2193 H         1 <0>         0.1271
     30 H5         -0.8963   -0.3188   -0.4199 H         1 <0>         0.1212
     31 H6          4.4851   -2.7652   -1.6067 H         1 <0>         0.1255
     32 H7          3.9283   -5.1505   -1.3549 H         1 <0>         0.1266
     33 H8          2.5014   -5.8914    0.5101 H         1 <0>         0.1260
     34 H9          1.6320   -4.2472    2.1237 H         1 <0>         0.1267
     35 H10         2.1957   -1.8630    1.8767 H         1 <0>         0.1224
     36 H11         6.2762    0.1255   -0.1946 H         1 <0>         0.1341
     37 H12         7.6421    0.4402   -2.2184 H         1 <0>         0.1329
     38 H13         6.6810   -0.0225   -4.4377 H         1 <0>         0.1360
     39 H14         4.3534   -0.8002   -4.6338 H         1 <0>         0.1385
     40 H15         5.8848   -1.8688    1.4236 H         1 <0>         0.1675
     41 H16         6.7069   -0.4170    3.4507 H         1 <0>         0.1477
     42 H17         5.2108    1.7894    3.5409 H         1 <0>         0.1832
@<TRIPOS>BOND
     1    1    6 ar
     2    1    2 ar
     3    1   26 1
     4    2    3 ar
     5    2   27 1
     6    3    4 ar
     7    3   28 1
     8    4    5 ar
     9    4    7 1
    10    5    6 ar
    11    5   29 1
    12    6   30 1
    13    7    8 1
    14    7   14 1
    15    7   21 1
    16    8   13 ar
    17    8    9 ar
    18    9   10 ar
    19    9   31 1
    20   10   11 ar
    21   10   32 1
    22   11   12 ar
    23   11   33 1
    24   12   13 ar
    25   12   34 1
    26   13   35 1
    27   14   19 ar
    28   14   15 ar
    29   15   16 ar
    30   15   36 1
    31   16   17 ar
    32   16   37 1
    33   17   18 ar
    34   17   38 1
    35   18   19 ar
    36   18   39 1
    37   19   20 1
    38   21   25 1
    39   21   22 1
    40   22   23 2
    41   22   40 1
    42   23   24 1
    43   23   41 1
    44   24   25 2
    45   24   42 1
