@<TRIPOS>MOLECULE
ZINC03960761
   68    74     0     0     0
SMALL
USER_CHARGES

@<TRIPOS>ATOM
      1 C1         -0.0164    1.3597    0.0095 C.ar      1 <0>        -0.1025
      2 C2          1.1691    2.0884    0.0021 C.ar      1 <0>        -0.0244
      3 C3          2.3819    1.4728   -0.0227 C.ar      1 <0>        -0.1515
      4 C4          2.4472    0.0687   -0.0378 C.ar      1 <0>         0.1683
      5 C5          1.2380   -0.6698   -0.0287 C.ar      1 <0>        -0.1220
      6 C6          0.0021   -0.0041    0.0020 C.ar      1 <0>        -0.0576
      7 C7          1.3024   -2.0803   -0.0708 C.ar      1 <0>         0.3496
      8 C8          2.5530   -2.6740   -0.0633 C.ar      1 <0>        -0.2571
      9 C9          3.6941   -1.8814   -0.0622 C.ar      1 <0>         0.1908
     10 N1          3.6264   -0.5692   -0.0880 N.ar      1 <0>        -0.3845
     11 C10         4.8520    0.2036   -0.2539 C.3       1 <0>         0.0939
     12 C11         5.9599   -0.2566    0.6511 C.ar      1 <0>        -0.1205
     13 C12         6.4601    0.6079    1.6151 C.ar      1 <0>        -0.0639
     14 C13         7.4596    0.1969    2.4760 C.ar      1 <0>        -0.0962
     15 C14         7.9956   -1.0689    2.3452 C.ar      1 <0>        -0.0635
     16 C15         7.5517   -1.9060    1.3418 C.ar      1 <0>        -0.1318
     17 C16         6.5113   -1.5193    0.5217 C.ar      1 <0>        -0.1132
     18 C17         8.2584   -3.2093    1.0968 C.3       1 <0>         0.1027
     19 N2          7.3734   -4.3442    1.3474 N.ar      1 <0>        -0.3925
     20 C18         6.1336   -4.1840    1.7376 C.ar      1 <0>         0.2068
     21 C19         5.2902   -5.2691    1.9611 C.ar      1 <0>        -0.2634
     22 C20         5.7610   -6.5556    1.7658 C.ar      1 <0>         0.3553
     23 C21         7.1034   -6.7171    1.3435 C.ar      1 <0>        -0.1241
     24 C22         7.8991   -5.5650    1.1614 C.ar      1 <0>         0.1593
     25 C23         9.2440   -5.6969    0.7761 C.ar      1 <0>        -0.1503
     26 C24         9.7572   -6.9410    0.5720 C.ar      1 <0>        -0.0250
     27 C25         8.9637   -8.0725    0.7312 C.ar      1 <0>        -0.1042
     28 C26         7.6552   -7.9845    1.1052 C.ar      1 <0>        -0.0589
     29 N3          4.9619   -7.6776    1.9715 N.pl3     1 <0>        -0.6749
     30 C27         3.6336   -7.5554    2.5730 C.3       1 <0>         0.1373
     31 C28         2.7634   -6.6737    1.7167 C.ar      1 <0>        -0.1156
     32 C29         2.6531   -6.9130    0.3589 C.ar      1 <0>        -0.0923
     33 C30         1.8501   -6.0990   -0.4166 C.ar      1 <0>        -0.1048
     34 C31         1.1513   -5.0538    0.1604 C.ar      1 <0>        -0.1130
     35 C32         1.2635   -4.8114    1.5154 C.ar      1 <0>        -0.1025
     36 C33         2.0678   -5.6258    2.2909 C.ar      1 <0>        -0.1069
     37 C34         0.2574   -4.2024   -0.6983 C.3       1 <0>         0.1403
     38 N4          0.1333   -2.8514   -0.1044 N.pl3     1 <0>        -0.6928
     39 H1         -0.9625    1.8803    0.0259 H         1 <0>         0.1552
     40 H2          1.1252    3.1674    0.0160 H         1 <0>         0.1571
     41 H3          3.2888    2.0591   -0.0310 H         1 <0>         0.1569
     42 H4         -0.9212   -0.5642    0.0192 H         1 <0>         0.1508
     43 H5          2.6414   -3.7503   -0.0579 H         1 <0>         0.1844
     44 H6          4.6636   -2.3568   -0.0392 H         1 <0>         0.1876
     45 H7          5.1846    0.1171   -1.2883 H         1 <0>         0.1306
     46 H8          4.6381    1.2513   -0.0425 H         1 <0>         0.1353
     47 H9          6.0645    1.6098    1.6931 H         1 <0>         0.1430
     48 H10         7.8200    0.8622    3.2467 H         1 <0>         0.1505
     49 H11         8.7625   -1.4037    3.0280 H         1 <0>         0.1447
     50 H12         6.1273   -2.2023   -0.2215 H         1 <0>         0.1301
     51 H13         8.5980   -3.2426    0.0615 H         1 <0>         0.1316
     52 H14         9.1225   -3.2771    1.7577 H         1 <0>         0.1303
     53 H15         5.7555   -3.1839    1.8904 H         1 <0>         0.1880
     54 H16         4.2729   -5.1074    2.2859 H         1 <0>         0.1780
     55 H17         9.8628   -4.8218    0.6431 H         1 <0>         0.1577
     56 H18        10.7920   -7.0509    0.2830 H         1 <0>         0.1579
     57 H19         9.3953   -9.0464    0.5537 H         1 <0>         0.1525
     58 H20         7.0541   -8.8750    1.2153 H         1 <0>         0.1496
     59 H21         5.2904   -8.5525    1.7119 H         1 <0>         0.4231
     60 H22         3.1802   -8.5434    2.6535 H         1 <0>         0.1242
     61 H23         3.7251   -7.1182    3.5673 H         1 <0>         0.1003
     62 H24         3.1926   -7.7321   -0.0932 H         1 <0>         0.1302
     63 H25         1.7678   -6.2793   -1.4782 H         1 <0>         0.1358
     64 H26         0.7258   -3.9907    1.9666 H         1 <0>         0.1291
     65 H27         2.1530   -5.4425    3.3518 H         1 <0>         0.1347
     66 H28         0.6839   -4.1229   -1.6982 H         1 <0>         0.1020
     67 H29        -0.7290   -4.6619   -0.7616 H         1 <0>         0.1234
     68 H30        -0.7099   -2.5184    0.2407 H         1 <0>         0.4309
@<TRIPOS>BOND
     1    1    6 ar
     2    1    2 ar
     3    1   39 1
     4    2    3 ar
     5    2   40 1
     6    3    4 ar
     7    3   41 1
     8    4   10 ar
     9    4    5 ar
    10    5    6 ar
    11    5    7 ar
    12    6   42 1
    13    7   38 1
    14    7    8 ar
    15    8    9 ar
    16    8   43 1
    17    9   10 ar
    18    9   44 1
    19   10   11 1
    20   11   12 1
    21   11   45 1
    22   11   46 1
    23   12   17 ar
    24   12   13 ar
    25   13   14 ar
    26   13   47 1
    27   14   15 ar
    28   14   48 1
    29   15   16 ar
    30   15   49 1
    31   16   17 ar
    32   16   18 1
    33   17   50 1
    34   18   19 1
    35   18   51 1
    36   18   52 1
    37   19   24 ar
    38   19   20 ar
    39   20   21 ar
    40   20   53 1
    41   21   22 ar
    42   21   54 1
    43   22   23 ar
    44   22   29 1
    45   23   28 ar
    46   23   24 ar
    47   24   25 ar
    48   25   26 ar
    49   25   55 1
    50   26   27 ar
    51   26   56 1
    52   27   28 ar
    53   27   57 1
    54   28   58 1
    55   29   30 1
    56   29   59 1
    57   30   31 1
    58   30   60 1
    59   30   61 1
    60   31   36 ar
    61   31   32 ar
    62   32   33 ar
    63   32   62 1
    64   33   34 ar
    65   33   63 1
    66   34   35 ar
    67   34   37 1
    68   35   36 ar
    69   35   64 1
    70   36   65 1
    71   37   38 1
    72   37   66 1
    73   37   67 1
    74   38   68 1
@<TRIPOS>MOLECULE
ZINC01655706
   74    77     0     0     0
SMALL
USER_CHARGES

@<TRIPOS>ATOM
      1 C1         -1.7267   -0.5454    0.0551 C.3       1 <0>        -0.1537
      2 C2         -2.1747   -1.9842    0.0509 C.ar      1 <0>         0.2570
      3 C3         -2.3744   -2.6249   -1.1642 C.ar      1 <0>        -0.2650
      4 C4         -2.7859   -3.9483   -1.1831 C.ar      1 <0>         0.3563
      5 C5         -2.9870   -4.5969    0.0588 C.ar      1 <0>        -0.1366
      6 C6         -3.4022   -5.9341    0.1246 C.ar      1 <0>        -0.0582
      7 C7         -3.5847   -6.5238    1.3393 C.ar      1 <0>        -0.1117
      8 C8         -3.3641   -5.8141    2.5172 C.ar      1 <0>        -0.0300
      9 C9         -2.9605   -4.5144    2.4884 C.ar      1 <0>        -0.1519
     10 C10        -2.7615   -3.8729    1.2536 C.ar      1 <0>         0.1756
     11 N1         -2.3598   -2.5980    1.1965 N.ar      1 <0>        -0.4006
     12 C11        -2.1261   -1.8665    2.4442 C.3       1 <0>         0.0512
     13 C12        -3.4222   -1.1836    2.8854 C.3       1 <0>        -0.1424
     14 C13        -3.1782   -0.4197    4.1884 C.3       1 <0>        -0.1187
     15 C14        -4.4743    0.2632    4.6296 C.3       1 <0>        -0.1204
     16 C15        -4.2303    1.0271    5.9326 C.3       1 <0>        -0.1216
     17 C16        -5.5264    1.7101    6.3738 C.3       1 <0>        -0.1216
     18 C17        -5.2824    2.4740    7.6768 C.3       1 <0>        -0.1204
     19 C18        -6.5785    3.1569    8.1180 C.3       1 <0>        -0.1187
     20 C19        -6.3345    3.9208    9.4210 C.3       1 <0>        -0.1420
     21 C20        -7.6306    4.6037    9.8622 C.3       1 <0>         0.0513
     22 N2         -7.3969    5.3352   11.1098 N.ar      1 <0>        -0.4007
     23 C21        -7.1067    6.6143   11.0567 C.ar      1 <0>         0.2565
     24 C22        -6.8749    7.3613   12.2035 C.ar      1 <0>        -0.2647
     25 C23        -6.9486    6.7521   13.4463 C.ar      1 <0>         0.3563
     26 C24        -7.2623    5.3725   13.4898 C.ar      1 <0>        -0.1366
     27 C25        -7.4901    4.6837   12.2747 C.ar      1 <0>         0.1756
     28 C26        -7.8073    3.3150   12.3149 C.ar      1 <0>        -0.1516
     29 C27        -7.8956    2.6769   13.5141 C.ar      1 <0>        -0.0302
     30 C28        -7.6767    3.3592   14.7083 C.ar      1 <0>        -0.1117
     31 C29        -7.3553    4.6834   14.7069 C.ar      1 <0>        -0.0581
     32 N3         -6.7219    7.4711   14.6099 N.pl3     1 <0>        -0.7993
     33 C30        -7.0224    7.2908    9.7127 C.3       1 <0>        -0.1522
     34 N4         -2.9943   -4.6154   -2.3805 N.pl3     1 <0>        -0.7994
     35 H1         -0.6375   -0.5039    0.0510 H         1 <0>         0.1175
     36 H2         -2.1127   -0.0420   -0.8313 H         1 <0>         0.1161
     37 H3         -2.1058   -0.0494    0.9486 H         1 <0>         0.0988
     38 H4         -2.2102   -2.0945   -2.0905 H         1 <0>         0.1771
     39 H5         -3.5769   -6.4938   -0.7824 H         1 <0>         0.1465
     40 H6         -3.9046   -7.5541    1.3893 H         1 <0>         0.1516
     41 H7         -3.5160   -6.3026    3.4684 H         1 <0>         0.1534
     42 H8         -2.7941   -3.9779    3.4109 H         1 <0>         0.1536
     43 H9         -1.8005   -2.5621    3.2176 H         1 <0>         0.1201
     44 H10        -1.3546   -1.1133    2.2847 H         1 <0>         0.1230
     45 H11        -3.7479   -0.4880    2.1120 H         1 <0>         0.0803
     46 H12        -4.1938   -1.9368    3.0448 H         1 <0>         0.0805
     47 H13        -2.8526   -1.1153    4.9618 H         1 <0>         0.0720
     48 H14        -2.4067    0.3336    4.0289 H         1 <0>         0.0727
     49 H15        -4.8000    0.9588    3.8561 H         1 <0>         0.0653
     50 H16        -5.2459   -0.4900    4.7890 H         1 <0>         0.0649
     51 H17        -3.9046    0.3315    6.7060 H         1 <0>         0.0639
     52 H18        -3.4588    1.7804    5.7731 H         1 <0>         0.0642
     53 H19        -5.8521    2.4057    5.6003 H         1 <0>         0.0642
     54 H20        -6.2979    0.9568    6.5332 H         1 <0>         0.0639
     55 H21        -4.9567    1.7784    8.4502 H         1 <0>         0.0649
     56 H22        -4.5108    3.2272    7.5173 H         1 <0>         0.0652
     57 H23        -6.9041    3.8525    7.3445 H         1 <0>         0.0727
     58 H24        -7.3500    2.4036    8.2774 H         1 <0>         0.0720
     59 H25        -6.0088    3.2252   10.1944 H         1 <0>         0.0805
     60 H26        -5.5629    4.6740    9.2615 H         1 <0>         0.0798
     61 H27        -7.9562    5.2993    9.0887 H         1 <0>         0.1239
     62 H28        -8.4021    3.8505   10.0216 H         1 <0>         0.1190
     63 H29        -6.6378    8.4122   12.1277 H         1 <0>         0.1771
     64 H30        -7.9807    2.7716   11.3978 H         1 <0>         0.1534
     65 H31        -8.1396    1.6251   13.5399 H         1 <0>         0.1533
     66 H32        -7.7531    2.8300   15.6467 H         1 <0>         0.1516
     67 H33        -7.1867    5.2022   15.6390 H         1 <0>         0.1465
     68 H34        -6.5076    8.4160   14.5622 H         1 <0>         0.4275
     69 H35        -6.7774    7.0293   15.4716 H         1 <0>         0.4211
     70 H36        -8.0204    7.5916    9.3941 H         1 <0>         0.1163
     71 H37        -6.3845    8.1714    9.7886 H         1 <0>         0.1154
     72 H38        -6.6013    6.5988    8.9834 H         1 <0>         0.0998
     73 H39        -2.8522   -4.1559   -3.2229 H         1 <0>         0.4274
     74 H40        -3.2823   -5.5416   -2.3759 H         1 <0>         0.4211
@<TRIPOS>BOND
     1    1    2 1
     2    1   35 1
     3    1   36 1
     4    1   37 1
     5    2   11 ar
     6    2    3 ar
     7    3    4 ar
     8    3   38 1
     9    4    5 ar
    10    4   34 1
    11    5   10 ar
    12    5    6 ar
    13    6    7 ar
    14    6   39 1
    15    7    8 ar
    16    7   40 1
    17    8    9 ar
    18    8   41 1
    19    9   10 ar
    20    9   42 1
    21   10   11 ar
    22   11   12 1
    23   12   13 1
    24   12   43 1
    25   12   44 1
    26   13   14 1
    27   13   45 1
    28   13   46 1
    29   14   15 1
    30   14   47 1
    31   14   48 1
    32   15   16 1
    33   15   49 1
    34   15   50 1
    35   16   17 1
    36   16   51 1
    37   16   52 1
    38   17   18 1
    39   17   53 1
    40   17   54 1
    41   18   19 1
    42   18   55 1
    43   18   56 1
    44   19   20 1
    45   19   57 1
    46   19   58 1
    47   20   21 1
    48   20   59 1
    49   20   60 1
    50   21   22 1
    51   21   61 1
    52   21   62 1
    53   22   27 ar
    54   22   23 ar
    55   23   24 ar
    56   23   33 1
    57   24   25 ar
    58   24   63 1
    59   25   26 ar
    60   25   32 1
    61   26   31 ar
    62   26   27 ar
    63   27   28 ar
    64   28   29 ar
    65   28   64 1
    66   29   30 ar
    67   29   65 1
    68   30   31 ar
    69   30   66 1
    70   31   67 1
    71   32   68 1
    72   32   69 1
    73   33   70 1
    74   33   71 1
    75   33   72 1
    76   34   73 1
    77   34   74 1
@<TRIPOS>MOLECULE
ZINC03978083
   87    93     0     0     0
SMALL
USER_CHARGES
dimethoxy-trimethyl-BLAHdiol
@<TRIPOS>ATOM
      1 C1         -0.0415   12.4502    3.6774 C.3       1 <0>        -0.0505
      2 C2          1.2201   13.6546    2.0577 C.3       1 <0>        -0.0050
      3 C3          2.6133   14.0835    1.6120 C.3       1 <0>        -0.1036
      4 C4          3.5806   12.9382    1.5903 C.ar      1 <0>        -0.0707
      5 C5          4.8518   13.1407    1.0756 C.ar      1 <0>        -0.1671
      6 C6          5.7437   12.0981    0.9846 C.ar      1 <0>         0.1294
      7 C7          5.3950   10.8016    1.4174 C.ar      1 <0>         0.2168
      8 C8          4.1325   10.6176    1.9562 C.ar      1 <0>        -0.1537
      9 C9          3.2399   11.6760    2.0415 C.ar      1 <0>        -0.1248
     10 C10         1.8694   11.4386    2.6194 C.3       1 <0>         0.0942
     11 H1          1.9514   10.7054    3.4188 H         1 <0>         0.1418
     12 C11         0.9415   10.9363    1.5188 C.3       1 <0>        -0.1063
     13 C12         1.4395    9.5679    1.1030 C.ar      1 <0>        -0.0968
     14 C13         1.6612    8.6147    2.0807 C.ar      1 <0>        -0.0977
     15 C14         2.1859    7.3881    1.7356 C.ar      1 <0>        -0.1692
     16 C15         2.4903    7.1165    0.4091 C.ar      1 <0>         0.1463
     17 C16         2.2208    8.0713   -0.5713 C.ar      1 <0>        -0.1149
     18 C17         1.6970    9.2966   -0.2230 C.ar      1 <0>        -0.0699
     19 O1          3.0155    5.9593    0.0298 O.3       1 <0>        -0.2897
     20 C18         2.6574    4.6904    0.1608 C.ar      1 <0>         0.1978
     21 C19         3.7110    3.7568    0.1819 C.ar      1 <0>        -0.1817
     22 C20         3.4071    2.4185    0.2130 C.ar      1 <0>        -0.0133
     23 C21         2.1001    1.9831    0.3321 C.ar      1 <0>        -0.2156
     24 C22         1.0651    2.9016    0.3646 C.ar      1 <0>         0.1729
     25 C23         1.3506    4.2591    0.2443 C.ar      1 <0>         0.0085
     26 O2          0.3313    5.1617    0.2066 O.3       1 <0>        -0.4656
     27 O3         -0.2185    2.4800    0.4909 O.3       1 <0>        -0.2931
     28 C24        -0.4302    1.0718    0.6095 C.3       1 <0>         0.0185
     29 C25         4.5277    1.4111    0.1175 C.3       1 <0>        -0.1053
     30 C26         5.6246    2.0740   -0.7194 C.3       1 <0>        -0.0048
     31 N1          6.1286    3.2693   -0.0253 N.4       1 <0>        -0.2564
     32 C27         5.1305    4.2919    0.1698 C.3       1 <0>         0.1063
     33 H2          5.1932    5.0047   -0.6783 H         1 <0>         0.1452
     34 C28         5.2956    5.1019    1.4499 C.3       1 <0>        -0.1034
     35 C29         6.2873    6.2304    1.3733 C.ar      1 <0>        -0.0595
     36 C30         7.6471    6.0008    1.3989 C.ar      1 <0>        -0.1541
     37 C31         8.5309    7.0670    1.3243 C.ar      1 <0>        -0.0960
     38 C32         8.0586    8.3600    1.2646 C.ar      1 <0>         0.0905
     39 C33         6.6692    8.6168    1.2884 C.ar      1 <0>         0.2182
     40 C34         5.8097    7.5340    1.3189 C.ar      1 <0>        -0.1953
     41 O4          6.3087    9.8770    1.2673 O.3       1 <0>        -0.3438
     42 O5          8.9309    9.4025    1.1894 O.3       1 <0>        -0.4754
     43 C35         7.1920    3.8283   -0.8987 C.3       1 <0>        -0.0601
     44 C36         6.7691    2.8246    1.2181 C.3       1 <0>        -0.0658
     45 O6          6.9903   12.3135    0.4769 O.3       1 <0>        -0.2893
     46 C37         7.3000   13.6448    0.0602 C.3       1 <0>         0.0183
     47 H3         -0.0382   11.6480    4.4153 H         1 <0>         0.1272
     48 H4         -0.4556   13.3538    4.1249 H         1 <0>         0.1334
     49 H5         -0.6510   12.1556    2.8232 H         1 <0>         0.1207
     50 H6          0.6645   14.5235    2.4119 H         1 <0>         0.1393
     51 H7          0.6859   13.1667    1.2604 H         1 <0>         0.1314
     52 H8          2.9809   14.8513    2.2939 H         1 <0>         0.1085
     53 H9          2.5467   14.5057    0.6088 H         1 <0>         0.1240
     54 H10         5.1406   14.1252    0.7431 H         1 <0>         0.1516
     55 H11         3.8369    9.6386    2.3013 H         1 <0>         0.1387
     56 H12         0.9997   11.5922    0.6473 H         1 <0>         0.1059
     57 H13        -0.0855   10.8256    1.8409 H         1 <0>         0.1134
     58 H14         1.4294    8.8332    3.1118 H         1 <0>         0.1327
     59 H15         2.3611    6.6403    2.4958 H         1 <0>         0.1318
     60 H16         2.4152    7.8498   -1.6103 H         1 <0>         0.1396
     61 H17         1.5062   10.0362   -0.9843 H         1 <0>         0.1398
     62 H18         1.8840    0.9220    0.3975 H         1 <0>         0.1522
     63 H19         0.0676    5.4939    1.0756 H         1 <0>         0.3828
     64 H20         0.0886    0.6995    1.4928 H         1 <0>         0.0646
     65 H21        -1.4975    0.8714    0.7035 H         1 <0>         0.1150
     66 H22        -0.0431    0.5703   -0.2775 H         1 <0>         0.0659
     67 H23         4.1636    0.5237   -0.4060 H         1 <0>         0.1275
     68 H24         4.8712    1.1299    1.1008 H         1 <0>         0.1142
     69 H25         5.2237    2.3646   -1.6920 H         1 <0>         0.1330
     70 H26         6.4495    1.3705   -0.8644 H         1 <0>         0.1423
     71 H27         5.4652    4.5011    2.3330 H         1 <0>         0.1065
     72 H28         4.3097    5.5855    1.6516 H         1 <0>         0.1031
     73 H29         8.0538    5.0057    1.4738 H         1 <0>         0.1324
     74 H30         9.5968    6.8741    1.3104 H         1 <0>         0.1509
     75 H31         4.7440    7.7029    1.3064 H         1 <0>         0.1295
     76 H32         9.2062    9.7479    2.0496 H         1 <0>         0.3952
     77 H33         7.6352    4.7008   -0.4185 H         1 <0>         0.1263
     78 H34         7.9614    3.0739   -1.0627 H         1 <0>         0.1300
     79 H35         6.7599    4.1206   -1.8557 H         1 <0>         0.1238
     80 H36         6.0344    2.3186    1.8445 H         1 <0>         0.1233
     81 H37         7.5812    2.1366    0.9826 H         1 <0>         0.1324
     82 H38         7.1675    3.6882    1.7506 H         1 <0>         0.1256
     83 H39         8.3200   13.6777   -0.3226 H         1 <0>         0.1131
     84 H40         6.6075   13.9504   -0.7242 H         1 <0>         0.0613
     85 H41         7.2086   14.3219    0.9095 H         1 <0>         0.0618
     86 N2          1.3268   12.6990    3.1646 N.4       1 <0>        -0.3935
     87 H42         1.9331   13.0640    3.9086 H         1 <0>         0.4369
@<TRIPOS>BOND
     1    1   47 1
     2    1   48 1
     3    1   49 1
     4    1   86 1
     5    2    3 1
     6    2   50 1
     7    2   51 1
     8    2   86 1
     9    3    4 1
    10    3   52 1
    11    3   53 1
    12    4    9 ar
    13    4    5 ar
    14    5    6 ar
    15    5   54 1
    16    6    7 ar
    17    6   45 1
    18    7   41 1
    19    7    8 ar
    20    8    9 ar
    21    8   55 1
    22    9   10 1
    23   10   11 1
    24   10   12 1
    25   10   86 1
    26   12   13 1
    27   12   56 1
    28   12   57 1
    29   13   18 ar
    30   13   14 ar
    31   14   15 ar
    32   14   58 1
    33   15   16 ar
    34   15   59 1
    35   16   17 ar
    36   16   19 1
    37   17   18 ar
    38   17   60 1
    39   18   61 1
    40   19   20 1
    41   20   25 ar
    42   20   21 ar
    43   21   32 1
    44   21   22 ar
    45   22   23 ar
    46   22   29 1
    47   23   24 ar
    48   23   62 1
    49   24   25 ar
    50   24   27 1
    51   25   26 1
    52   26   63 1
    53   27   28 1
    54   28   64 1
    55   28   65 1
    56   28   66 1
    57   29   30 1
    58   29   67 1
    59   29   68 1
    60   30   31 1
    61   30   69 1
    62   30   70 1
    63   31   32 1
    64   31   43 1
    65   31   44 1
    66   32   33 1
    67   32   34 1
    68   34   35 1
    69   34   71 1
    70   34   72 1
    71   35   40 ar
    72   35   36 ar
    73   36   37 ar
    74   36   73 1
    75   37   38 ar
    76   37   74 1
    77   38   39 ar
    78   38   42 1
    79   39   40 ar
    80   39   41 1
    81   40   75 1
    82   42   76 1
    83   43   77 1
    84   43   78 1
    85   43   79 1
    86   44   80 1
    87   44   81 1
    88   44   82 1
    89   45   46 1
    90   46   83 1
    91   46   84 1
    92   46   85 1
    93   86   87 1
@<TRIPOS>MOLECULE
ZINC00640266
   57    59     0     0     0
SMALL
USER_CHARGES
1-[(3,4-dimethoxyphenyl)methyl]-6,7-dimethoxy-2,2-dimethyl-3,4-dihydro-1H-isoquinoline
@<TRIPOS>ATOM
      1 C1          0.0950    7.9420   -1.5175 C.3       1 <0>        -0.0626
      2 N1         -0.3506    6.9768   -0.5037 N.4       1 <0>        -0.2571
      3 C2         -1.7224    7.3019   -0.0838 C.3       1 <0>        -0.0025
      4 C3         -2.0517    6.4940    1.1721 C.3       1 <0>        -0.1023
      5 C4         -1.7332    5.0386    0.9408 C.ar      1 <0>        -0.0838
      6 C5         -2.2663    4.0973    1.8083 C.ar      1 <0>        -0.1658
      7 C6         -1.9957    2.7520    1.6320 C.ar      1 <0>         0.1313
      8 C7         -1.1828    2.3450    0.5779 C.ar      1 <0>         0.1192
      9 C8         -0.6488    3.2888   -0.2809 C.ar      1 <0>        -0.1563
     10 C9         -0.9289    4.6364   -0.1046 C.ar      1 <0>        -0.1214
     11 C10        -0.3336    5.6258   -1.0717 C.3       1 <0>         0.0921
     12 H1         -0.9115    5.6172   -1.9958 H         1 <0>         0.1415
     13 C11         1.1111    5.2255   -1.3775 C.3       1 <0>        -0.0964
     14 C12         1.6419    6.0789   -2.5005 C.ar      1 <0>        -0.1164
     15 C13         1.0199    6.0591   -3.7350 C.ar      1 <0>        -0.1169
     16 C14         1.5000    6.8438   -4.7669 C.ar      1 <0>        -0.1651
     17 C15         2.6134    7.6444   -4.5682 C.ar      1 <0>         0.1158
     18 C16         3.2426    7.6602   -3.3272 C.ar      1 <0>         0.1140
     19 C17         2.7530    6.8754   -2.2955 C.ar      1 <0>        -0.1847
     20 O1          4.3359    8.4440   -3.1274 O.3       1 <0>        -0.2978
     21 C18         4.9303    8.4094   -1.8284 C.3       1 <0>         0.0230
     22 O2          3.0898    8.4133   -5.5837 O.3       1 <0>        -0.2997
     23 C19         2.3935    8.3465   -6.8298 C.3       1 <0>         0.0221
     24 O3         -0.9100    1.0251    0.3964 O.3       1 <0>        -0.2958
     25 C20        -0.0684    0.6823   -0.7064 C.3       1 <0>         0.0210
     26 O4         -2.5208    1.8319    2.4846 O.3       1 <0>        -0.2961
     27 C21        -3.3456    2.3241    3.5427 C.3       1 <0>         0.0212
     28 C22         0.5457    7.0328    0.6588 C.3       1 <0>        -0.0595
     29 H2         -0.2518    8.9394   -1.2468 H         1 <0>         0.1192
     30 H3          1.1837    7.9376   -1.5696 H         1 <0>         0.1347
     31 H4         -0.3164    7.6654   -2.4882 H         1 <0>         0.1220
     32 H5         -2.4202    7.0418   -0.8798 H         1 <0>         0.1303
     33 H6         -1.7950    8.3669    0.1366 H         1 <0>         0.1354
     34 H7         -3.1114    6.6006    1.4040 H         1 <0>         0.1206
     35 H8         -1.4587    6.8665    2.0073 H         1 <0>         0.1040
     36 H9         -2.8958    4.4160    2.6259 H         1 <0>         0.1472
     37 H10        -0.0137    2.9747   -1.0960 H         1 <0>         0.1466
     38 H11         1.7247    5.3720   -0.4886 H         1 <0>         0.1001
     39 H12         1.1429    4.1765   -1.6720 H         1 <0>         0.1201
     40 H13         0.1545    5.4324   -3.8924 H         1 <0>         0.1316
     41 H14         1.0098    6.8297   -5.7292 H         1 <0>         0.1443
     42 H15         3.2393    6.8861   -1.3313 H         1 <0>         0.1399
     43 H16         5.7908    9.0780   -1.8046 H         1 <0>         0.1093
     44 H17         4.1999    8.7308   -1.0859 H         1 <0>         0.0537
     45 H18         5.2536    7.3930   -1.6037 H         1 <0>         0.0592
     46 H19         2.4142    7.3226   -7.2032 H         1 <0>         0.0603
     47 H20         1.3596    8.6598   -6.6855 H         1 <0>         0.0587
     48 H21         2.8757    9.0061   -7.5513 H         1 <0>         0.1091
     49 H22         0.0685   -0.3987   -0.7367 H         1 <0>         0.1108
     50 H23         0.9003    1.1680   -0.5890 H         1 <0>         0.0584
     51 H24        -0.5320    1.0159   -1.6348 H         1 <0>         0.0591
     52 H25        -3.6984    1.4885    4.1471 H         1 <0>         0.1108
     53 H26        -2.7676    3.0056    4.1669 H         1 <0>         0.0600
     54 H27        -4.1998    2.8538    3.1210 H         1 <0>         0.0605
     55 H28         0.2153    6.3126    1.4073 H         1 <0>         0.1277
     56 H29         1.5617    6.7917    0.3462 H         1 <0>         0.1213
     57 H30         0.5251    8.0356    1.0855 H         1 <0>         0.1241
@<TRIPOS>BOND
     1    1    2 1
     2    1   29 1
     3    1   30 1
     4    1   31 1
     5    2   11 1
     6    2    3 1
     7    2   28 1
     8    3    4 1
     9    3   32 1
    10    3   33 1
    11    4    5 1
    12    4   34 1
    13    4   35 1
    14    5   10 ar
    15    5    6 ar
    16    6    7 ar
    17    6   36 1
    18    7    8 ar
    19    7   26 1
    20    8    9 ar
    21    8   24 1
    22    9   10 ar
    23    9   37 1
    24   10   11 1
    25   11   12 1
    26   11   13 1
    27   13   14 1
    28   13   38 1
    29   13   39 1
    30   14   19 ar
    31   14   15 ar
    32   15   16 ar
    33   15   40 1
    34   16   17 ar
    35   16   41 1
    36   17   18 ar
    37   17   22 1
    38   18   19 ar
    39   18   20 1
    40   19   42 1
    41   20   21 1
    42   21   43 1
    43   21   44 1
    44   21   45 1
    45   22   23 1
    46   23   46 1
    47   23   47 1
    48   23   48 1
    49   24   25 1
    50   25   49 1
    51   25   50 1
    52   25   51 1
    53   26   27 1
    54   27   52 1
    55   27   53 1
    56   27   54 1
    57   28   55 1
    58   28   56 1
    59   28   57 1
@<TRIPOS>MOLECULE
ZINC03981933
   66    70     0     0     0
SMALL
USER_CHARGES

@<TRIPOS>ATOM
      1 C1         -0.0164    1.3588    0.0095 C.ar      1 <0>        -0.1020
      2 C2          1.1723    2.0813    0.0020 C.ar      1 <0>        -0.0262
      3 C3          2.3803    1.4528   -0.0001 C.ar      1 <0>        -0.1493
      4 C4          2.4385    0.0491    0.0104 C.ar      1 <0>         0.1686
      5 C5          1.2259   -0.6834   -0.0213 C.ar      1 <0>        -0.1273
      6 C6          0.0021   -0.0041    0.0020 C.ar      1 <0>        -0.0612
      7 C7          1.2787   -2.0982   -0.0986 C.ar      1 <0>         0.3560
      8 C8          2.5318   -2.6874   -0.1198 C.ar      1 <0>        -0.2753
      9 C9          3.6736   -1.9048   -0.0309 C.ar      1 <0>         0.2030
     10 N1          3.6126   -0.5949    0.0456 N.ar      1 <0>        -0.3925
     11 C10         4.8577    0.1641    0.1748 C.3       1 <0>         0.0525
     12 C11         5.8727   -0.6266    1.0016 C.3       1 <0>        -0.1495
     13 C12         6.8461   -1.3586    0.0755 C.3       1 <0>        -0.1432
     14 C13         7.7701   -2.2477    0.9115 C.3       1 <0>        -0.1496
     15 C14         8.2332   -3.4434    0.0878 C.3       1 <0>         0.0530
     16 N2          7.2256   -4.5009    0.0259 N.ar      1 <0>        -0.3911
     17 C15         6.2084   -4.5161    0.8507 C.ar      1 <0>         0.2001
     18 C16         5.2428   -5.5159    0.8218 C.ar      1 <0>        -0.2791
     19 C17         5.3312   -6.5387   -0.1062 C.ar      1 <0>         0.3562
     20 C18         6.4304   -6.5095   -1.0028 C.ar      1 <0>        -0.1272
     21 C19         7.3794   -5.4654   -0.8966 C.ar      1 <0>         0.1633
     22 C20         8.4850   -5.4616   -1.7636 C.ar      1 <0>        -0.1484
     23 C21         8.6134   -6.4376   -2.7042 C.ar      1 <0>        -0.0271
     24 C22         7.6675   -7.4528   -2.8190 C.ar      1 <0>        -0.1025
     25 C23         6.5917   -7.4977   -1.9841 C.ar      1 <0>        -0.0627
     26 N3          4.3987   -7.5608   -0.1609 N.pl3     1 <0>        -0.6679
     27 C24         3.3555   -7.7028    0.8535 C.3       1 <0>         0.0894
     28 C25         1.9897   -7.3744    0.2441 C.3       1 <0>        -0.1451
     29 C26         1.9902   -5.9190   -0.2212 C.3       1 <0>        -0.1342
     30 C27         0.8810   -5.1342    0.4810 C.3       1 <0>        -0.1521
     31 C28         0.1580   -4.2665   -0.5443 C.3       1 <0>         0.0919
     32 N4          0.1182   -2.8600   -0.1312 N.pl3     1 <0>        -0.6767
     33 H1         -0.9617    1.8793    0.0258 H         1 <0>         0.1552
     34 H2          1.1375    3.1605   -0.0056 H         1 <0>         0.1570
     35 H3          3.2846    2.0409   -0.0242 H         1 <0>         0.1563
     36 H4         -0.9262   -0.5570    0.0115 H         1 <0>         0.1474
     37 H5          2.6291   -3.7562   -0.2149 H         1 <0>         0.1752
     38 H6          4.6333   -2.3972   -0.0227 H         1 <0>         0.1820
     39 H7          5.2690    0.3565   -0.8159 H         1 <0>         0.1212
     40 H8          4.6603    1.1126    0.6766 H         1 <0>         0.1277
     41 H9          6.4340    0.0666    1.6336 H         1 <0>         0.1147
     42 H10         5.3566   -1.3451    1.6356 H         1 <0>         0.0823
     43 H11         6.2967   -1.9673   -0.6392 H         1 <0>         0.0629
     44 H12         7.4487   -0.6251   -0.4658 H         1 <0>         0.0981
     45 H13         8.6487   -1.6592    1.2047 H         1 <0>         0.1183
     46 H14         7.2655   -2.5691    1.8169 H         1 <0>         0.0887
     47 H15         8.4587   -3.1056   -0.9292 H         1 <0>         0.1222
     48 H16         9.1510   -3.8484    0.5237 H         1 <0>         0.1227
     49 H17         6.0917   -3.7335    1.5841 H         1 <0>         0.1944
     50 H18         4.4280   -5.4807    1.5290 H         1 <0>         0.1752
     51 H19         9.2345   -4.6876   -1.6911 H         1 <0>         0.1560
     52 H20         9.4615   -6.4242   -3.3722 H         1 <0>         0.1567
     53 H21         7.7892   -8.2148   -3.5747 H         1 <0>         0.1544
     54 H22         5.8678   -8.2926   -2.0847 H         1 <0>         0.1465
     55 H23         4.4313   -8.1992   -0.8968 H         1 <0>         0.4218
     56 H24         3.3448   -8.7352    1.2145 H         1 <0>         0.1041
     57 H25         3.5500   -7.0365    1.6930 H         1 <0>         0.0988
     58 H26         1.8103   -8.0257   -0.6096 H         1 <0>         0.0821
     59 H27         1.2102   -7.5256    0.9913 H         1 <0>         0.0996
     60 H28         2.9546   -5.4734    0.0190 H         1 <0>         0.0631
     61 H29         1.8357   -5.8822   -1.2996 H         1 <0>         0.0764
     62 H30         0.1711   -5.8245    0.9382 H         1 <0>         0.0933
     63 H31         1.3136   -4.5004    1.2540 H         1 <0>         0.0787
     64 H32         0.6736   -4.3398   -1.5061 H         1 <0>         0.0885
     65 H33        -0.8644   -4.6353   -0.6675 H         1 <0>         0.1112
     66 H34        -0.7306   -2.4594    0.1264 H         1 <0>         0.4235
@<TRIPOS>BOND
     1    1    6 ar
     2    1    2 ar
     3    1   33 1
     4    2    3 ar
     5    2   34 1
     6    3    4 ar
     7    3   35 1
     8    4   10 ar
     9    4    5 ar
    10    5    6 ar
    11    5    7 ar
    12    6   36 1
    13    7   32 1
    14    7    8 ar
    15    8    9 ar
    16    8   37 1
    17    9   10 ar
    18    9   38 1
    19   10   11 1
    20   11   12 1
    21   11   39 1
    22   11   40 1
    23   12   13 1
    24   12   41 1
    25   12   42 1
    26   13   14 1
    27   13   43 1
    28   13   44 1
    29   14   15 1
    30   14   45 1
    31   14   46 1
    32   15   16 1
    33   15   47 1
    34   15   48 1
    35   16   21 ar
    36   16   17 ar
    37   17   18 ar
    38   17   49 1
    39   18   19 ar
    40   18   50 1
    41   19   20 ar
    42   19   26 1
    43   20   25 ar
    44   20   21 ar
    45   21   22 ar
    46   22   23 ar
    47   22   51 1
    48   23   24 ar
    49   23   52 1
    50   24   25 ar
    51   24   53 1
    52   25   54 1
    53   26   27 1
    54   26   55 1
    55   27   28 1
    56   27   56 1
    57   27   57 1
    58   28   29 1
    59   28   58 1
    60   28   59 1
    61   29   30 1
    62   29   60 1
    63   29   61 1
    64   30   31 1
    65   30   62 1
    66   30   63 1
    67   31   32 1
    68   31   64 1
    69   31   65 1
    70   32   66 1
@<TRIPOS>MOLECULE
ZINC01302121
   30    32     0     0     0
SMALL
USER_CHARGES
N-[(3,4-dichlorophenyl)methyl]-1H-benzoimidazol-2-amine
@<TRIPOS>ATOM
      1 C1         -1.2157    1.7509    0.0173 C.ar      1 <0>        -0.1163
      2 C2         -1.2431    3.1376    0.0301 C.ar      1 <0>        -0.1190
      3 C3         -0.0709    3.8598    0.0232 C.ar      1 <0>        -0.0819
      4 C4          1.1558    3.1912    0.0082 C.ar      1 <0>         0.0823
      5 C5          1.1778    1.7869    0.0004 C.ar      1 <0>         0.0387
      6 C6         -0.0126    1.0758    0.0080 C.ar      1 <0>        -0.1046
      7 N1          2.5143    1.4226   -0.0139 N.pl3     1 <0>        -0.6258
      8 H1          2.8747    0.4899   -0.0222 H         1 <0>         0.4237
      9 C7          3.2478    2.5743   -0.0145 C.2       1 <0>         0.5485
     10 N2          2.4482    3.6115   -0.0015 N.2       1 <0>        -0.5458
     11 N3          4.6254    2.6361   -0.0275 N.pl3     1 <0>        -0.7064
     12 C8          5.4139    1.4015   -0.0423 C.3       1 <0>         0.1671
     13 C9          6.8816    1.7430   -0.0547 C.ar      1 <0>        -0.0967
     14 C10         7.5442    1.9009   -1.2580 C.ar      1 <0>        -0.0787
     15 C11         8.8889    2.2196   -1.2707 C.ar      1 <0>        -0.0991
     16 C12         9.5755    2.3698   -0.0790 C.ar      1 <0>        -0.0206
     17 C13         8.9134    2.2061    1.1258 C.ar      1 <0>        -0.0345
     18 C14         7.5660    1.8926    1.1367 C.ar      1 <0>        -0.0757
     19 Cl1         9.7733    2.3947    2.6220 Cl        1 <0>        -0.0394
     20 Cl2        11.2661    2.7637   -0.0944 Cl        1 <0>        -0.0394
     21 H2         -2.1422    1.1960    0.0187 H         1 <0>         0.1286
     22 H3         -2.1911    3.6548    0.0420 H         1 <0>         0.1287
     23 H4         -0.0995    4.9394    0.0296 H         1 <0>         0.1282
     24 H5          0.0021   -0.0041    0.0020 H         1 <0>         0.1201
     25 H6          5.0723    3.4970   -0.0270 H         1 <0>         0.4259
     26 H7          5.1851    0.8136    0.8466 H         1 <0>         0.0766
     27 H8          5.1677    0.8238   -0.9333 H         1 <0>         0.0780
     28 H9          7.0096    1.7790   -2.1884 H         1 <0>         0.1430
     29 H10         9.4049    2.3468   -2.2109 H         1 <0>         0.1482
     30 H11         7.0489    1.7645    2.0762 H         1 <0>         0.1461
@<TRIPOS>BOND
     1    1    6 ar
     2    1    2 ar
     3    1   21 1
     4    2    3 ar
     5    2   22 1
     6    3    4 ar
     7    3   23 1
     8    4   10 1
     9    4    5 ar
    10    5    6 ar
    11    5    7 1
    12    6   24 1
    13    7    8 1
    14    7    9 1
    15    9   10 2
    16    9   11 1
    17   11   12 1
    18   11   25 1
    19   12   13 1
    20   12   26 1
    21   12   27 1
    22   13   18 ar
    23   13   14 ar
    24   14   15 ar
    25   14   28 1
    26   15   16 ar
    27   15   29 1
    28   16   17 ar
    29   16   20 1
    30   17   18 ar
    31   17   19 1
    32   18   30 1
@<TRIPOS>MOLECULE
ZINC08701365
   30    32     0     0     0
SMALL
USER_CHARGES
N-[(4-chlorophenyl)methyl]-1H-benzoimidazol-2-amine
@<TRIPOS>ATOM
      1 C1         -1.2157    1.7509    0.0173 C.ar      1 <0>        -0.1169
      2 C2         -1.2431    3.1376    0.0301 C.ar      1 <0>        -0.1191
      3 C3         -0.0709    3.8598    0.0232 C.ar      1 <0>        -0.0823
      4 C4          1.1558    3.1912    0.0082 C.ar      1 <0>         0.0826
      5 C5          1.1778    1.7869    0.0004 C.ar      1 <0>         0.0382
      6 C6         -0.0126    1.0758    0.0080 C.ar      1 <0>        -0.1045
      7 N1          2.5143    1.4226   -0.0139 N.pl3     1 <0>        -0.6260
      8 H1          2.8747    0.4899   -0.0222 H         1 <0>         0.4236
      9 C7          3.2478    2.5743   -0.0145 C.2       1 <0>         0.5489
     10 N2          2.4482    3.6115   -0.0015 N.2       1 <0>        -0.5474
     11 N3          4.6254    2.6361   -0.0275 N.pl3     1 <0>        -0.7056
     12 C8          5.4139    1.4015   -0.0423 C.3       1 <0>         0.1664
     13 C9          6.8816    1.7430   -0.0547 C.ar      1 <0>        -0.1094
     14 C10         7.5442    1.9009   -1.2577 C.ar      1 <0>        -0.0827
     15 C11         8.8890    2.2196   -1.2696 C.ar      1 <0>        -0.1120
     16 C12         9.5747    2.3696   -0.0774 C.ar      1 <0>        -0.0230
     17 C13         8.9124    2.2059    1.1262 C.ar      1 <0>        -0.1120
     18 C14         7.5663    1.8927    1.1369 C.ar      1 <0>        -0.0827
     19 Cl1        11.2654    2.7635   -0.0916 Cl        1 <0>        -0.0619
     20 H2         -2.1422    1.1960    0.0187 H         1 <0>         0.1285
     21 H3         -2.1911    3.6548    0.0420 H         1 <0>         0.1285
     22 H4         -0.0995    4.9394    0.0296 H         1 <0>         0.1280
     23 H5          0.0021   -0.0041    0.0020 H         1 <0>         0.1199
     24 H6          5.0723    3.4970   -0.0270 H         1 <0>         0.4255
     25 H7          5.1851    0.8136    0.8466 H         1 <0>         0.0738
     26 H8          5.1677    0.8238   -0.9333 H         1 <0>         0.0738
     27 H9          7.0098    1.7795   -2.1883 H         1 <0>         0.1356
     28 H10         9.4055    2.3473   -2.2095 H         1 <0>         0.1382
     29 H11         9.4471    2.3231    2.0572 H         1 <0>         0.1382
     30 H12         7.0491    1.7652    2.0764 H         1 <0>         0.1356
@<TRIPOS>BOND
     1    1    6 ar
     2    1    2 ar
     3    1   20 1
     4    2    3 ar
     5    2   21 1
     6    3    4 ar
     7    3   22 1
     8    4   10 1
     9    4    5 ar
    10    5    6 ar
    11    5    7 1
    12    6   23 1
    13    7    8 1
    14    7    9 1
    15    9   10 2
    16    9   11 1
    17   11   12 1
    18   11   24 1
    19   12   13 1
    20   12   25 1
    21   12   26 1
    22   13   18 ar
    23   13   14 ar
    24   14   15 ar
    25   14   27 1
    26   15   16 ar
    27   15   28 1
    28   16   17 ar
    29   16   19 1
    30   17   18 ar
    31   17   29 1
    32   18   30 1
@<TRIPOS>MOLECULE
ZINC00347120
   31    33     0     0     0
SMALL
USER_CHARGES

@<TRIPOS>ATOM
      1 C1         -0.0167    1.3781    0.0096 C.ar      1 <0>        -0.0902
      2 C2          1.1709    2.0855    0.0021 C.ar      1 <0>        -0.1184
      3 C3          2.3773    1.4107   -0.0130 C.ar      1 <0>        -0.0919
      4 C4          2.3960    0.0285   -0.0201 C.ar      1 <0>        -0.1387
      5 C5          1.2084   -0.6789   -0.0117 C.ar      1 <0>        -0.0919
      6 C6          0.0021   -0.0041    0.0020 C.ar      1 <0>        -0.1183
      7 C7          3.7112   -0.7071   -0.0376 C.3       1 <0>         0.1512
      8 N1          4.1518   -0.9524    1.3379 N.pl3     1 <0>        -0.6754
      9 C8          5.3341   -1.6135    1.5735 C.cat     1 <0>         0.6506
     10 N2          6.1553   -2.0670    0.6290 N.pl3     1 <0>        -0.5528
     11 H1          6.0187   -1.9860   -0.3279 H         1 <0>         0.4569
     12 C9          7.2264   -2.6671    1.2373 C.ar      1 <0>         0.0708
     13 C10         8.3706   -3.3029    0.7645 C.ar      1 <0>        -0.0824
     14 C11         9.2864   -3.8176    1.6564 C.ar      1 <0>        -0.0781
     15 C12         9.0759   -3.7070    3.0231 C.ar      1 <0>        -0.0777
     16 C13         7.9483   -3.0806    3.5080 C.ar      1 <0>        -0.0828
     17 C14         7.0135   -2.5547    2.6210 C.ar      1 <0>         0.0724
     18 N3          5.8269   -1.8881    2.7792 N.pl3     1 <0>        -0.5549
     19 H2         -0.9591    1.9053    0.0259 H         1 <0>         0.1328
     20 H3          1.1563    3.1654    0.0076 H         1 <0>         0.1327
     21 H4          3.3051    1.9634   -0.0196 H         1 <0>         0.1272
     22 H5          1.2231   -1.7588   -0.0176 H         1 <0>         0.1272
     23 H6         -0.9258   -0.5567    0.0082 H         1 <0>         0.1327
     24 H7          3.5884   -1.6586   -0.5549 H         1 <0>         0.0964
     25 H8          4.4573   -0.1052   -0.5563 H         1 <0>         0.0964
     26 H9          3.6095   -0.6484    2.0824 H         1 <0>         0.4388
     27 H10         8.5402   -3.3929   -0.2983 H         1 <0>         0.1502
     28 H11        10.1740   -4.3108    1.2888 H         1 <0>         0.1545
     29 H12         9.8007   -4.1152    3.7119 H         1 <0>         0.1545
     30 H13         7.7906   -2.9976    4.5732 H         1 <0>         0.1502
     31 H14         5.4147   -1.6573    3.6263 H         1 <0>         0.4581
@<TRIPOS>BOND
     1    1    6 ar
     2    1    2 ar
     3    1   19 1
     4    2    3 ar
     5    2   20 1
     6    3    4 ar
     7    3   21 1
     8    4    5 ar
     9    4    7 1
    10    5    6 ar
    11    5   22 1
    12    6   23 1
    13    7    8 1
    14    7   24 1
    15    7   25 1
    16    8    9 1
    17    8   26 1
    18    9   18 2
    19    9   10 1
    20   10   11 1
    21   10   12 1
    22   12   17 ar
    23   12   13 ar
    24   13   14 ar
    25   13   27 1
    26   14   15 ar
    27   14   28 1
    28   15   16 ar
    29   15   29 1
    30   16   17 ar
    31   16   30 1
    32   17   18 1
    33   18   31 1
@<TRIPOS>MOLECULE
ZINC40860736
   38    41     0     0     0
SMALL
USER_CHARGES

@<TRIPOS>ATOM
      1 C1         -0.0166    1.3751    0.0096 C.ar      1 <0>        -0.1083
      2 C2          1.1740    2.0780    0.0020 C.ar      1 <0>        -0.1136
      3 C3          2.3723    1.3951   -0.0101 C.ar      1 <0>        -0.1146
      4 C4          2.3933    0.0061   -0.0172 C.ar      1 <0>        -0.0908
      5 C5          1.2078   -0.6937   -0.0148 C.ar      1 <0>        -0.0830
      6 C6          0.0021   -0.0041    0.0020 C.ar      1 <0>        -0.1144
      7 C7          1.1549   -2.1988   -0.0383 C.3       1 <0>        -0.0786
      8 C8          2.5009   -2.7904    0.3753 C.3       1 <0>        -0.1252
      9 C9          3.5989   -2.1301   -0.4667 C.3       1 <0>         0.1362
     10 H1          3.3258   -2.1683   -1.5213 H         1 <0>         0.0988
     11 C10         3.7368   -0.6751   -0.0234 C.3       1 <0>        -0.0940
     12 N1          4.8682   -2.8320   -0.2602 N.pl3     1 <0>        -0.6750
     13 C11         5.8420   -2.7911   -1.2299 C.cat     1 <0>         0.6523
     14 N2          5.7389   -2.1414   -2.3872 N.pl3     1 <0>        -0.5530
     15 H2          4.9723   -1.6247   -2.6810 H         1 <0>         0.4562
     16 C12         6.8990   -2.3252   -3.0925 C.ar      1 <0>         0.0710
     17 C13         7.3485   -1.8923   -4.3367 C.ar      1 <0>        -0.0825
     18 C14         8.6020   -2.2579   -4.7773 C.ar      1 <0>        -0.0775
     19 C15         9.4196   -3.0551   -3.9897 C.ar      1 <0>        -0.0775
     20 C16         8.9901   -3.4923   -2.7554 C.ar      1 <0>        -0.0824
     21 C17         7.7270   -3.1319   -2.2950 C.ar      1 <0>         0.0723
     22 N3          7.0275   -3.3908   -1.1457 N.pl3     1 <0>        -0.5538
     23 H3         -0.9580    1.9042    0.0259 H         1 <0>         0.1290
     24 H4          1.1658    3.1579    0.0052 H         1 <0>         0.1283
     25 H5          3.3020    1.9447   -0.0145 H         1 <0>         0.1223
     26 H6         -0.9284   -0.5523    0.0088 H         1 <0>         0.1271
     27 H7          0.3842   -2.5421    0.6519 H         1 <0>         0.0938
     28 H8          0.9093   -2.5341   -1.0459 H         1 <0>         0.0847
     29 H9          2.6797   -2.5923    1.4321 H         1 <0>         0.0874
     30 H10         2.4991   -3.8659    0.1981 H         1 <0>         0.0879
     31 H11         4.4021   -0.1516   -0.7100 H         1 <0>         0.0764
     32 H12         4.1603   -0.6438    0.9805 H         1 <0>         0.0931
     33 H13         5.0215   -3.3255    0.5606 H         1 <0>         0.4390
     34 H14         6.7166   -1.2721   -4.9551 H         1 <0>         0.1501
     35 H15         8.9501   -1.9217   -5.7428 H         1 <0>         0.1548
     36 H16        10.3997   -3.3354   -4.3465 H         1 <0>         0.1548
     37 H17         9.6318   -4.1124   -2.1471 H         1 <0>         0.1505
     38 H18         7.3419   -3.9230   -0.3981 H         1 <0>         0.4583
@<TRIPOS>BOND
     1    1    6 ar
     2    1    2 ar
     3    1   23 1
     4    2    3 ar
     5    2   24 1
     6    3    4 ar
     7    3   25 1
     8    4   11 1
     9    4    5 ar
    10    5    6 ar
    11    5    7 1
    12    6   26 1
    13    7    8 1
    14    7   27 1
    15    7   28 1
    16    8    9 1
    17    8   29 1
    18    8   30 1
    19    9   10 1
    20    9   11 1
    21    9   12 1
    22   11   31 1
    23   11   32 1
    24   12   13 1
    25   12   33 1
    26   13   22 2
    27   13   14 1
    28   14   15 1
    29   14   16 1
    30   16   21 ar
    31   16   17 ar
    32   17   18 ar
    33   17   34 1
    34   18   19 ar
    35   18   35 1
    36   19   20 ar
    37   19   36 1
    38   20   21 ar
    39   20   37 1
    40   21   22 1
    41   22   38 1
@<TRIPOS>MOLECULE
ZINC40860738
   38    41     0     0     0
SMALL
USER_CHARGES

@<TRIPOS>ATOM
      1 C1         -0.0166    1.3751    0.0096 C.ar      1 <0>        -0.1083
      2 C2          1.1740    2.0780    0.0020 C.ar      1 <0>        -0.1136
      3 C3          2.3723    1.3951   -0.0161 C.ar      1 <0>        -0.1146
      4 C4          2.3932    0.0062   -0.0252 C.ar      1 <0>        -0.0907
      5 C5          1.2079   -0.6937   -0.0125 C.ar      1 <0>        -0.0830
      6 C6          0.0021   -0.0041    0.0020 C.ar      1 <0>        -0.1144
      7 C7          1.1552   -2.1990   -0.0052 C.3       1 <0>        -0.0786
      8 C8          2.4928   -2.7856   -0.4516 C.3       1 <0>        -0.1252
      9 C9          3.6072   -2.1349    0.3764 C.3       1 <0>         0.1362
     10 H1          3.3546   -2.1851    1.4355 H         1 <0>         0.0987
     11 C10         3.7365   -0.6749   -0.0530 C.3       1 <0>        -0.0940
     12 N1          4.8721   -2.8343    0.1372 N.pl3     1 <0>        -0.6750
     13 C11         5.8646   -2.8043    1.0881 C.cat     1 <0>         0.6524
     14 N2          5.7797   -2.1774    2.2593 N.pl3     1 <0>        -0.5531
     15 H2          5.0154   -1.6722    2.5780 H         1 <0>         0.4562
     16 C12         6.9543   -2.3671    2.9388 C.ar      1 <0>         0.0710
     17 C13         7.4249   -1.9550    4.1822 C.ar      1 <0>        -0.0825
     18 C14         8.6889   -2.3208    4.5917 C.ar      1 <0>        -0.0775
     19 C15         9.4964   -3.0968    3.7732 C.ar      1 <0>        -0.0775
     20 C16         9.0459   -3.5132    2.5392 C.ar      1 <0>        -0.0824
     21 C17         7.7717   -3.1531    2.1103 C.ar      1 <0>         0.0723
     22 N3          7.0481   -3.4029    0.9740 N.pl3     1 <0>        -0.5539
     23 H3         -0.9580    1.9042    0.0259 H         1 <0>         0.1290
     24 H4          1.1658    3.1579    0.0099 H         1 <0>         0.1283
     25 H5          3.3019    1.9448   -0.0236 H         1 <0>         0.1223
     26 H6         -0.9284   -0.5523    0.0071 H         1 <0>         0.1271
     27 H7          0.9293   -2.5458    1.0032 H         1 <0>         0.0846
     28 H8          0.3711   -2.5345   -0.6840 H         1 <0>         0.0938
     29 H9          2.4944   -3.8631   -0.2867 H         1 <0>         0.0878
     30 H10         2.6510   -2.5755   -1.5094 H         1 <0>         0.0874
     31 H11         4.1404   -0.6321   -1.0645 H         1 <0>         0.0931
     32 H12         4.4151   -0.1592    0.6265 H         1 <0>         0.0765
     33 H13         5.0093   -3.3184   -0.6921 H         1 <0>         0.4390
     34 H14         6.8015   -1.3502    4.8240 H         1 <0>         0.1501
     35 H15         9.0534   -2.0008    5.5566 H         1 <0>         0.1547
     36 H16        10.4854   -3.3763    4.1052 H         1 <0>         0.1548
     37 H17         9.6796   -4.1175    1.9070 H         1 <0>         0.1505
     38 H18         7.3483   -3.9257    0.2140 H         1 <0>         0.4583
@<TRIPOS>BOND
     1    1    6 ar
     2    1    2 ar
     3    1   23 1
     4    2    3 ar
     5    2   24 1
     6    3    4 ar
     7    3   25 1
     8    4   11 1
     9    4    5 ar
    10    5    6 ar
    11    5    7 1
    12    6   26 1
    13    7    8 1
    14    7   27 1
    15    7   28 1
    16    8    9 1
    17    8   29 1
    18    8   30 1
    19    9   10 1
    20    9   11 1
    21    9   12 1
    22   11   31 1
    23   11   32 1
    24   12   13 1
    25   12   33 1
    26   13   22 2
    27   13   14 1
    28   14   15 1
    29   14   16 1
    30   16   21 ar
    31   16   17 ar
    32   17   18 ar
    33   17   34 1
    34   18   19 ar
    35   18   35 1
    36   19   20 ar
    37   19   36 1
    38   20   21 ar
    39   20   37 1
    40   21   22 1
    41   22   38 1
@<TRIPOS>MOLECULE
ZINC26440248
   38    41     0     0     0
SMALL
USER_CHARGES

@<TRIPOS>ATOM
      1 C1         -0.0166    1.3751    0.0096 C.ar      1 <0>        -0.0963
      2 C2          1.1740    2.0780    0.0020 C.ar      1 <0>        -0.1139
      3 C3          2.3723    1.3951   -0.0101 C.ar      1 <0>        -0.1287
      4 C4          2.3933    0.0061   -0.0172 C.ar      1 <0>        -0.1269
      5 C5          1.2078   -0.6937   -0.0148 C.ar      1 <0>        -0.0465
      6 C6          0.0021   -0.0041    0.0020 C.ar      1 <0>        -0.1120
      7 C7          1.1549   -2.1988   -0.0383 C.3       1 <0>        -0.0935
      8 C8          2.5009   -2.7904    0.3753 C.3       1 <0>        -0.1162
      9 C9          3.5989   -2.1301   -0.4667 C.3       1 <0>        -0.1272
     10 C10         3.7368   -0.6751   -0.0234 C.3       1 <0>         0.1876
     11 H1          4.1603   -0.6438    0.9805 H         1 <0>         0.1018
     12 N1          4.6309    0.0285   -0.9463 N.pl3     1 <0>        -0.6714
     13 C11         5.3350    1.1286   -0.5167 C.cat     1 <0>         0.6526
     14 N2          5.2834    1.6341    0.7137 N.pl3     1 <0>        -0.5558
     15 H2          4.7484    1.2901    1.4461 H         1 <0>         0.4569
     16 C12         6.1143    2.7220    0.7707 C.ar      1 <0>         0.0708
     17 C13         6.4540    3.6227    1.7759 C.ar      1 <0>        -0.0821
     18 C14         7.3460    4.6394    1.5118 C.ar      1 <0>        -0.0774
     19 C15         7.9080    4.7723    0.2506 C.ar      1 <0>        -0.0775
     20 C16         7.5825    3.8891   -0.7560 C.ar      1 <0>        -0.0820
     21 C17         6.6837    2.8562   -0.5062 C.ar      1 <0>         0.0723
     22 N3          6.1718    1.8396   -1.2691 N.pl3     1 <0>        -0.5533
     23 H3         -0.9580    1.9042    0.0259 H         1 <0>         0.1331
     24 H4          1.1658    3.1579    0.0052 H         1 <0>         0.1279
     25 H5          3.3020    1.9447   -0.0145 H         1 <0>         0.1029
     26 H6         -0.9284   -0.5523    0.0088 H         1 <0>         0.1331
     27 H7          0.3842   -2.5421    0.6519 H         1 <0>         0.0885
     28 H8          0.9093   -2.5341   -1.0459 H         1 <0>         0.0875
     29 H9          2.6797   -2.5923    1.4321 H         1 <0>         0.0746
     30 H10         2.4991   -3.8659    0.1981 H         1 <0>         0.0892
     31 H11         4.5434   -2.6519   -0.3126 H         1 <0>         0.0882
     32 H12         3.3258   -2.1683   -1.5213 H         1 <0>         0.0858
     33 H13         4.7263   -0.2817   -1.8604 H         1 <0>         0.4390
     34 H14         6.0195    3.5254    2.7599 H         1 <0>         0.1502
     35 H15         7.6091    5.3380    2.2923 H         1 <0>         0.1548
     36 H16         8.6052    5.5737    0.0560 H         1 <0>         0.1548
     37 H17         8.0239    3.9979   -1.7356 H         1 <0>         0.1505
     38 H18         6.3820    1.6684   -2.2004 H         1 <0>         0.4585
@<TRIPOS>BOND
     1    1    6 ar
     2    1    2 ar
     3    1   23 1
     4    2    3 ar
     5    2   24 1
     6    3    4 ar
     7    3   25 1
     8    4   10 1
     9    4    5 ar
    10    5    6 ar
    11    5    7 1
    12    6   26 1
    13    7    8 1
    14    7   27 1
    15    7   28 1
    16    8    9 1
    17    8   29 1
    18    8   30 1
    19    9   10 1
    20    9   31 1
    21    9   32 1
    22   10   11 1
    23   10   12 1
    24   12   13 1
    25   12   33 1
    26   13   22 2
    27   13   14 1
    28   14   15 1
    29   14   16 1
    30   16   21 ar
    31   16   17 ar
    32   17   18 ar
    33   17   34 1
    34   18   19 ar
    35   18   35 1
    36   19   20 ar
    37   19   36 1
    38   20   21 ar
    39   20   37 1
    40   21   22 1
    41   22   38 1
@<TRIPOS>MOLECULE
ZINC26440251
   38    41     0     0     0
SMALL
USER_CHARGES
N-[(1S)-tetralin-1-yl]-1H-benzimidazol-2-amine
@<TRIPOS>ATOM
      1 C1          1.5628   -2.3974    2.4483 C.ar      1 <0>        -0.0973
      2 C2          2.5176   -1.6105    3.0655 C.ar      1 <0>        -0.1151
      3 C3          2.6615   -0.2901    2.6938 C.ar      1 <0>        -0.1288
      4 C4          1.8544    0.2567    1.7042 C.ar      1 <0>        -0.1269
      5 C5          0.9066   -0.5277    1.0868 C.ar      1 <0>        -0.0469
      6 C6          0.7624   -1.8570    1.4635 C.ar      1 <0>        -0.1130
      7 C7          0.0021   -0.0041    0.0020 C.3       1 <0>        -0.0950
      8 C8         -0.0186    1.5231    0.0104 C.3       1 <0>        -0.1192
      9 C9          1.4296    2.0266   -0.0007 C.3       1 <0>        -0.1258
     10 C10         2.0604    1.7071    1.3533 C.3       1 <0>         0.1966
     11 H1          1.6160    2.3352    2.1394 H         1 <0>         0.0959
     12 N1          3.4964    1.9912    1.2965 N.pl3     1 <0>        -0.6902
     13 C11         4.1830    2.3069    2.4500 C.cat     1 <0>         0.6318
     14 N2          3.6298    2.3839    3.6959 N.pl3     1 <0>        -0.5937
     15 H2          2.5565    2.1868    3.8343 H         1 <0>         0.4850
     16 C12         4.6445    2.7239    4.5756 C.ar      1 <0>         0.0974
     17 C13         4.6978    2.9424    5.9439 C.ar      1 <0>        -0.0900
     18 C14         5.8964    3.2762    6.5398 C.ar      1 <0>        -0.0768
     19 C15         7.0502    3.3951    5.7791 C.ar      1 <0>        -0.0859
     20 C16         7.0157    3.1812    4.4194 C.ar      1 <0>        -0.0815
     21 C17         5.8097    2.8429    3.8006 C.ar      1 <0>         0.0729
     22 N3          5.4640    2.5720    2.5144 N.pl3     1 <0>        -0.5563
     23 H3          1.4442   -3.4315    2.7362 H         1 <0>         0.1320
     24 H4          3.1487   -2.0285    3.8358 H         1 <0>         0.1266
     25 H5          3.4075    0.3239    3.1764 H         1 <0>         0.1070
     26 H6          0.0168   -2.4723    0.9818 H         1 <0>         0.1320
     27 H7          0.3652   -0.3503   -0.9769 H         1 <0>         0.0875
     28 H8         -1.0203   -0.3753    0.1661 H         1 <0>         0.0883
     29 H9         -0.5506    1.8875   -0.8808 H         1 <0>         0.0885
     30 H10        -0.5335    1.8779    0.9154 H         1 <0>         0.0739
     31 H11         1.9868    1.5227   -0.8042 H         1 <0>         0.0864
     32 H12         1.4388    3.1129   -0.1736 H         1 <0>         0.0875
     33 H13         4.0270    1.9527    0.3337 H         1 <0>         0.4650
     34 H14         3.8030    2.8511    6.5418 H         1 <0>         0.1475
     35 H15         5.9367    3.4458    7.6057 H         1 <0>         0.1525
     36 H16         7.9826    3.6569    6.2570 H         1 <0>         0.1523
     37 H17         7.9178    3.2754    3.8331 H         1 <0>         0.1482
     38 H18         6.0767    2.5505    1.6011 H         1 <0>         0.4873
@<TRIPOS>BOND
     1    1    6 ar
     2    1    2 ar
     3    1   23 1
     4    2    3 ar
     5    2   24 1
     6    3    4 ar
     7    3   25 1
     8    4   10 1
     9    4    5 ar
    10    5    6 ar
    11    5    7 1
    12    6   26 1
    13    7    8 1
    14    7   27 1
    15    7   28 1
    16    8    9 1
    17    8   29 1
    18    8   30 1
    19    9   10 1
    20    9   31 1
    21    9   32 1
    22   10   11 1
    23   10   12 1
    24   12   13 1
    25   12   33 1
    26   13   22 2
    27   13   14 1
    28   14   15 1
    29   14   16 1
    30   16   21 ar
    31   16   17 ar
    32   17   18 ar
    33   17   34 1
    34   18   19 ar
    35   18   35 1
    36   19   20 ar
    37   19   36 1
    38   20   21 ar
    39   20   37 1
    40   21   22 1
    41   22   38 1
@<TRIPOS>MOLECULE
ZINC45497752
   35    38     0     0     0
SMALL
USER_CHARGES

@<TRIPOS>ATOM
      1 C1         -0.0166    1.3738    0.0096 C.ar      1 <0>        -0.0781
      2 C2          1.1693    2.0935    0.0021 C.ar      1 <0>        -0.0779
      3 C3          2.3828    1.4406   -0.0130 C.ar      1 <0>        -0.0832
      4 C4          2.4197    0.0492   -0.0208 C.ar      1 <0>         0.0710
      5 C5          1.2191   -0.6793   -0.0133 C.ar      1 <0>         0.0732
      6 C6          0.0021   -0.0041    0.0020 C.ar      1 <0>        -0.0824
      7 N1          1.5680   -2.0043   -0.0237 N.pl3     1 <0>        -0.5549
      8 H1          0.9514   -2.7531   -0.0224 H         1 <0>         0.4577
      9 C7          2.8963   -2.0900   -0.0369 C.cat     1 <0>         0.6557
     10 N2          3.4337   -0.8721   -0.0355 N.pl3     1 <0>        -0.5547
     11 N3          3.6095   -3.2653   -0.0500 N.pl3     1 <0>        -0.6694
     12 C8          5.0741   -3.2334   -0.0639 C.3       1 <0>         0.2060
     13 H2          5.4153   -2.3812   -0.6516 H         1 <0>         0.1019
     14 C9          5.6092   -4.5272   -0.6787 C.3       1 <0>        -0.1306
     15 C10         5.2887   -5.7135    0.2350 C.3       1 <0>        -0.1163
     16 C11         6.1570   -5.6111    1.4983 C.3       1 <0>        -0.0550
     17 C12         6.0705   -4.2119    2.0154 C.2       1 <0>        -0.1112
     18 C13         5.5965   -3.1114    1.3646 C.2       1 <0>        -0.1820
     19 C14         5.6198   -1.9076    2.0685 C.2       1 <0>        -0.1601
     20 C15         6.0983   -1.8714    3.3331 C.2       1 <0>        -0.1593
     21 S1          6.5536   -3.5866    3.6023 S.3       1 <0>         0.0958
     22 H3         -0.9612    1.8971    0.0260 H         1 <0>         0.1544
     23 H4          1.1414    3.1731    0.0079 H         1 <0>         0.1544
     24 H5          3.3024    2.0068   -0.0191 H         1 <0>         0.1494
     25 H6         -0.9248   -0.5583    0.0076 H         1 <0>         0.1501
     26 H7          3.1429   -4.1158   -0.0502 H         1 <0>         0.4360
     27 H8          5.1443   -4.6844   -1.6520 H         1 <0>         0.0896
     28 H9          6.6891   -4.4485   -0.8040 H         1 <0>         0.1038
     29 H10         4.2350   -5.6871    0.5125 H         1 <0>         0.0648
     30 H11         5.5089   -6.6457   -0.2853 H         1 <0>         0.0937
     31 H12         5.7894   -6.3053    2.2539 H         1 <0>         0.0949
     32 H13         7.1921   -5.8486    1.2529 H         1 <0>         0.1002
     33 H14         5.2557   -1.0035    1.6033 H         1 <0>         0.1155
     34 H15         6.1837   -1.0298    4.0046 H         1 <0>         0.1933
     35 H16         4.3826   -0.6710   -0.0438 H         1 <0>         0.4536
@<TRIPOS>BOND
     1    1    6 ar
     2    1    2 ar
     3    1   22 1
     4    2    3 ar
     5    2   23 1
     6    3    4 ar
     7    3   24 1
     8    4   10 1
     9    4    5 ar
    10    5    6 ar
    11    5    7 1
    12    6   25 1
    13    7    8 1
    14    7    9 1
    15    9   10 2
    16    9   11 1
    17   10   35 1
    18   11   12 1
    19   11   26 1
    20   12   13 1
    21   12   18 1
    22   12   14 1
    23   14   15 1
    24   14   27 1
    25   14   28 1
    26   15   16 1
    27   15   29 1
    28   15   30 1
    29   16   17 1
    30   16   31 1
    31   16   32 1
    32   17   21 1
    33   17   18 2
    34   18   19 1
    35   19   20 2
    36   19   33 1
    37   20   21 1
    38   20   34 1
@<TRIPOS>MOLECULE
ZINC45497754
   35    38     0     0     0
SMALL
USER_CHARGES

@<TRIPOS>ATOM
      1 C1         -0.0166    1.3738    0.0096 C.ar      1 <0>        -0.0777
      2 C2          1.1693    2.0935    0.0021 C.ar      1 <0>        -0.0776
      3 C3          2.3828    1.4406   -0.0130 C.ar      1 <0>        -0.0824
      4 C4          2.4197    0.0492   -0.0208 C.ar      1 <0>         0.0711
      5 C5          1.2191   -0.6793   -0.0133 C.ar      1 <0>         0.0725
      6 C6          0.0021   -0.0041    0.0020 C.ar      1 <0>        -0.0824
      7 N1          1.5680   -2.0043   -0.0237 N.pl3     1 <0>        -0.5540
      8 H1          0.9514   -2.7531   -0.0224 H         1 <0>         0.4582
      9 C7          2.8963   -2.0900   -0.0369 C.cat     1 <0>         0.6533
     10 N2          3.4337   -0.8721   -0.0355 N.pl3     1 <0>        -0.5543
     11 N3          3.6095   -3.2653   -0.0500 N.pl3     1 <0>        -0.6698
     12 C8          5.0741   -3.2334   -0.0639 C.3       1 <0>         0.2075
     13 H2          5.4266   -2.3875    0.5264 H         1 <0>         0.1018
     14 C9          5.6207   -4.5337    0.5266 C.3       1 <0>        -0.1287
     15 C10         7.1408   -4.5911    0.3509 C.3       1 <0>        -0.1090
     16 C11         7.4573   -4.7926   -1.1389 C.3       1 <0>        -0.0555
     17 C12         6.6397   -3.8224   -1.9281 C.2       1 <0>        -0.1141
     18 C13         5.5691   -3.0960   -1.5007 C.2       1 <0>        -0.1810
     19 C14         4.9742   -2.2485   -2.4351 C.2       1 <0>        -0.1647
     20 C15         5.4643   -2.1772   -3.6938 C.2       1 <0>        -0.1613
     21 S1          6.8259   -3.3405   -3.6239 S.3       1 <0>         0.0987
     22 H3         -0.9612    1.8971    0.0260 H         1 <0>         0.1547
     23 H4          1.1414    3.1731    0.0079 H         1 <0>         0.1546
     24 H5          3.3024    2.0068   -0.0191 H         1 <0>         0.1499
     25 H6         -0.9248   -0.5583    0.0076 H         1 <0>         0.1503
     26 H7          3.1429   -4.1158   -0.0502 H         1 <0>         0.4385
     27 H8          5.3773   -4.5792    1.5882 H         1 <0>         0.0889
     28 H9          5.1653   -5.3823    0.0161 H         1 <0>         0.0854
     29 H10         7.5842   -3.6570    0.6957 H         1 <0>         0.0774
     30 H11         7.5442   -5.4243    0.9263 H         1 <0>         0.0944
     31 H12         8.5170   -4.6104   -1.3173 H         1 <0>         0.0963
     32 H13         7.2044   -5.8111   -1.4336 H         1 <0>         0.0967
     33 H14         4.1212   -1.6489   -2.1535 H         1 <0>         0.1137
     34 H15         5.1216   -1.5783   -4.5246 H         1 <0>         0.1917
     35 H16         4.3826   -0.6710   -0.0438 H         1 <0>         0.4566
@<TRIPOS>BOND
     1    1    6 ar
     2    1    2 ar
     3    1   22 1
     4    2    3 ar
     5    2   23 1
     6    3    4 ar
     7    3   24 1
     8    4   10 1
     9    4    5 ar
    10    5    6 ar
    11    5    7 1
    12    6   25 1
    13    7    8 1
    14    7    9 1
    15    9   10 2
    16    9   11 1
    17   10   35 1
    18   11   12 1
    19   11   26 1
    20   12   13 1
    21   12   18 1
    22   12   14 1
    23   14   15 1
    24   14   27 1
    25   14   28 1
    26   15   16 1
    27   15   29 1
    28   15   30 1
    29   16   17 1
    30   16   31 1
    31   16   32 1
    32   17   21 1
    33   17   18 2
    34   18   19 1
    35   19   20 2
    36   19   33 1
    37   20   21 1
    38   20   34 1
@<TRIPOS>MOLECULE
ZINC00629244
   48    53     0     0     0
SMALL
USER_CHARGES

@<TRIPOS>ATOM
      1 C1          0.0127    1.7125    0.7412 C.3       1 <0>        -0.0538
      2 N1         -0.0620    0.3240    0.2675 N.4       1 <0>        -0.2661
      3 C2         -1.4683   -0.1043    0.2183 C.3       1 <0>        -0.0005
      4 C3         -1.5503   -1.4198   -0.5569 C.3       1 <0>        -0.1026
      5 C4         -0.5544   -2.4043    0.0019 C.ar      1 <0>        -0.0706
      6 C5         -0.6993   -3.7463   -0.3154 C.ar      1 <0>        -0.0902
      7 C6          0.1947   -4.6813    0.1748 C.ar      1 <0>         0.0683
      8 C7          1.2456   -4.2684    0.9908 C.ar      1 <0>         0.0574
      9 C8          1.3839   -2.9285    1.3049 C.ar      1 <0>        -0.1172
     10 C9          0.4836   -1.9949    0.8120 C.ar      1 <0>        -0.1136
     11 C10         0.6705   -0.5487    1.1893 C.3       1 <0>         0.0845
     12 H1          0.3017   -0.3911    2.2029 H         1 <0>         0.1659
     13 C11         2.1598   -0.2021    1.1358 C.3       1 <0>         0.1168
     14 H2          2.2910    0.8799    1.1373 H         1 <0>         0.1494
     15 C12         2.8738   -0.8101    2.3165 C.ar      1 <0>        -0.1191
     16 C13         2.7492   -0.6612    3.6761 C.ar      1 <0>        -0.0713
     17 C14         3.5714   -1.3762    4.5333 C.ar      1 <0>        -0.0620
     18 C15         4.5237   -2.2451    4.0270 C.ar      1 <0>         0.0543
     19 C16         4.6601   -2.4050    2.6500 C.ar      1 <0>         0.1320
     20 C17         3.8303   -1.6835    1.7849 C.ar      1 <0>        -0.1809
     21 C18         3.7207   -1.6261    0.3190 C.2       1 <0>         0.5274
     22 O1          4.4057   -2.2637   -0.4560 O.2       1 <0>        -0.4065
     23 O2          2.7515   -0.7653   -0.0381 O.3       1 <0>        -0.3063
     24 O3          5.6545   -3.3043    2.4107 O.3       1 <0>        -0.2830
     25 C19         6.4021   -3.3880    3.6384 C.3       1 <0>         0.2067
     26 O4          5.4361   -3.0475    4.6503 O.3       1 <0>        -0.2909
     27 O5          1.9819   -5.3634    1.3405 O.3       1 <0>        -0.2971
     28 C20         1.1375   -6.4975    1.0684 C.3       1 <0>         0.2107
     29 O6          0.2723   -6.0346    0.0147 O.3       1 <0>        -0.2963
     30 C21         0.5298    0.2295   -1.0737 C.3       1 <0>        -0.0561
     31 H3          1.0558    2.0257    0.7853 H         1 <0>         0.1232
     32 H4         -0.5325    2.3604    0.0547 H         1 <0>         0.1336
     33 H5         -0.4298    1.7817    1.7349 H         1 <0>         0.1281
     34 H6         -1.8413   -0.2528    1.2317 H         1 <0>         0.1345
     35 H7         -2.0649    0.6557   -0.2863 H         1 <0>         0.1432
     36 H8         -2.5557   -1.8311   -0.4675 H         1 <0>         0.1274
     37 H9         -1.3272   -1.2357   -1.6078 H         1 <0>         0.1102
     38 H10        -1.5148   -4.0635   -0.9484 H         1 <0>         0.1514
     39 H11         2.1984   -2.6068    1.9370 H         1 <0>         0.1578
     40 H12         2.0092    0.0148    4.0784 H         1 <0>         0.1585
     41 H13         3.4690   -1.2547    5.6016 H         1 <0>         0.1625
     42 H14         6.7760   -4.4004    3.7910 H         1 <0>         0.1497
     43 H15         7.2235   -2.6714    3.6364 H         1 <0>         0.1033
     44 H16         1.7326   -7.3458    0.7304 H         1 <0>         0.1446
     45 H17         0.5569   -6.7633    1.9517 H         1 <0>         0.0972
     46 H18         1.5256    0.6726   -1.0634 H         1 <0>         0.1294
     47 H19         0.6012   -0.8180   -1.3664 H         1 <0>         0.1285
     48 H20        -0.0983    0.7640   -1.7864 H         1 <0>         0.1278
@<TRIPOS>BOND
     1    1    2 1
     2    1   31 1
     3    1   32 1
     4    1   33 1
     5    2   11 1
     6    2    3 1
     7    2   30 1
     8    3    4 1
     9    3   34 1
    10    3   35 1
    11    4    5 1
    12    4   36 1
    13    4   37 1
    14    5   10 ar
    15    5    6 ar
    16    6    7 ar
    17    6   38 1
    18    7   29 1
    19    7    8 ar
    20    8    9 ar
    21    8   27 1
    22    9   10 ar
    23    9   39 1
    24   10   11 1
    25   11   12 1
    26   11   13 1
    27   13   14 1
    28   13   23 1
    29   13   15 1
    30   15   20 ar
    31   15   16 ar
    32   16   17 ar
    33   16   40 1
    34   17   18 ar
    35   17   41 1
    36   18   26 1
    37   18   19 ar
    38   19   20 ar
    39   19   24 1
    40   20   21 1
    41   21   22 2
    42   21   23 1
    43   24   25 1
    44   25   26 1
    45   25   42 1
    46   25   43 1
    47   27   28 1
    48   28   29 1
    49   28   44 1
    50   28   45 1
    51   30   46 1
    52   30   47 1
    53   30   48 1
