@<TRIPOS>MOLECULE
ZINC21983255
   61    64     0     0     0
SMALL
USER_CHARGES
1-[[5-(4-chlorophenyl)-2-furyl]methyleneamino]-3-[4-(4-methylpiperazin-1-yl)butyl]imidazolidine-2,4-dione
@<TRIPOS>ATOM
      1 C1         -3.0458   17.1500    3.7611 C.3       1 <0>         0.0170
      2 N1         -3.1260   15.6832    3.7521 N.3       1 <0>        -0.5442
      3 C2         -4.4029   15.2222    4.3149 C.3       1 <0>         0.0231
      4 C3         -4.4143   13.6924    4.3610 C.3       1 <0>         0.0005
      5 N2         -4.2181   13.1626    3.0044 N.4       1 <0>        -0.4008
      6 C4         -2.9413   13.6236    2.4416 C.3       1 <0>        -0.0038
      7 C5         -2.9298   15.1534    2.3955 C.3       1 <0>         0.0238
      8 C6         -4.2984   11.6958    2.9954 C.3       1 <0>        -0.0053
      9 C7         -4.3401   11.1962    1.5498 C.3       1 <0>        -0.1446
     10 C8         -4.4237    9.6685    1.5405 C.3       1 <0>        -0.1367
     11 C9         -4.4653    9.1689    0.0949 C.3       1 <0>         0.1154
     12 N3         -4.5454    7.7061    0.0860 N.am      1 <0>        -0.5767
     13 C10        -5.7000    7.0110    0.0924 C.2       1 <0>         0.5256
     14 O1         -6.8256    7.4612    0.1049 O.2       1 <0>        -0.4539
     15 C11        -5.2985    5.5494    0.0797 C.3       1 <0>         0.0834
     16 N4         -3.8261    5.5949    0.0664 N.am      1 <0>        -0.4701
     17 C12        -3.4812    6.8952    0.0763 C.2       1 <0>         0.6798
     18 O2         -2.3313    7.2893    0.0735 O.2       1 <0>        -0.5384
     19 N5         -2.9548    4.4979    0.0524 N.2       1 <0>        -0.2062
     20 C13        -1.6676    4.6894    0.0416 C.2       1 <0>         0.1577
     21 C14        -0.7568    3.5426    0.0270 C.2       1 <0>         0.0059
     22 C15         0.6091    3.6047    0.0147 C.2       1 <0>        -0.1340
     23 C16         1.0775    2.2841    0.0040 C.2       1 <0>        -0.1929
     24 C17        -0.0179    1.4720    0.0101 C.2       1 <0>         0.0627
     25 O3         -1.1214    2.2444    0.0189 O.3       1 <0>        -0.1512
     26 C18         0.0021   -0.0041    0.0020 C.ar      1 <0>        -0.0262
     27 C19         1.2194   -0.6889   -0.0191 C.ar      1 <0>        -0.0785
     28 C20         1.2313   -2.0679   -0.0212 C.ar      1 <0>        -0.1063
     29 C21         0.0396   -2.7737   -0.0136 C.ar      1 <0>        -0.0238
     30 C22        -1.1707   -2.1006    0.0020 C.ar      1 <0>        -0.1075
     31 C23        -1.1963   -0.7219    0.0096 C.ar      1 <0>        -0.0836
     32 Cl1         0.0632   -4.5095   -0.0242 Cl        1 <0>        -0.0575
     33 H1         -3.1958   17.5191    4.7864 H         1 <0>         0.0846
     34 H2         -3.8254   17.5639    3.1046 H         1 <0>         0.0400
     35 H3         -2.0561   17.4653    3.3990 H         1 <0>         0.0851
     36 H4         -4.5203   15.6216    5.3331 H         1 <0>         0.1241
     37 H5         -5.2311   15.5772    3.6840 H         1 <0>         0.0610
     38 H6         -3.6030   13.3392    5.0145 H         1 <0>         0.1354
     39 H7         -5.3805   13.3446    4.7554 H         1 <0>         0.1366
     40 H8         -2.1131   13.2686    3.0725 H         1 <0>         0.1357
     41 H9         -2.8239   13.2242    1.4234 H         1 <0>         0.1371
     42 H10        -3.7411   15.5077    1.7426 H         1 <0>         0.0609
     43 H11        -1.9637   15.5021    2.0018 H         1 <0>         0.1239
     44 H12        -3.4167   11.2772    3.5027 H         1 <0>         0.1299
     45 H13        -5.2102   11.3752    3.5206 H         1 <0>         0.1331
     46 H14        -5.2218   11.6148    1.0425 H         1 <0>         0.0930
     47 H15        -3.4283   11.5168    1.0246 H         1 <0>         0.0925
     48 H16        -3.5420    9.2500    2.0479 H         1 <0>         0.0837
     49 H17        -5.3355    9.3480    2.0657 H         1 <0>         0.0823
     50 H18        -5.3469    9.5875   -0.4125 H         1 <0>         0.1030
     51 H19        -3.5534    9.4894   -0.4302 H         1 <0>         0.1034
     52 H20        -5.6931    5.0530    0.9785 H         1 <0>         0.1397
     53 H21        -5.7097    5.0640   -0.8177 H         1 <0>         0.1409
     54 H22        -1.2637    5.7126    0.0434 H         1 <0>         0.1914
     55 H23         1.2119    4.5008    0.0141 H         1 <0>         0.1644
     56 H24         2.1104    1.9690   -0.0070 H         1 <0>         0.1624
     57 H25         2.1492   -0.1397   -0.0299 H         1 <0>         0.1414
     58 H26         2.1718   -2.5987   -0.0337 H         1 <0>         0.1438
     59 H27        -2.0965   -2.6568    0.0079 H         1 <0>         0.1413
     60 H28        -2.1407   -0.1982    0.0210 H         1 <0>         0.1393
     61 H29        -5.0286   13.5483    2.3685 H         1 <0>         0.4379
@<TRIPOS>BOND
     1    1    2 1
     2    1   33 1
     3    1   34 1
     4    1   35 1
     5    2    7 1
     6    2    3 1
     7    3    4 1
     8    3   36 1
     9    3   37 1
    10    4    5 1
    11    4   38 1
    12    4   39 1
    13    5    6 1
    14    5    8 1
    15    5   61 1
    16    6    7 1
    17    6   40 1
    18    6   41 1
    19    7   42 1
    20    7   43 1
    21    8    9 1
    22    8   44 1
    23    8   45 1
    24    9   10 1
    25    9   46 1
    26    9   47 1
    27   10   11 1
    28   10   48 1
    29   10   49 1
    30   11   12 1
    31   11   50 1
    32   11   51 1
    33   12   17 am
    34   12   13 am
    35   13   14 2
    36   13   15 1
    37   15   16 1
    38   15   52 1
    39   15   53 1
    40   16   17 am
    41   16   19 1
    42   17   18 2
    43   19   20 2
    44   20   21 1
    45   20   54 1
    46   21   25 1
    47   21   22 2
    48   22   23 1
    49   22   55 1
    50   23   24 2
    51   23   56 1
    52   24   25 1
    53   24   26 1
    54   26   31 ar
    55   26   27 ar
    56   27   28 ar
    57   27   57 1
    58   28   29 ar
    59   28   58 1
    60   29   30 ar
    61   29   32 1
    62   30   31 ar
    63   30   59 1
    64   31   60 1
@<TRIPOS>MOLECULE
ZINC21983255
   61    64     0     0     0
SMALL
USER_CHARGES
1-[[5-(4-chlorophenyl)-2-furyl]methyleneamino]-3-[4-(4-methylpiperazin-1-yl)butyl]imidazolidine-2,4-dione
@<TRIPOS>ATOM
      1 C1         -3.0458   17.1500    3.7611 C.3       1 <0>        -0.0453
      2 N1         -3.1260   15.6832    3.7521 N.4       1 <0>        -0.4029
      3 C2         -4.4029   15.2222    4.3149 C.3       1 <0>         0.0002
      4 C3         -4.4143   13.6924    4.3610 C.3       1 <0>         0.0239
      5 N2         -4.2181   13.1626    3.0044 N.3       1 <0>        -0.5397
      6 C4         -2.9413   13.6236    2.4416 C.3       1 <0>         0.0188
      7 C5         -2.9298   15.1534    2.3955 C.3       1 <0>         0.0000
      8 C6         -4.2984   11.6958    2.9954 C.3       1 <0>         0.0544
      9 C7         -4.3401   11.1962    1.5498 C.3       1 <0>        -0.1141
     10 C8         -4.4237    9.6685    1.5405 C.3       1 <0>        -0.1378
     11 C9         -4.4653    9.1689    0.0949 C.3       1 <0>         0.1161
     12 N3         -4.5454    7.7061    0.0860 N.am      1 <0>        -0.5753
     13 C10        -5.7000    7.0110    0.0924 C.2       1 <0>         0.5246
     14 O1         -6.8256    7.4612    0.1049 O.2       1 <0>        -0.4536
     15 C11        -5.2985    5.5494    0.0797 C.3       1 <0>         0.0838
     16 N4         -3.8261    5.5949    0.0664 N.am      1 <0>        -0.4715
     17 C12        -3.4812    6.8952    0.0763 C.2       1 <0>         0.6809
     18 O2         -2.3313    7.2893    0.0735 O.2       1 <0>        -0.5393
     19 N5         -2.9548    4.4979    0.0524 N.2       1 <0>        -0.2043
     20 C13        -1.6676    4.6894    0.0416 C.2       1 <0>         0.1530
     21 C14        -0.7568    3.5426    0.0270 C.2       1 <0>         0.0102
     22 C15         0.6091    3.6047    0.0147 C.2       1 <0>        -0.1370
     23 C16         1.0775    2.2841    0.0040 C.2       1 <0>        -0.1921
     24 C17        -0.0179    1.4720    0.0101 C.2       1 <0>         0.0596
     25 O3         -1.1214    2.2444    0.0189 O.3       1 <0>        -0.1511
     26 C18         0.0021   -0.0041    0.0020 C.ar      1 <0>        -0.0246
     27 C19         1.2194   -0.6889   -0.0191 C.ar      1 <0>        -0.0792
     28 C20         1.2313   -2.0679   -0.0212 C.ar      1 <0>        -0.1064
     29 C21         0.0396   -2.7737   -0.0136 C.ar      1 <0>        -0.0246
     30 C22        -1.1707   -2.1006    0.0020 C.ar      1 <0>        -0.1073
     31 C23        -1.1963   -0.7219    0.0096 C.ar      1 <0>        -0.0840
     32 Cl1         0.0632   -4.5095   -0.0242 Cl        1 <0>        -0.0584
     33 H1         -3.1958   17.5191    4.7864 H         1 <0>         0.1247
     34 H2         -3.8254   17.5639    3.1046 H         1 <0>         0.1201
     35 H3         -2.0561   17.4653    3.3990 H         1 <0>         0.1248
     36 H4         -4.5203   15.6216    5.3331 H         1 <0>         0.1363
     37 H5         -5.2311   15.5772    3.6840 H         1 <0>         0.1350
     38 H6         -3.6030   13.3392    5.0145 H         1 <0>         0.0609
     39 H7         -5.3805   13.3446    4.7554 H         1 <0>         0.1237
     40 H8         -2.1131   13.2686    3.0725 H         1 <0>         0.0613
     41 H9         -2.8239   13.2242    1.4234 H         1 <0>         0.1260
     42 H10        -3.7411   15.5077    1.7426 H         1 <0>         0.1350
     43 H11        -1.9637   15.5021    2.0018 H         1 <0>         0.1362
     44 H12        -3.4167   11.2772    3.5027 H         1 <0>         0.0483
     45 H13        -5.2102   11.3752    3.5206 H         1 <0>         0.0905
     46 H14        -5.2218   11.6148    1.0425 H         1 <0>         0.0823
     47 H15        -3.4283   11.5168    1.0246 H         1 <0>         0.0688
     48 H16        -3.5420    9.2500    2.0479 H         1 <0>         0.0726
     49 H17        -5.3355    9.3480    2.0657 H         1 <0>         0.0745
     50 H18        -5.3469    9.5875   -0.4125 H         1 <0>         0.1013
     51 H19        -3.5534    9.4894   -0.4302 H         1 <0>         0.0997
     52 H20        -5.6931    5.0530    0.9785 H         1 <0>         0.1384
     53 H21        -5.7097    5.0640   -0.8177 H         1 <0>         0.1395
     54 H22        -1.2637    5.7126    0.0434 H         1 <0>         0.1916
     55 H23         1.2119    4.5008    0.0141 H         1 <0>         0.1640
     56 H24         2.1104    1.9690   -0.0070 H         1 <0>         0.1618
     57 H25         2.1492   -0.1397   -0.0299 H         1 <0>         0.1411
     58 H26         2.1718   -2.5987   -0.0337 H         1 <0>         0.1434
     59 H27        -2.0965   -2.6568    0.0079 H         1 <0>         0.1411
     60 H28        -2.1407   -0.1982    0.0210 H         1 <0>         0.1395
     61 H29        -2.3154   15.2976    4.3879 H         1 <0>         0.4405
@<TRIPOS>BOND
     1    1    2 1
     2    1   33 1
     3    1   34 1
     4    1   35 1
     5    2    7 1
     6    2    3 1
     7    2   61 1
     8    3    4 1
     9    3   36 1
    10    3   37 1
    11    4    5 1
    12    4   38 1
    13    4   39 1
    14    5    6 1
    15    5    8 1
    16    6    7 1
    17    6   40 1
    18    6   41 1
    19    7   42 1
    20    7   43 1
    21    8    9 1
    22    8   44 1
    23    8   45 1
    24    9   10 1
    25    9   46 1
    26    9   47 1
    27   10   11 1
    28   10   48 1
    29   10   49 1
    30   11   12 1
    31   11   50 1
    32   11   51 1
    33   12   17 am
    34   12   13 am
    35   13   14 2
    36   13   15 1
    37   15   16 1
    38   15   52 1
    39   15   53 1
    40   16   17 am
    41   16   19 1
    42   17   18 2
    43   19   20 2
    44   20   21 1
    45   20   54 1
    46   21   25 1
    47   21   22 2
    48   22   23 1
    49   22   55 1
    50   23   24 2
    51   23   56 1
    52   24   25 1
    53   24   26 1
    54   26   31 ar
    55   26   27 ar
    56   27   28 ar
    57   27   57 1
    58   28   29 ar
    59   28   58 1
    60   29   30 ar
    61   29   32 1
    62   30   31 ar
    63   30   59 1
    64   31   60 1
@<TRIPOS>MOLECULE
ZINC03995918
   42    43     0     0     0
SMALL
USER_CHARGES
N-(6-cyano-3-hydroxy-2,2-dimethyl-chroman-4-yl)-N-methyl-ethanesulfonamide
@<TRIPOS>ATOM
      1 C1         -6.5405    5.7471    2.2840 C.3       1 <0>        -0.1483
      2 C2         -5.4337    4.7259    2.0139 C.3       1 <0>        -0.6504
      3 S1         -3.8718    5.5947    1.7034 S.o2      1 <0>         2.6002
      4 O1         -3.4240    6.2356    2.8900 O.2       1 <0>        -0.9396
      5 O2         -3.9447    6.3094    0.4774 O.2       1 <0>        -0.9415
      6 N1         -2.7647    4.3945    1.4277 N.pl3     1 <0>        -0.9968
      7 C3         -2.0074    3.8257    2.5454 C.3       1 <0>         0.0783
      8 C4         -2.5425    3.9016    0.0662 C.3       1 <0>         0.2083
      9 H1         -2.1975    4.7214   -0.5639 H         1 <0>         0.1178
     10 C5         -1.4984    2.8138    0.0905 C.ar      1 <0>        -0.1667
     11 C6         -0.1697    3.1738    0.2027 C.ar      1 <0>        -0.0154
     12 C7          0.8233    2.1933    0.2332 C.ar      1 <0>        -0.0643
     13 C8          0.4664    0.8444    0.1512 C.ar      1 <0>        -0.0241
     14 C9         -0.8587    0.4936    0.0391 C.ar      1 <0>        -0.1525
     15 C10        -1.8480    1.4751    0.0006 C.ar      1 <0>         0.1882
     16 O3         -3.1421    1.0816   -0.1158 O.3       1 <0>        -0.2875
     17 C11        -4.1611    2.0237    0.2210 C.3       1 <0>         0.0859
     18 C12        -3.8536    3.3453   -0.4945 C.3       1 <0>         0.0567
     19 H2         -4.6603    4.0565   -0.3165 H         1 <0>         0.0727
     20 O4         -3.7173    3.1130   -1.8978 O.3       1 <0>        -0.5350
     21 C13        -4.1755    2.2482    1.7344 C.3       1 <0>        -0.2679
     22 C14        -5.5226    1.4953   -0.2352 C.3       1 <0>        -0.1502
     23 C15         2.2008    2.5676    0.3484 C.1       1 <0>         0.2537
     24 N2          3.2935    2.8644    0.4398 N.1       1 <0>        -0.4131
     25 H3         -7.4789    5.2251    2.4705 H         1 <0>         0.0864
     26 H4         -6.2778    6.3453    3.1565 H         1 <0>         0.0752
     27 H5         -6.6531    6.3986    1.4173 H         1 <0>         0.0741
     28 H6         -5.6963    4.1277    1.1413 H         1 <0>         0.1351
     29 H7         -5.3210    4.0744    2.8805 H         1 <0>         0.1452
     30 H8         -1.1398    4.4521    2.7526 H         1 <0>         0.0736
     31 H9         -2.6431    3.7813    3.4298 H         1 <0>         0.0778
     32 H10        -1.6760    2.8203    2.2854 H         1 <0>         0.0894
     33 H11         0.1017    4.2171    0.2667 H         1 <0>         0.1397
     34 H12         1.2289    0.0799    0.1754 H         1 <0>         0.1434
     35 H13        -1.1343   -0.5488   -0.0239 H         1 <0>         0.1453
     36 H14        -4.5138    2.7595   -2.3172 H         1 <0>         0.3867
     37 H15        -5.0081    2.9008    1.9970 H         1 <0>         0.0965
     38 H16        -4.2899    1.2908    2.2427 H         1 <0>         0.0767
     39 H17        -3.2387    2.7130    2.0417 H         1 <0>         0.1123
     40 H18        -5.5050    1.3278   -1.3121 H         1 <0>         0.0726
     41 H19        -5.7375    0.5564    0.2751 H         1 <0>         0.0802
     42 H20        -6.2951    2.2253    0.0063 H         1 <0>         0.0809
@<TRIPOS>BOND
     1    1    2 1
     2    1   25 1
     3    1   26 1
     4    1   27 1
     5    2    3 1
     6    2   28 1
     7    2   29 1
     8    3    4 2
     9    3    5 2
    10    3    6 1
    11    6    7 1
    12    6    8 1
    13    7   30 1
    14    7   31 1
    15    7   32 1
    16    8    9 1
    17    8   18 1
    18    8   10 1
    19   10   15 ar
    20   10   11 ar
    21   11   12 ar
    22   11   33 1
    23   12   13 ar
    24   12   23 1
    25   13   14 ar
    26   13   34 1
    27   14   15 ar
    28   14   35 1
    29   15   16 1
    30   16   17 1
    31   17   18 1
    32   17   21 1
    33   17   22 1
    34   18   19 1
    35   18   20 1
    36   20   36 1
    37   21   37 1
    38   21   38 1
    39   21   39 1
    40   22   40 1
    41   22   41 1
    42   22   42 1
    43   23   24 3
@<TRIPOS>MOLECULE
ZINC04654913
   42    43     0     0     0
SMALL
USER_CHARGES
N-(6-cyano-3-hydroxy-2,2-dimethyl-chroman-4-yl)-N-methyl-ethanesulfonamide
@<TRIPOS>ATOM
      1 C1         -0.1440    1.0700    1.3549 C.3       1 <0>        -0.1488
      2 C2          0.3354    0.6862   -0.0465 C.3       1 <0>        -0.6295
      3 S1         -0.6347    1.5884   -1.2857 S.o2      1 <0>         2.5957
      4 O1         -1.9808    1.1333   -1.2796 O.2       1 <0>        -0.9437
      5 O2         -0.3390    2.9769   -1.2227 O.2       1 <0>        -0.9518
      6 N1         -0.0277    1.0928   -2.7446 N.pl3     1 <0>        -0.9873
      7 C3         -0.6028   -0.0735   -3.4191 C.3       1 <0>         0.0879
      8 C4          1.0843    1.8209   -3.3606 C.3       1 <0>         0.2007
      9 H1          1.2846    2.7277   -2.7900 H         1 <0>         0.1295
     10 C5          0.7197    2.1893   -4.7767 C.ar      1 <0>        -0.1688
     11 C6         -0.5542    2.6578   -5.0318 C.ar      1 <0>        -0.0138
     12 C7         -0.9256    3.0113   -6.3301 C.ar      1 <0>        -0.0646
     13 C8         -0.0013    2.8892   -7.3715 C.ar      1 <0>        -0.0274
     14 C9          1.2652    2.4210   -7.1100 C.ar      1 <0>        -0.1518
     15 C10         1.6330    2.0670   -5.8127 C.ar      1 <0>         0.1857
     16 O3          2.8911    1.6015   -5.6040 O.3       1 <0>        -0.2904
     17 C11         3.3866    1.5926   -4.2647 C.3       1 <0>         0.0826
     18 C12         2.3329    0.9354   -3.3644 C.3       1 <0>         0.0672
     19 H2          2.7221    0.8447   -2.3503 H         1 <0>         0.0803
     20 O4          2.0039   -0.3590   -3.8725 O.3       1 <0>        -0.5349
     21 C13         4.6892    0.7925   -4.2024 C.3       1 <0>        -0.1445
     22 C14         3.6408    3.0280   -3.7998 C.3       1 <0>        -0.1862
     23 C15        -2.2467    3.4970   -6.5937 C.1       1 <0>         0.2537
     24 N2         -3.2947    3.8822   -6.8028 N.1       1 <0>        -0.4143
     25 H3         -0.0145    2.1422    1.5022 H         1 <0>         0.0731
     26 H4         -1.1980    0.8133    1.4612 H         1 <0>         0.0733
     27 H5          0.4389    0.5278    2.0995 H         1 <0>         0.0841
     28 H6          0.2059   -0.3860   -0.1938 H         1 <0>         0.1332
     29 H7          1.3894    0.9429   -0.1528 H         1 <0>         0.1288
     30 H8         -1.4753    0.2337   -3.9956 H         1 <0>         0.0545
     31 H9          0.1396   -0.5092   -4.0879 H         1 <0>         0.1090
     32 H10        -0.9005   -0.8130   -2.6757 H         1 <0>         0.0646
     33 H11        -1.2654    2.7507   -4.2243 H         1 <0>         0.1307
     34 H12        -0.2807    3.1621   -8.3784 H         1 <0>         0.1422
     35 H13         1.9792    2.3267   -7.9148 H         1 <0>         0.1443
     36 H14         2.7515   -0.9716   -3.9023 H         1 <0>         0.3762
     37 H15         5.4290    1.2512   -4.8585 H         1 <0>         0.0782
     38 H16         5.0643    0.7880   -3.1790 H         1 <0>         0.0826
     39 H17         4.5024   -0.2316   -4.5254 H         1 <0>         0.0702
     40 H18         2.7090    3.5923   -3.8368 H         1 <0>         0.0707
     41 H19         4.0188    3.0172   -2.7775 H         1 <0>         0.0801
     42 H20         4.3758    3.4970   -4.4540 H         1 <0>         0.0787
@<TRIPOS>BOND
     1    1    2 1
     2    1   25 1
     3    1   26 1
     4    1   27 1
     5    2    3 1
     6    2   28 1
     7    2   29 1
     8    3    4 2
     9    3    5 2
    10    3    6 1
    11    6    7 1
    12    6    8 1
    13    7   30 1
    14    7   31 1
    15    7   32 1
    16    8    9 1
    17    8   18 1
    18    8   10 1
    19   10   15 ar
    20   10   11 ar
    21   11   12 ar
    22   11   33 1
    23   12   13 ar
    24   12   23 1
    25   13   14 ar
    26   13   34 1
    27   14   15 ar
    28   14   35 1
    29   15   16 1
    30   16   17 1
    31   17   18 1
    32   17   21 1
    33   17   22 1
    34   18   19 1
    35   18   20 1
    36   20   36 1
    37   21   37 1
    38   21   38 1
    39   21   39 1
    40   22   40 1
    41   22   41 1
    42   22   42 1
    43   23   24 3
