@<TRIPOS>MOLECULE
ZINC00146714
   30    32     0     0     0
SMALL
USER_CHARGES

@<TRIPOS>ATOM
      1 C1         -0.0167    1.3793    0.0096 C.ar      1 <0>        -0.1294
      2 C2          1.1685    2.0929    0.0021 C.ar      1 <0>        -0.1200
      3 C3          2.3774    1.4280   -0.0134 C.ar      1 <0>        -0.1102
      4 C4          2.4029    0.0334   -0.0211 C.ar      1 <0>         0.0265
      5 C5          1.2046   -0.6805   -0.0130 C.ar      1 <0>        -0.0936
      6 C6          0.0021   -0.0041    0.0020 C.ar      1 <0>        -0.1204
      7 C7          3.6972   -0.6866   -0.0382 C.2       1 <0>        -0.2145
      8 C8          4.6468   -0.6639   -1.0666 C.2       1 <0>         0.0228
      9 N1          5.6601   -1.4208   -0.7237 N.2       1 <0>        -0.2554
     10 N2          5.4186   -1.9701    0.5400 N.pl3     1 <0>        -0.3230
     11 C9          4.2023   -1.5122    0.9738 C.2       1 <0>         0.3343
     12 N3          3.7206   -1.8788    2.1660 N.2       1 <0>        -0.5182
     13 C10         4.4014   -2.6835    2.9530 C.2       1 <0>         0.1519
     14 C11         5.6468   -3.1716    2.5537 C.2       1 <0>        -0.3363
     15 C12         6.1479   -2.8120    1.3348 C.2       1 <0>         0.4958
     16 O1          7.3533   -3.2695    0.9259 O.3       1 <0>        -0.6278
     17 C13         3.8346   -3.0799    4.2919 C.3       1 <0>         0.5272
     18 F1          2.5874   -2.4713    4.4689 F         1 <0>        -0.1638
     19 F2          3.6865   -4.4701    4.3425 F         1 <0>        -0.1715
     20 F3          4.7036   -2.6662    5.3072 F         1 <0>        -0.1714
     21 C14         4.5238    0.1050   -2.3568 C.3       1 <0>         0.5584
     22 F4          5.0712    1.3820   -2.1926 F         1 <0>        -0.1701
     23 F5          5.2124   -0.5708   -3.3699 F         1 <0>        -0.1685
     24 F6          3.1737    0.2177   -2.7057 F         1 <0>        -0.1608
     25 H1         -0.9604    1.9042    0.0260 H         1 <0>         0.1153
     26 H2          1.1475    3.1727    0.0081 H         1 <0>         0.1176
     27 H3          3.3020    1.9862   -0.0199 H         1 <0>         0.1171
     28 H4          1.2180   -1.7604   -0.0192 H         1 <0>         0.1181
     29 H5         -0.9264   -0.5556    0.0082 H         1 <0>         0.1177
     30 H6          6.2062   -3.8321    3.1998 H         1 <0>         0.1525
@<TRIPOS>BOND
     1    1    6 ar
     2    1    2 ar
     3    1   25 1
     4    2    3 ar
     5    2   26 1
     6    3    4 ar
     7    3   27 1
     8    4    5 ar
     9    4    7 1
    10    5    6 ar
    11    5   28 1
    12    6   29 1
    13    7   11 2
    14    7    8 1
    15    8    9 2
    16    8   21 1
    17    9   10 1
    18   10   15 1
    19   10   11 1
    20   11   12 1
    21   12   13 2
    22   13   14 1
    23   13   17 1
    24   14   15 2
    25   14   30 1
    26   15   16 1
    27   17   18 1
    28   17   19 1
    29   17   20 1
    30   21   22 1
    31   21   23 1
    32   21   24 1
@<TRIPOS>MOLECULE
ZINC00146703
   39    41     0     0     0
SMALL
USER_CHARGES

@<TRIPOS>ATOM
      1 C1         -0.0187    1.5258    0.0104 C.3       1 <0>        -0.1218
      2 C2          0.0021   -0.0041    0.0020 C.3       1 <0>        -0.0168
      3 C3          0.7421   -0.5109    1.2415 C.3       1 <0>        -0.1348
      4 C4         -1.4333   -0.5336    0.0129 C.3       1 <0>        -0.1346
      5 C5          0.7074   -0.4901   -1.2379 C.2       1 <0>         0.2444
      6 C6          0.8447   -1.8602   -1.4672 C.2       1 <0>        -0.3741
      7 C7          1.4859   -2.2898   -2.5944 C.2       1 <0>         0.4846
      8 O1          1.6314   -3.6120   -2.8397 O.3       1 <0>        -0.6515
      9 N1          1.9783   -1.3623   -3.4717 N.pl3     1 <0>        -0.3283
     10 C8          1.8208   -0.0274   -3.2064 C.2       1 <0>         0.3411
     11 N2          1.1863    0.3787   -2.1018 N.2       1 <0>        -0.5507
     12 C9          2.4174    0.6679   -4.2655 C.2       1 <0>        -0.2401
     13 C10         2.9260   -0.2872   -5.1536 C.2       1 <0>         0.0215
     14 N3          2.6660   -1.4826   -4.6839 N.2       1 <0>        -0.2701
     15 C11         3.6532    0.0105   -6.4395 C.3       1 <0>         0.5571
     16 F1          5.0258    0.1088   -6.1870 F         1 <0>        -0.1725
     17 F2          3.4204   -1.0201   -7.3564 F         1 <0>        -0.1708
     18 F3          3.1888    1.2194   -6.9688 F         1 <0>        -0.1631
     19 C12         2.4955    2.1391   -4.4177 C.ar      1 <0>         0.0388
     20 C13         1.3308    2.8888   -4.5828 C.ar      1 <0>        -0.0961
     21 C14         1.4099    4.2591   -4.7236 C.ar      1 <0>        -0.1213
     22 C15         2.6412    4.8896   -4.7013 C.ar      1 <0>        -0.1340
     23 C16         3.7999    4.1516   -4.5379 C.ar      1 <0>        -0.1205
     24 C17         3.7334    2.7813   -4.3907 C.ar      1 <0>        -0.1138
     25 H1          1.0039    1.9031    0.0027 H         1 <0>         0.0595
     26 H2         -0.5459    1.8868   -0.8726 H         1 <0>         0.0596
     27 H3         -0.5289    1.8773    0.9072 H         1 <0>         0.0452
     28 H4          0.2319   -0.1594    2.1383 H         1 <0>         0.0585
     29 H5          0.7568   -1.6008    1.2356 H         1 <0>         0.0607
     30 H6          1.7647   -0.1336    1.2338 H         1 <0>         0.0552
     31 H7         -1.9605   -0.1726   -0.8702 H         1 <0>         0.0552
     32 H8         -1.4185   -1.6235    0.0069 H         1 <0>         0.0607
     33 H9         -1.9435   -0.1821    0.9097 H         1 <0>         0.0584
     34 H10         0.4481   -2.5737   -0.7601 H         1 <0>         0.1384
     35 H11         0.3691    2.3976   -4.6007 H         1 <0>         0.1164
     36 H12         0.5089    4.8405   -4.8519 H         1 <0>         0.1154
     37 H13         2.6981    5.9624   -4.8123 H         1 <0>         0.1134
     38 H14         4.7582    4.6495   -4.5213 H         1 <0>         0.1155
     39 H15         4.6383    2.2066   -4.2591 H         1 <0>         0.1152
@<TRIPOS>BOND
     1    1    2 1
     2    1   25 1
     3    1   26 1
     4    1   27 1
     5    2    3 1
     6    2    4 1
     7    2    5 1
     8    3   28 1
     9    3   29 1
    10    3   30 1
    11    4   31 1
    12    4   32 1
    13    4   33 1
    14    5   11 2
    15    5    6 1
    16    6    7 2
    17    6   34 1
    18    7    8 1
    19    7    9 1
    20    9   14 1
    21    9   10 1
    22   10   11 1
    23   10   12 2
    24   12   13 1
    25   12   19 1
    26   13   14 2
    27   13   15 1
    28   15   16 1
    29   15   17 1
    30   15   18 1
    31   19   24 ar
    32   19   20 ar
    33   20   21 ar
    34   20   35 1
    35   21   22 ar
    36   21   36 1
    37   22   23 ar
    38   22   37 1
    39   23   24 ar
    40   23   38 1
    41   24   39 1
@<TRIPOS>MOLECULE
ZINC00146703
   40    42     0     0     0
SMALL
USER_CHARGES

@<TRIPOS>ATOM
      1 C1         -0.0187    1.5258    0.0104 C.3       1 <0>        -0.1489
      2 C2          0.0021   -0.0041    0.0020 C.3       1 <0>        -0.0345
      3 C3          0.7421   -0.5109    1.2415 C.3       1 <0>        -0.1485
      4 C4         -1.4333   -0.5336    0.0129 C.3       1 <0>        -0.1487
      5 C5          0.7074   -0.4901   -1.2379 C.2       1 <0>         0.2318
      6 C6          1.2063    0.4000   -2.1262 C.2       1 <0>        -0.3027
      7 C7          1.8651   -0.0598   -3.2843 C.2       1 <0>         0.5663
      8 O1          2.3165    0.7374   -4.0872 O.2       1 <0>        -0.4743
      9 N1          1.9947   -1.3840   -3.5007 N.am      1 <0>        -0.3455
     10 C8          1.4882   -2.2734   -2.5989 C.2       1 <0>         0.3332
     11 N2          0.8485   -1.8265   -1.4629 N.pl3     1 <0>        -0.5896
     12 C9          1.7657   -3.5427   -3.0777 C.2       1 <0>        -0.1790
     13 C10         2.4543   -3.3891   -4.2946 C.2       1 <0>         0.0434
     14 N3          2.5868   -2.1120   -4.5396 N.2       1 <0>        -0.1998
     15 C11         2.9554   -4.5092   -5.1694 C.3       1 <0>         0.5575
     16 F1          1.9629   -4.8615   -6.0902 F         1 <0>        -0.1613
     17 F2          4.1000   -4.0889   -5.8554 F         1 <0>        -0.1599
     18 F3          3.2686   -5.6172   -4.3746 F         1 <0>        -0.1539
     19 C12         1.4047   -4.8257   -2.4277 C.ar      1 <0>        -0.0230
     20 C13         1.9629   -5.1680   -1.1972 C.ar      1 <0>        -0.1053
     21 C14         1.6233   -6.3634   -0.5970 C.ar      1 <0>        -0.1152
     22 C15         0.7311   -7.2215   -1.2145 C.ar      1 <0>        -0.1105
     23 C16         0.1743   -6.8872   -2.4359 C.ar      1 <0>        -0.1123
     24 C17         0.5014   -5.6915   -3.0423 C.ar      1 <0>        -0.0985
     25 H1          1.0039    1.9031    0.0027 H         1 <0>         0.0710
     26 H2         -0.5459    1.8868   -0.8726 H         1 <0>         0.0709
     27 H3         -0.5289    1.8773    0.9072 H         1 <0>         0.0763
     28 H4          0.2319   -0.1594    2.1383 H         1 <0>         0.0794
     29 H5          0.7568   -1.6008    1.2356 H         1 <0>         0.0588
     30 H6          1.7647   -0.1336    1.2338 H         1 <0>         0.0682
     31 H7         -1.9605   -0.1726   -0.8702 H         1 <0>         0.0681
     32 H8         -1.4185   -1.6235    0.0069 H         1 <0>         0.0588
     33 H9         -1.9435   -0.1821    0.9097 H         1 <0>         0.0794
     34 H10         1.0997    1.4599   -1.9486 H         1 <0>         0.1869
     35 H11         2.6602   -4.4992   -0.7145 H         1 <0>         0.1212
     36 H12         2.0552   -6.6297    0.3564 H         1 <0>         0.1266
     37 H13         0.4685   -8.1561   -0.7413 H         1 <0>         0.1255
     38 H14        -0.5215   -7.5612   -2.9136 H         1 <0>         0.1276
     39 H15         0.0622   -5.4292   -3.9934 H         1 <0>         0.1241
     40 H16         0.4947   -2.4649   -0.8240 H         1 <0>         0.4363
@<TRIPOS>BOND
     1    1    2 1
     2    1   25 1
     3    1   26 1
     4    1   27 1
     5    2    3 1
     6    2    4 1
     7    2    5 1
     8    3   28 1
     9    3   29 1
    10    3   30 1
    11    4   31 1
    12    4   32 1
    13    4   33 1
    14    5   11 1
    15    5    6 2
    16    6    7 1
    17    6   34 1
    18    7    8 2
    19    7    9 am
    20    9   14 1
    21    9   10 1
    22   10   11 1
    23   10   12 2
    24   11   40 1
    25   12   13 1
    26   12   19 1
    27   13   14 2
    28   13   15 1
    29   15   16 1
    30   15   17 1
    31   15   18 1
    32   19   24 ar
    33   19   20 ar
    34   20   21 ar
    35   20   35 1
    36   21   22 ar
    37   21   36 1
    38   22   23 ar
    39   22   37 1
    40   23   24 ar
    41   23   38 1
    42   24   39 1
@<TRIPOS>MOLECULE
ZINC01030814
   39    42     0     0     0
SMALL
USER_CHARGES

@<TRIPOS>ATOM
      1 C1         -0.0168    1.3844    0.0097 C.ar      1 <0>        -0.1347
      2 C2          1.1695    2.1061    0.0022 C.ar      1 <0>        -0.1188
      3 C3          2.3701    1.4565   -0.0128 C.ar      1 <0>        -0.1156
      4 C4          2.4022    0.0461   -0.0207 C.ar      1 <0>         0.0408
      5 C5          1.1903   -0.6760   -0.0130 C.ar      1 <0>        -0.0999
      6 C6          0.0021   -0.0041    0.0020 C.ar      1 <0>        -0.1185
      7 C7          3.6413   -0.6395   -0.0367 C.2       1 <0>        -0.2582
      8 C8          4.6131   -0.6276   -1.0631 C.2       1 <0>         0.0428
      9 N1          5.6145   -1.3793   -0.7113 N.2       1 <0>        -0.2912
     10 N2          5.4102   -1.9478    0.5488 N.pl3     1 <0>        -0.3285
     11 C9          4.1985   -1.5197    1.0266 C.2       1 <0>         0.3602
     12 N3          3.7509   -1.8932    2.1940 N.2       1 <0>        -0.5534
     13 C10         4.4628   -2.7167    2.9878 C.2       1 <0>         0.2408
     14 C11         5.7012   -3.1847    2.5654 C.2       1 <0>        -0.3319
     15 C12         6.1780   -2.7910    1.3107 C.2       1 <0>         0.4971
     16 O1          7.3730   -3.2195    0.8662 O.3       1 <0>        -0.6208
     17 C13         3.9283   -3.1209    4.3048 C.ar      1 <0>        -0.0281
     18 C14         4.6682   -3.9706    5.1322 C.ar      1 <0>        -0.0387
     19 C15         4.1632   -4.3436    6.3596 C.ar      1 <0>        -0.1211
     20 C16         2.9261   -3.8789    6.7732 C.ar      1 <0>        -0.0494
     21 C17         2.1880   -3.0372    5.9591 C.ar      1 <0>        -0.0125
     22 C18         2.6833   -2.6508    4.7315 C.ar      1 <0>        -0.0103
     23 N4          0.8667   -2.5457    6.4100 N.pl3     1 <0>        -0.0169
     24 O2          0.3946   -2.9093    7.5845 O.2       1 <0>        -0.1803
     25 O3          0.1630   -1.7448    5.6368 O.3       1 <0>        -0.1602
     26 C19         4.5055    0.1341   -2.3590 C.3       1 <0>         0.5574
     27 F1          5.0546    1.4105   -2.1966 F         1 <0>        -0.1715
     28 F2          5.2028   -0.5495   -3.3609 F         1 <0>        -0.1702
     29 F3          3.1594    0.2483   -2.7225 F         1 <0>        -0.1617
     30 H1         -0.9617    1.9072    0.0260 H         1 <0>         0.1129
     31 H2          1.1423    3.1857    0.0079 H         1 <0>         0.1143
     32 H3          3.2915    2.0199   -0.0189 H         1 <0>         0.1145
     33 H4          1.2024   -1.7559   -0.0193 H         1 <0>         0.1150
     34 H5         -0.9271   -0.5546    0.0083 H         1 <0>         0.1147
     35 H6          6.2821   -3.8453    3.1918 H         1 <0>         0.1492
     36 H7          5.6328   -4.3344    4.8106 H         1 <0>         0.1539
     37 H8          4.7337   -5.0001    6.9999 H         1 <0>         0.1531
     38 H9          2.5352   -4.1750    7.7354 H         1 <0>         0.1547
     39 H10         2.1085   -1.9902    4.0994 H         1 <0>         0.1709
@<TRIPOS>BOND
     1    1    6 ar
     2    1    2 ar
     3    1   30 1
     4    2    3 ar
     5    2   31 1
     6    3    4 ar
     7    3   32 1
     8    4    5 ar
     9    4    7 1
    10    5    6 ar
    11    5   33 1
    12    6   34 1
    13    7   11 2
    14    7    8 1
    15    8    9 2
    16    8   26 1
    17    9   10 1
    18   10   15 1
    19   10   11 1
    20   11   12 1
    21   12   13 2
    22   13   14 1
    23   13   17 1
    24   14   15 2
    25   14   35 1
    26   15   16 1
    27   17   22 ar
    28   17   18 ar
    29   18   19 ar
    30   18   36 1
    31   19   20 ar
    32   19   37 1
    33   20   21 ar
    34   20   38 1
    35   21   22 ar
    36   21   23 1
    37   22   39 1
    38   23   24 2
    39   23   25 1
    40   26   27 1
    41   26   28 1
    42   26   29 1
@<TRIPOS>MOLECULE
ZINC00016154
   40    41     0     0     0
SMALL
USER_CHARGES
ethyl [2-amino-4-[(4-fluorophenyl)methylamino]phenyl]aminoformate
@<TRIPOS>ATOM
      1 C1          3.4348    2.3071    1.0827 C.3       1 <0>        -0.1544
      2 C2          2.2161    1.3898    1.2017 C.3       1 <0>         0.0825
      3 O1          1.0709    2.0223    0.5720 O.3       1 <0>        -0.3712
      4 C3         -0.0905    1.3408    0.5898 C.2       1 <0>         0.6466
      5 O2         -0.1452    0.2473    1.1172 O.2       1 <0>        -0.5564
      6 N1         -1.1906    1.8690    0.0179 N.am      1 <0>        -0.6401
      7 C4         -2.3682    1.1090   -0.0737 C.ar      1 <0>         0.0243
      8 C5         -2.3018   -0.2756   -0.0737 C.ar      1 <0>        -0.0344
      9 C6         -3.4598   -1.0245   -0.1633 C.ar      1 <0>        -0.2287
     10 C7         -4.6933   -0.3925   -0.2544 C.ar      1 <0>         0.2491
     11 C8         -4.7655    0.9937   -0.2552 C.ar      1 <0>        -0.2542
     12 C9         -3.6053    1.7468   -0.1587 C.ar      1 <0>         0.2434
     13 N2         -3.6752    3.1441   -0.1525 N.pl3     1 <0>        -0.8777
     14 N3         -5.8636   -1.1535   -0.3459 N.pl3     1 <0>        -0.7431
     15 C10        -5.7879   -2.6165   -0.3456 C.3       1 <0>         0.1685
     16 C11        -7.1768   -3.1914   -0.4530 C.ar      1 <0>        -0.1198
     17 C12        -7.9016   -3.4646    0.6921 C.ar      1 <0>        -0.0701
     18 C13        -9.1773   -3.9873    0.5948 C.ar      1 <0>        -0.1560
     19 C14        -9.7252   -4.2472   -0.6499 C.ar      1 <0>         0.1067
     20 C15        -8.9963   -3.9781   -1.7959 C.ar      1 <0>        -0.1562
     21 C16        -7.7229   -3.4505   -1.6963 C.ar      1 <0>        -0.0702
     22 F1        -10.9704   -4.7626   -0.7462 F         1 <0>        -0.1374
     23 H1          3.6525    2.4873    0.0299 H         1 <0>         0.0673
     24 H2          3.2256    3.2553    1.5779 H         1 <0>         0.0670
     25 H3          4.2946    1.8323    1.5554 H         1 <0>         0.0841
     26 H4          1.9984    1.2096    2.2544 H         1 <0>         0.0725
     27 H5          2.4254    0.4416    0.7064 H         1 <0>         0.0727
     28 H6         -1.1691    2.7740   -0.3306 H         1 <0>         0.4076
     29 H7         -1.3440   -0.7697   -0.0034 H         1 <0>         0.1455
     30 H8         -3.4056   -2.1032   -0.1629 H         1 <0>         0.1225
     31 H9         -5.7246    1.4851   -0.3261 H         1 <0>         0.1236
     32 H10        -2.8627    3.6701   -0.0890 H         1 <0>         0.3937
     33 H11        -4.5362    3.5868   -0.2118 H         1 <0>         0.4020
     34 H12        -6.7252   -0.7124   -0.4096 H         1 <0>         0.3997
     35 H13        -5.1902   -2.9496   -1.1941 H         1 <0>         0.0717
     36 H14        -5.3247   -2.9562    0.5808 H         1 <0>         0.0718
     37 H15        -7.4724   -3.2657    1.6630 H         1 <0>         0.1355
     38 H16        -9.7449   -4.1969    1.4893 H         1 <0>         0.1380
     39 H17        -9.4229   -4.1800   -2.7674 H         1 <0>         0.1380
     40 H18        -7.1543   -3.2401   -2.5900 H         1 <0>         0.1354
@<TRIPOS>BOND
     1    1    2 1
     2    1   23 1
     3    1   24 1
     4    1   25 1
     5    2    3 1
     6    2   26 1
     7    2   27 1
     8    3    4 1
     9    4    5 2
    10    4    6 am
    11    6    7 1
    12    6   28 1
    13    7   12 ar
    14    7    8 ar
    15    8    9 ar
    16    8   29 1
    17    9   10 ar
    18    9   30 1
    19   10   11 ar
    20   10   14 1
    21   11   12 ar
    22   11   31 1
    23   12   13 1
    24   13   32 1
    25   13   33 1
    26   14   15 1
    27   14   34 1
    28   15   16 1
    29   15   35 1
    30   15   36 1
    31   16   21 ar
    32   16   17 ar
    33   17   18 ar
    34   17   37 1
    35   18   19 ar
    36   18   38 1
    37   19   20 ar
    38   19   22 1
    39   20   21 ar
    40   20   39 1
    41   21   40 1
