@<TRIPOS>MOLECULE
ZINC03995918
   42    43     0     0     0
SMALL
USER_CHARGES
N-(6-cyano-3-hydroxy-2,2-dimethyl-chroman-4-yl)-N-methyl-ethanesulfonamide
@<TRIPOS>ATOM
      1 C1         -6.5405    5.7471    2.2840 C.3       1 <0>        -0.1483
      2 C2         -5.4337    4.7259    2.0139 C.3       1 <0>        -0.6504
      3 S1         -3.8718    5.5947    1.7034 S.o2      1 <0>         2.6002
      4 O1         -3.4240    6.2356    2.8900 O.2       1 <0>        -0.9396
      5 O2         -3.9447    6.3094    0.4774 O.2       1 <0>        -0.9415
      6 N1         -2.7647    4.3945    1.4277 N.pl3     1 <0>        -0.9968
      7 C3         -2.0074    3.8257    2.5454 C.3       1 <0>         0.0783
      8 C4         -2.5425    3.9016    0.0662 C.3       1 <0>         0.2083
      9 H1         -2.1975    4.7214   -0.5639 H         1 <0>         0.1178
     10 C5         -1.4984    2.8138    0.0905 C.ar      1 <0>        -0.1667
     11 C6         -0.1697    3.1738    0.2027 C.ar      1 <0>        -0.0154
     12 C7          0.8233    2.1933    0.2332 C.ar      1 <0>        -0.0643
     13 C8          0.4664    0.8444    0.1512 C.ar      1 <0>        -0.0241
     14 C9         -0.8587    0.4936    0.0391 C.ar      1 <0>        -0.1525
     15 C10        -1.8480    1.4751    0.0006 C.ar      1 <0>         0.1882
     16 O3         -3.1421    1.0816   -0.1158 O.3       1 <0>        -0.2875
     17 C11        -4.1611    2.0237    0.2210 C.3       1 <0>         0.0859
     18 C12        -3.8536    3.3453   -0.4945 C.3       1 <0>         0.0567
     19 H2         -4.6603    4.0565   -0.3165 H         1 <0>         0.0727
     20 O4         -3.7173    3.1130   -1.8978 O.3       1 <0>        -0.5350
     21 C13        -4.1755    2.2482    1.7344 C.3       1 <0>        -0.2679
     22 C14        -5.5226    1.4953   -0.2352 C.3       1 <0>        -0.1502
     23 C15         2.2008    2.5676    0.3484 C.1       1 <0>         0.2537
     24 N2          3.2935    2.8644    0.4398 N.1       1 <0>        -0.4131
     25 H3         -7.4789    5.2251    2.4705 H         1 <0>         0.0864
     26 H4         -6.2778    6.3453    3.1565 H         1 <0>         0.0752
     27 H5         -6.6531    6.3986    1.4173 H         1 <0>         0.0741
     28 H6         -5.6963    4.1277    1.1413 H         1 <0>         0.1351
     29 H7         -5.3210    4.0744    2.8805 H         1 <0>         0.1452
     30 H8         -1.1398    4.4521    2.7526 H         1 <0>         0.0736
     31 H9         -2.6431    3.7813    3.4298 H         1 <0>         0.0778
     32 H10        -1.6760    2.8203    2.2854 H         1 <0>         0.0894
     33 H11         0.1017    4.2171    0.2667 H         1 <0>         0.1397
     34 H12         1.2289    0.0799    0.1754 H         1 <0>         0.1434
     35 H13        -1.1343   -0.5488   -0.0239 H         1 <0>         0.1453
     36 H14        -4.5138    2.7595   -2.3172 H         1 <0>         0.3867
     37 H15        -5.0081    2.9008    1.9970 H         1 <0>         0.0965
     38 H16        -4.2899    1.2908    2.2427 H         1 <0>         0.0767
     39 H17        -3.2387    2.7130    2.0417 H         1 <0>         0.1123
     40 H18        -5.5050    1.3278   -1.3121 H         1 <0>         0.0726
     41 H19        -5.7375    0.5564    0.2751 H         1 <0>         0.0802
     42 H20        -6.2951    2.2253    0.0063 H         1 <0>         0.0809
@<TRIPOS>BOND
     1    1    2 1
     2    1   25 1
     3    1   26 1
     4    1   27 1
     5    2    3 1
     6    2   28 1
     7    2   29 1
     8    3    4 2
     9    3    5 2
    10    3    6 1
    11    6    7 1
    12    6    8 1
    13    7   30 1
    14    7   31 1
    15    7   32 1
    16    8    9 1
    17    8   18 1
    18    8   10 1
    19   10   15 ar
    20   10   11 ar
    21   11   12 ar
    22   11   33 1
    23   12   13 ar
    24   12   23 1
    25   13   14 ar
    26   13   34 1
    27   14   15 ar
    28   14   35 1
    29   15   16 1
    30   16   17 1
    31   17   18 1
    32   17   21 1
    33   17   22 1
    34   18   19 1
    35   18   20 1
    36   20   36 1
    37   21   37 1
    38   21   38 1
    39   21   39 1
    40   22   40 1
    41   22   41 1
    42   22   42 1
    43   23   24 3
@<TRIPOS>MOLECULE
ZINC04654913
   42    43     0     0     0
SMALL
USER_CHARGES
N-(6-cyano-3-hydroxy-2,2-dimethyl-chroman-4-yl)-N-methyl-ethanesulfonamide
@<TRIPOS>ATOM
      1 C1         -0.1440    1.0700    1.3549 C.3       1 <0>        -0.1488
      2 C2          0.3354    0.6862   -0.0465 C.3       1 <0>        -0.6295
      3 S1         -0.6347    1.5884   -1.2857 S.o2      1 <0>         2.5957
      4 O1         -1.9808    1.1333   -1.2796 O.2       1 <0>        -0.9437
      5 O2         -0.3390    2.9769   -1.2227 O.2       1 <0>        -0.9518
      6 N1         -0.0277    1.0928   -2.7446 N.pl3     1 <0>        -0.9873
      7 C3         -0.6028   -0.0735   -3.4191 C.3       1 <0>         0.0879
      8 C4          1.0843    1.8209   -3.3606 C.3       1 <0>         0.2007
      9 H1          1.2846    2.7277   -2.7900 H         1 <0>         0.1295
     10 C5          0.7197    2.1893   -4.7767 C.ar      1 <0>        -0.1688
     11 C6         -0.5542    2.6578   -5.0318 C.ar      1 <0>        -0.0138
     12 C7         -0.9256    3.0113   -6.3301 C.ar      1 <0>        -0.0646
     13 C8         -0.0013    2.8892   -7.3715 C.ar      1 <0>        -0.0274
     14 C9          1.2652    2.4210   -7.1100 C.ar      1 <0>        -0.1518
     15 C10         1.6330    2.0670   -5.8127 C.ar      1 <0>         0.1857
     16 O3          2.8911    1.6015   -5.6040 O.3       1 <0>        -0.2904
     17 C11         3.3866    1.5926   -4.2647 C.3       1 <0>         0.0826
     18 C12         2.3329    0.9354   -3.3644 C.3       1 <0>         0.0672
     19 H2          2.7221    0.8447   -2.3503 H         1 <0>         0.0803
     20 O4          2.0039   -0.3590   -3.8725 O.3       1 <0>        -0.5349
     21 C13         4.6892    0.7925   -4.2024 C.3       1 <0>        -0.1445
     22 C14         3.6408    3.0280   -3.7998 C.3       1 <0>        -0.1862
     23 C15        -2.2467    3.4970   -6.5937 C.1       1 <0>         0.2537
     24 N2         -3.2947    3.8822   -6.8028 N.1       1 <0>        -0.4143
     25 H3         -0.0145    2.1422    1.5022 H         1 <0>         0.0731
     26 H4         -1.1980    0.8133    1.4612 H         1 <0>         0.0733
     27 H5          0.4389    0.5278    2.0995 H         1 <0>         0.0841
     28 H6          0.2059   -0.3860   -0.1938 H         1 <0>         0.1332
     29 H7          1.3894    0.9429   -0.1528 H         1 <0>         0.1288
     30 H8         -1.4753    0.2337   -3.9956 H         1 <0>         0.0545
     31 H9          0.1396   -0.5092   -4.0879 H         1 <0>         0.1090
     32 H10        -0.9005   -0.8130   -2.6757 H         1 <0>         0.0646
     33 H11        -1.2654    2.7507   -4.2243 H         1 <0>         0.1307
     34 H12        -0.2807    3.1621   -8.3784 H         1 <0>         0.1422
     35 H13         1.9792    2.3267   -7.9148 H         1 <0>         0.1443
     36 H14         2.7515   -0.9716   -3.9023 H         1 <0>         0.3762
     37 H15         5.4290    1.2512   -4.8585 H         1 <0>         0.0782
     38 H16         5.0643    0.7880   -3.1790 H         1 <0>         0.0826
     39 H17         4.5024   -0.2316   -4.5254 H         1 <0>         0.0702
     40 H18         2.7090    3.5923   -3.8368 H         1 <0>         0.0707
     41 H19         4.0188    3.0172   -2.7775 H         1 <0>         0.0801
     42 H20         4.3758    3.4970   -4.4540 H         1 <0>         0.0787
@<TRIPOS>BOND
     1    1    2 1
     2    1   25 1
     3    1   26 1
     4    1   27 1
     5    2    3 1
     6    2   28 1
     7    2   29 1
     8    3    4 2
     9    3    5 2
    10    3    6 1
    11    6    7 1
    12    6    8 1
    13    7   30 1
    14    7   31 1
    15    7   32 1
    16    8    9 1
    17    8   18 1
    18    8   10 1
    19   10   15 ar
    20   10   11 ar
    21   11   12 ar
    22   11   33 1
    23   12   13 ar
    24   12   23 1
    25   13   14 ar
    26   13   34 1
    27   14   15 ar
    28   14   35 1
    29   15   16 1
    30   16   17 1
    31   17   18 1
    32   17   21 1
    33   17   22 1
    34   18   19 1
    35   18   20 1
    36   20   36 1
    37   21   37 1
    38   21   38 1
    39   21   39 1
    40   22   40 1
    41   22   41 1
    42   22   42 1
    43   23   24 3
@<TRIPOS>MOLECULE
ZINC07999092
   42    43     0     0     0
SMALL
USER_CHARGES

@<TRIPOS>ATOM
      1 C1         -2.6227   -3.8211    0.9314 C.3       1 <0>        -0.1471
      2 C2         -1.5482   -3.8366   -0.1577 C.3       1 <0>        -0.6464
      3 S1         -1.2381   -2.1418   -0.7254 S.o2      1 <0>         2.5986
      4 O1         -2.3753   -1.6407   -1.4144 O.2       1 <0>        -0.9394
      5 O2         -0.6253   -1.3838    0.3086 O.2       1 <0>        -0.9416
      6 N1         -0.0699   -2.2901   -1.8897 N.pl3     1 <0>        -0.9958
      7 C3         -0.4523   -2.4877   -3.2900 C.3       1 <0>         0.0806
      8 C4          1.3460   -2.2237   -1.5195 C.3       1 <0>         0.2069
      9 H1          1.5348   -1.3003   -0.9719 H         1 <0>         0.1199
     10 C5          2.1927   -2.2493   -2.7671 C.ar      1 <0>        -0.1622
     11 C6          2.3120   -1.0911   -3.5099 C.ar      1 <0>        -0.0151
     12 C7          3.0843   -1.0790   -4.6726 C.ar      1 <0>        -0.0631
     13 C8          3.7363   -2.2456   -5.0820 C.ar      1 <0>        -0.0248
     14 C9          3.6142   -3.3947   -4.3362 C.ar      1 <0>        -0.1517
     15 C10         2.8441   -3.4035   -3.1741 C.ar      1 <0>         0.1845
     16 O3          2.7618   -4.5578   -2.4642 O.3       1 <0>        -0.2879
     17 C11         1.7076   -4.6810   -1.5088 C.3       1 <0>         0.0833
     18 C12         1.6978   -3.4218   -0.6343 C.3       1 <0>         0.0575
     19 H2          0.9519   -3.5284    0.1533 H         1 <0>         0.0715
     20 O4          2.9889   -3.2288   -0.0531 O.3       1 <0>        -0.5357
     21 C13         1.9459   -5.9139   -0.6348 C.3       1 <0>        -0.1485
     22 C14         0.3674   -4.8144   -2.2346 C.3       1 <0>        -0.2064
     23 C15         3.2075    0.1223   -5.4422 C.1       1 <0>         0.2536
     24 N2          3.3053    1.0753   -6.0527 N.1       1 <0>        -0.4130
     25 H3         -2.2815   -3.2138    1.7698 H         1 <0>         0.0740
     26 H4         -3.5430   -3.3990    0.5278 H         1 <0>         0.0748
     27 H5         -2.8090   -4.8394    1.2725 H         1 <0>         0.0861
     28 H6         -0.6278   -4.2587    0.2460 H         1 <0>         0.1318
     29 H7         -1.8893   -4.4439   -0.9961 H         1 <0>         0.1409
     30 H8         -0.6534   -1.5209   -3.7517 H         1 <0>         0.0688
     31 H9          0.3601   -2.9825   -3.8222 H         1 <0>         0.0865
     32 H10        -1.3483   -3.1067   -3.3381 H         1 <0>         0.0746
     33 H11         1.8059   -0.1921   -3.1904 H         1 <0>         0.1392
     34 H12         4.3340   -2.2448   -5.9816 H         1 <0>         0.1434
     35 H13         4.1180   -4.2960   -4.6529 H         1 <0>         0.1454
     36 H14         3.2741   -3.9529    0.5208 H         1 <0>         0.3864
     37 H15         2.8970   -5.8106   -0.1124 H         1 <0>         0.0723
     38 H16         1.1396   -6.0047    0.0931 H         1 <0>         0.0821
     39 H17         1.9709   -6.8048   -1.2623 H         1 <0>         0.0807
     40 H18         0.0900   -5.8668   -2.2949 H         1 <0>         0.0754
     41 H19        -0.3992   -4.2674   -1.6857 H         1 <0>         0.0709
     42 H20         0.4565   -4.4040   -3.2405 H         1 <0>         0.0888
@<TRIPOS>BOND
     1    1    2 1
     2    1   25 1
     3    1   26 1
     4    1   27 1
     5    2    3 1
     6    2   28 1
     7    2   29 1
     8    3    4 2
     9    3    5 2
    10    3    6 1
    11    6    7 1
    12    6    8 1
    13    7   30 1
    14    7   31 1
    15    7   32 1
    16    8    9 1
    17    8   18 1
    18    8   10 1
    19   10   15 ar
    20   10   11 ar
    21   11   12 ar
    22   11   33 1
    23   12   13 ar
    24   12   23 1
    25   13   14 ar
    26   13   34 1
    27   14   15 ar
    28   14   35 1
    29   15   16 1
    30   16   17 1
    31   17   18 1
    32   17   21 1
    33   17   22 1
    34   18   19 1
    35   18   20 1
    36   20   36 1
    37   21   37 1
    38   21   38 1
    39   21   39 1
    40   22   40 1
    41   22   41 1
    42   22   42 1
    43   23   24 3
@<TRIPOS>MOLECULE
ZINC00598040
   56    58     0     0     0
SMALL
USER_CHARGES
(2,3-dimethoxyphenyl)-[1-[2-(4-fluorophenyl)ethyl]-4-piperidyl]-methanol
@<TRIPOS>ATOM
      1 C1          5.5618   -3.5345   -4.8302 C.3       1 <0>         0.0219
      2 O1          4.9467   -3.0693   -3.6271 O.3       1 <0>        -0.3055
      3 C2          3.5883   -3.0061   -3.6127 C.ar      1 <0>         0.1192
      4 C3          2.8637   -3.3835   -4.7319 C.ar      1 <0>        -0.1933
      5 C4          1.4830   -3.3186   -4.7155 C.ar      1 <0>        -0.0719
      6 C5          0.8219   -2.8781   -3.5841 C.ar      1 <0>        -0.1381
      7 C6          1.5387   -2.5005   -2.4640 C.ar      1 <0>        -0.1079
      8 C7          2.9231   -2.5577   -2.4756 C.ar      1 <0>         0.0631
      9 O2          3.6300   -2.1817   -1.3764 O.3       1 <0>        -0.3269
     10 C8          3.9216   -3.1970   -0.4140 C.3       1 <0>         0.0274
     11 C9          0.8148   -2.0208   -1.2324 C.3       1 <0>         0.1629
     12 H1          1.3541   -2.3477   -0.3434 H         1 <0>         0.1143
     13 C10         0.7375   -0.4928   -1.2489 C.3       1 <0>        -0.1251
     14 C11         0.0021   -0.0041    0.0020 C.3       1 <0>        -0.1385
     15 C12        -0.0187    1.5261    0.0104 C.3       1 <0>         0.0002
     16 C13         2.0699    1.6185   -1.2150 C.3       1 <0>        -0.0049
     17 C14         2.1530    0.0910   -1.2600 C.3       1 <0>        -0.1382
     18 C15         1.3803    3.4971    0.1472 C.3       1 <0>        -0.0026
     19 C16         2.8180    3.9647    0.3818 C.3       1 <0>        -0.0998
     20 C17         2.8403    5.4640    0.5328 C.ar      1 <0>        -0.1198
     21 C18         3.0112    6.2677   -0.5790 C.ar      1 <0>        -0.0787
     22 C19         3.0270    7.6428   -0.4424 C.ar      1 <0>        -0.1502
     23 C20         2.8822    8.2152    0.8100 C.ar      1 <0>         0.1174
     24 C21         2.7164    7.4092    1.9235 C.ar      1 <0>        -0.1501
     25 C22         2.6956    6.0344    1.7838 C.ar      1 <0>        -0.0786
     26 F1          2.9021    9.5593    0.9454 F         1 <0>        -0.1297
     27 O3         -0.5067   -2.5644   -1.2146 O.3       1 <0>        -0.5459
     28 H2          5.2192   -4.5466   -5.0455 H         1 <0>         0.0596
     29 H3          5.2905   -2.8758   -5.6551 H         1 <0>         0.0593
     30 H4          6.6449   -3.5359   -4.7074 H         1 <0>         0.1069
     31 H5          3.3777   -3.7280   -5.6170 H         1 <0>         0.1379
     32 H6          0.9194   -3.6131   -5.5885 H         1 <0>         0.1347
     33 H7         -0.2570   -2.8292   -3.5751 H         1 <0>         0.1300
     34 H8          4.5090   -3.9856   -0.8844 H         1 <0>         0.0527
     35 H9          4.4884   -2.7643    0.4104 H         1 <0>         0.0970
     36 H10         2.9897   -3.6157   -0.0339 H         1 <0>         0.0463
     37 H11         0.2008   -0.1639   -2.1388 H         1 <0>         0.0916
     38 H12         0.5174   -0.3659    0.8918 H         1 <0>         0.0897
     39 H13        -1.0203   -0.3818   -0.0053 H         1 <0>         0.1178
     40 H14        -0.5461    1.8871   -0.8725 H         1 <0>         0.1291
     41 H15        -0.5291    1.8775    0.9071 H         1 <0>         0.1294
     42 H16         3.0763    2.0369   -1.2084 H         1 <0>         0.1300
     43 H17         1.5325    1.9790   -2.0922 H         1 <0>         0.1279
     44 H18         2.7021   -0.2693   -0.3901 H         1 <0>         0.0981
     45 H19         2.6673   -0.2188   -2.1698 H         1 <0>         0.1181
     46 H20         0.9913    3.9595   -0.7600 H         1 <0>         0.1319
     47 H21         0.7611    3.7860    0.9965 H         1 <0>         0.1305
     48 H22         3.2070    3.5024    1.2890 H         1 <0>         0.0968
     49 H23         3.4372    3.6759   -0.4674 H         1 <0>         0.0968
     50 H24         3.1282    5.8208   -1.5552 H         1 <0>         0.1347
     51 H25         3.1563    8.2706   -1.3116 H         1 <0>         0.1428
     52 H26         2.6030    7.8546    2.9008 H         1 <0>         0.1430
     53 H27         2.5660    5.4055    2.6521 H         1 <0>         0.1354
     54 H28        -1.0452   -2.3141   -1.9777 H         1 <0>         0.3791
     55 N1          1.3729    2.0248    0.0240 N.4       1 <0>        -0.3947
     56 H29         1.8637    1.6203    0.8301 H         1 <0>         0.4265
@<TRIPOS>BOND
     1    1    2 1
     2    1   28 1
     3    1   29 1
     4    1   30 1
     5    2    3 1
     6    3    8 ar
     7    3    4 ar
     8    4    5 ar
     9    4   31 1
    10    5    6 ar
    11    5   32 1
    12    6    7 ar
    13    6   33 1
    14    7    8 ar
    15    7   11 1
    16    8    9 1
    17    9   10 1
    18   10   34 1
    19   10   35 1
    20   10   36 1
    21   11   12 1
    22   11   13 1
    23   11   27 1
    24   13   17 1
    25   13   14 1
    26   13   37 1
    27   14   15 1
    28   14   38 1
    29   14   39 1
    30   15   40 1
    31   15   41 1
    32   15   55 1
    33   16   17 1
    34   16   42 1
    35   16   43 1
    36   16   55 1
    37   17   44 1
    38   17   45 1
    39   18   19 1
    40   18   46 1
    41   18   47 1
    42   18   55 1
    43   19   20 1
    44   19   48 1
    45   19   49 1
    46   20   25 ar
    47   20   21 ar
    48   21   22 ar
    49   21   50 1
    50   22   23 ar
    51   22   51 1
    52   23   24 ar
    53   23   26 1
    54   24   25 ar
    55   24   52 1
    56   25   53 1
    57   27   54 1
    58   55   56 1
