@<TRIPOS>MOLECULE
ZINC01482197
   22    23     0     0     0
SMALL
USER_CHARGES

@<TRIPOS>ATOM
      1 C1         -0.0167    1.3781    0.0096 C.ar      1 <0>        -0.1011
      2 C2          1.1709    2.0855    0.0021 C.ar      1 <0>        -0.1134
      3 C3          2.3773    1.4107   -0.0130 C.ar      1 <0>        -0.1012
      4 C4          2.3960    0.0285   -0.0201 C.ar      1 <0>        -0.0921
      5 C5          1.2084   -0.6789   -0.0117 C.ar      1 <0>        -0.1139
      6 C6          0.0021   -0.0041    0.0020 C.ar      1 <0>        -0.1129
      7 C7          3.7112   -0.7071   -0.0376 C.3       1 <0>        -0.0736
      8 H1          4.5500   -0.1604   -0.4683 H         1 <0>         0.1380
      9 C8          3.6707   -2.2216   -0.2511 C.3       1 <0>        -0.1501
     10 C9          4.0079   -1.6516    1.1290 C.3       1 <0>        -0.0771
     11 H2          3.2518   -1.7409    1.9091 H         1 <0>         0.1803
     12 N1          5.4015   -1.7526    1.5824 N.4       1 <0>        -0.6064
     13 H3         -0.9591    1.9053    0.0259 H         1 <0>         0.1315
     14 H4          1.1563    3.1654    0.0076 H         1 <0>         0.1317
     15 H5          3.3051    1.9634   -0.0196 H         1 <0>         0.1258
     16 H6          1.2231   -1.7588   -0.0176 H         1 <0>         0.1249
     17 H7         -0.9258   -0.5567    0.0082 H         1 <0>         0.1311
     18 H8          2.6928   -2.6859   -0.3790 H         1 <0>         0.1371
     19 H9          4.4831   -2.6713   -0.8220 H         1 <0>         0.1286
     20 H10         5.7231   -0.8455    1.8854 H         1 <0>         0.4379
     21 H11         5.4587   -2.4037    2.3511 H         1 <0>         0.4416
     22 H12         5.9798   -2.0779    0.8223 H         1 <0>         0.4334
@<TRIPOS>BOND
     1    1    6 ar
     2    1    2 ar
     3    1   13 1
     4    2    3 ar
     5    2   14 1
     6    3    4 ar
     7    3   15 1
     8    4    5 ar
     9    4    7 1
    10    5    6 ar
    11    5   16 1
    12    6   17 1
    13    7    8 1
    14    7   10 1
    15    7    9 1
    16    9   10 1
    17    9   18 1
    18    9   19 1
    19   10   11 1
    20   10   12 1
    21   12   20 1
    22   12   21 1
    23   12   22 1
@<TRIPOS>MOLECULE
ZINC58574792
   63    66     0     0     0
SMALL
USER_CHARGES

@<TRIPOS>ATOM
      1 C1         -0.0167    1.3781    0.0096 C.ar      1 <0>        -0.1096
      2 C2          1.1709    2.0855    0.0021 C.ar      1 <0>        -0.1209
      3 C3          2.3773    1.4107   -0.0130 C.ar      1 <0>        -0.1005
      4 C4          2.3960    0.0285   -0.0201 C.ar      1 <0>        -0.1130
      5 C5          1.2084   -0.6789   -0.0117 C.ar      1 <0>        -0.1009
      6 C6          0.0021   -0.0041    0.0020 C.ar      1 <0>        -0.1209
      7 C7          3.7112   -0.7071   -0.0376 C.3       1 <0>         0.1636
      8 N1          4.1518   -0.9524    1.3379 N.am      1 <0>        -0.7262
      9 C8          5.3108   -1.6005    1.5688 C.2       1 <0>         0.5005
     10 O1          5.9889   -1.9806    0.6379 O.2       1 <0>        -0.4974
     11 C9          5.7640   -1.8528    2.9837 C.3       1 <0>         0.1436
     12 H1          4.9059   -2.1291    3.5963 H         1 <0>         0.1142
     13 C10         6.4057   -0.5835    3.5477 C.3       1 <0>        -0.1362
     14 C11         6.7529   -0.7993    5.0221 C.3       1 <0>         0.0650
     15 O2          7.3522    0.3862    5.5488 O.3       1 <0>        -0.3052
     16 C12         7.7228    0.3616    6.8561 C.ar      1 <0>         0.1553
     17 C13         7.5192   -0.7819    7.6147 C.ar      1 <0>        -0.2069
     18 C14         7.8972   -0.8045    8.9432 C.ar      1 <0>        -0.0559
     19 C15         8.4777    0.3116    9.5170 C.ar      1 <0>        -0.1341
     20 C16         8.6813    1.4526    8.7632 C.ar      1 <0>        -0.0700
     21 C17         8.3106    1.4782    7.4327 C.ar      1 <0>        -0.1477
     22 C18         8.8887    0.2844   10.9667 C.3       1 <0>        -0.0653
     23 H2          8.3423   -0.4171   11.5971 H         1 <0>         0.1365
     24 C19         9.3338    1.6043   11.5996 C.3       1 <0>        -0.1516
     25 C20        10.3665    0.5186   11.2865 C.3       1 <0>        -0.0806
     26 H3         11.0414    0.6923   10.4484 H         1 <0>         0.1800
     27 N2         10.9402   -0.2188   12.4201 N.4       1 <0>        -0.6066
     28 N3          6.7436   -2.9420    2.9958 N.am      1 <0>        -0.7245
     29 C21         7.8930   -2.8224    2.3021 C.2       1 <0>         0.5659
     30 O3          8.1168   -1.8107    1.6665 O.2       1 <0>        -0.4974
     31 C22         8.8816   -3.9216    2.3143 C.ar      1 <0>        -0.1340
     32 C23         8.6251   -5.0870    3.0384 C.ar      1 <0>        -0.0908
     33 C24         9.5516   -6.1091    3.0452 C.ar      1 <0>        -0.1280
     34 C25        10.7331   -5.9807    2.3367 C.ar      1 <0>        -0.0932
     35 C26        10.9937   -4.8280    1.6172 C.ar      1 <0>        -0.1255
     36 C27        10.0729   -3.8009    1.5970 C.ar      1 <0>        -0.0581
     37 H4         -0.9591    1.9053    0.0259 H         1 <0>         0.1249
     38 H5          1.1563    3.1654    0.0076 H         1 <0>         0.1254
     39 H6          3.3051    1.9634   -0.0196 H         1 <0>         0.1239
     40 H7          1.2231   -1.7588   -0.0176 H         1 <0>         0.1236
     41 H8         -0.9258   -0.5567    0.0082 H         1 <0>         0.1255
     42 H9          3.5884   -1.6586   -0.5549 H         1 <0>         0.0771
     43 H10         4.4573   -0.1052   -0.5563 H         1 <0>         0.0780
     44 H11         3.6095   -0.6484    2.0824 H         1 <0>         0.4000
     45 H12         7.3143   -0.3570    2.9898 H         1 <0>         0.1088
     46 H13         5.7069    0.2481    3.4569 H         1 <0>         0.0910
     47 H14         5.8442   -1.0258    5.5799 H         1 <0>         0.0672
     48 H15         7.4517   -1.6309    5.1128 H         1 <0>         0.0676
     49 H16         7.0652   -1.6537    7.1671 H         1 <0>         0.1348
     50 H17         7.7389   -1.6945    9.5342 H         1 <0>         0.1283
     51 H18         9.1346    2.3232    9.2138 H         1 <0>         0.1317
     52 H19         8.4739    2.3682    6.8431 H         1 <0>         0.1393
     53 H20         9.3294    2.4923   10.9676 H         1 <0>         0.1366
     54 H21         9.0806    1.7709   12.6466 H         1 <0>         0.1277
     55 H22        10.8576   -1.2104   12.2527 H         1 <0>         0.4374
     56 H23        11.9140    0.0251   12.5217 H         1 <0>         0.4411
     57 H24         6.5651   -3.7493    3.5030 H         1 <0>         0.4044
     58 H25         7.7036   -5.1881    3.5925 H         1 <0>         0.1228
     59 H26         9.3544   -7.0113    3.6051 H         1 <0>         0.1291
     60 H27        11.4553   -6.7837    2.3456 H         1 <0>         0.1288
     61 H28        11.9180   -4.7340    1.0665 H         1 <0>         0.1317
     62 H29        10.2753   -2.9036    1.0310 H         1 <0>         0.1367
     63 H30        10.4432    0.0224   13.2644 H         1 <0>         0.4330
@<TRIPOS>BOND
     1    1    6 ar
     2    1    2 ar
     3    1   37 1
     4    2    3 ar
     5    2   38 1
     6    3    4 ar
     7    3   39 1
     8    4    5 ar
     9    4    7 1
    10    5    6 ar
    11    5   40 1
    12    6   41 1
    13    7    8 1
    14    7   42 1
    15    7   43 1
    16    8    9 am
    17    8   44 1
    18    9   10 2
    19    9   11 1
    20   11   12 1
    21   11   13 1
    22   11   28 1
    23   13   14 1
    24   13   45 1
    25   13   46 1
    26   14   15 1
    27   14   47 1
    28   14   48 1
    29   15   16 1
    30   16   21 ar
    31   16   17 ar
    32   17   18 ar
    33   17   49 1
    34   18   19 ar
    35   18   50 1
    36   19   20 ar
    37   19   22 1
    38   20   21 ar
    39   20   51 1
    40   21   52 1
    41   22   23 1
    42   22   25 1
    43   22   24 1
    44   24   25 1
    45   24   53 1
    46   24   54 1
    47   25   26 1
    48   25   27 1
    49   27   55 1
    50   27   56 1
    51   27   63 1
    52   28   29 am
    53   28   57 1
    54   29   30 2
    55   29   31 1
    56   31   36 ar
    57   31   32 ar
    58   32   33 ar
    59   32   58 1
    60   33   34 ar
    61   33   59 1
    62   34   35 ar
    63   34   60 1
    64   35   36 ar
    65   35   61 1
    66   36   62 1
@<TRIPOS>MOLECULE
ZINC29046297
   22    23     0     0     0
SMALL
USER_CHARGES
(1R,2S)-2-(4-bromophenyl)cyclopropanamine
@<TRIPOS>ATOM
      1 C1         -0.0167    1.3780    0.0096 C.ar      1 <0>        -0.1040
      2 C2          0.0021   -0.0041    0.0020 C.ar      1 <0>        -0.0839
      3 C3          1.2093   -0.6791   -0.0131 C.ar      1 <0>        -0.0808
      4 C4          2.3974    0.0294   -0.0206 C.ar      1 <0>        -0.0840
      5 C5          2.3776    1.4114   -0.0130 C.ar      1 <0>        -0.1128
      6 C6          1.1709    2.0856    0.0021 C.ar      1 <0>        -0.0923
      7 C7          1.1499    3.5924    0.0098 C.3       1 <0>        -0.1474
      8 H1          0.1537    3.6270   -0.4554 H         1 <0>         0.1744
      9 C8          2.4793    4.3186   -0.2053 C.3       1 <0>        -0.1520
     10 C9          1.8313    4.3024    1.1814 C.3       1 <0>         0.0298
     11 H2          2.1443    4.0299    2.2001 H         1 <0>         0.1682
     12 N1          1.2263    5.5519    1.6619 N.4       1 <0>        -0.6905
     13 Br1         1.2356   -2.5699   -0.0241 Br        1 <0>        -0.0277
     14 H3         -0.9593    1.9051    0.0169 H         1 <0>         0.1352
     15 H4         -0.9257   -0.5568    0.0075 H         1 <0>         0.1412
     16 H5          3.3402   -0.4972   -0.0321 H         1 <0>         0.1401
     17 H6          3.3052    1.9646   -0.0189 H         1 <0>         0.1349
     18 H7          3.2356    3.6021   -0.5584 H         1 <0>         0.1422
     19 H8          2.3467    5.1115   -0.9561 H         1 <0>         0.1430
     20 H9          1.8183    5.9471    2.5005 H         1 <0>         0.4638
     21 H10         0.1980    5.3553    1.9995 H         1 <0>         0.4588
     22 H11         1.2096    6.2888    0.8454 H         1 <0>         0.4438
@<TRIPOS>BOND
     1    1    6 ar
     2    1    2 ar
     3    1   14 1
     4    2    3 ar
     5    2   15 1
     6    3    4 ar
     7    3   13 1
     8    4    5 ar
     9    4   16 1
    10    5    6 ar
    11    5   17 1
    12    6    7 1
    13    7    8 1
    14    7   10 1
    15    7    9 1
    16    9   10 1
    17    9   18 1
    18    9   19 1
    19   10   11 1
    20   10   12 1
    21   12   20 1
    22   12   21 1
    23   12   22 1
@<TRIPOS>MOLECULE
ZINC32012642
   22    23     0     0     0
SMALL
USER_CHARGES
(1R,2S)-2-(3-bromophenyl)cyclopropanamine
@<TRIPOS>ATOM
      1 C1          3.9687   -0.7031    0.9981 C.ar      1 <0>        -0.1038
      2 C2          2.8281    0.0782    1.0151 C.ar      1 <0>        -0.1051
      3 C3          2.5806    0.9631   -0.0174 C.ar      1 <0>        -0.0996
      4 C4          3.4788    1.0750   -1.0623 C.ar      1 <0>        -0.0838
      5 C5          4.6225    0.2975   -1.0771 C.ar      1 <0>        -0.0866
      6 C6          4.8671   -0.5920   -0.0460 C.ar      1 <0>        -0.0779
      7 Br1         5.8518    0.4505   -2.5058 Br        1 <0>        -0.0288
      8 C7          1.3347    1.8107   -0.0010 C.3       1 <0>        -0.1453
      9 H1          1.8012    2.5906   -0.6208 H         1 <0>         0.1738
     10 C8          0.4844    1.7921    1.2709 C.3       1 <0>        -0.1515
     11 C9         -0.0127    1.0858    0.0080 C.3       1 <0>         0.0295
     12 H2         -0.3730    0.0783   -0.2473 H         1 <0>         0.1681
     13 N1         -1.1228    1.7084   -0.7255 N.4       1 <0>        -0.6906
     14 H3          4.1597   -1.3972    1.8032 H         1 <0>         0.1400
     15 H4          2.1284   -0.0057    1.8335 H         1 <0>         0.1327
     16 H5          3.2873    1.7692   -1.8671 H         1 <0>         0.1355
     17 H6          5.7602   -1.1991   -0.0569 H         1 <0>         0.1412
     18 H7          1.0499    1.3119    2.0830 H         1 <0>         0.1423
     19 H8          0.2332    2.8235    1.5591 H         1 <0>         0.1431
     20 H9         -2.0215    1.0810   -0.6321 H         1 <0>         0.4637
     21 H10        -0.8520    1.8054   -1.7872 H         1 <0>         0.4590
     22 H11        -1.3260    2.7049   -0.3064 H         1 <0>         0.4438
@<TRIPOS>BOND
     1    1    6 ar
     2    1    2 ar
     3    1   14 1
     4    2    3 ar
     5    2   15 1
     6    3    4 ar
     7    3    8 1
     8    4    5 ar
     9    4   16 1
    10    5    6 ar
    11    5    7 1
    12    6   17 1
    13    8    9 1
    14    8   11 1
    15    8   10 1
    16   10   11 1
    17   10   18 1
    18   10   19 1
    19   11   12 1
    20   11   13 1
    21   13   20 1
    22   13   21 1
    23   13   22 1
@<TRIPOS>MOLECULE
ZINC29046428
   28    30     0     0     0
SMALL
USER_CHARGES
(1R,2S)-2-(1-naphthyl)cyclopropanamine
@<TRIPOS>ATOM
      1 C1          2.3804    1.4241   -0.0130 C.ar      1 <0>        -0.1165
      2 C2          1.1564    2.0906    0.0022 C.ar      1 <0>        -0.0938
      3 C3         -0.0170    1.4013    0.0097 C.ar      1 <0>        -0.1350
      4 C4          0.0021   -0.0041    0.0020 C.ar      1 <0>        -0.0395
      5 C5          1.2469   -0.6819   -0.0135 C.ar      1 <0>        -0.0533
      6 C6          2.4379    0.0645   -0.0208 C.ar      1 <0>        -0.0923
      7 C7          1.2663   -2.0867   -0.0217 C.ar      1 <0>        -0.0830
      8 C8          0.0928   -2.7765   -0.0147 C.ar      1 <0>        -0.1228
      9 C9         -1.1308   -2.1103    0.0006 C.ar      1 <0>        -0.0994
     10 C10        -1.1884   -0.7502    0.0089 C.ar      1 <0>        -0.0993
     11 C11        -2.5220   -0.0486    0.0259 C.3       1 <0>        -0.1547
     12 H1         -2.0972    0.8464    0.5039 H         1 <0>         0.1786
     13 C12        -3.7700   -0.9085    0.2358 C.3       1 <0>        -0.1528
     14 C13        -3.4742   -0.3129   -1.1422 C.3       1 <0>         0.0300
     15 H2         -3.3823   -0.6968   -2.1689 H         1 <0>         0.1668
     16 N1         -4.3179    0.8011   -1.5949 N.4       1 <0>        -0.6905
     17 H3          3.2970    1.9952   -0.0187 H         1 <0>         0.1311
     18 H4          1.1388    3.1704    0.0082 H         1 <0>         0.1285
     19 H5         -0.9579    1.9314    0.0171 H         1 <0>         0.1233
     20 H6          3.3936   -0.4384   -0.0330 H         1 <0>         0.1347
     21 H7          2.2074   -2.6165   -0.0339 H         1 <0>         0.1351
     22 H8          0.1104   -3.8564   -0.0214 H         1 <0>         0.1309
     23 H9         -2.0474   -2.6815    0.0063 H         1 <0>         0.1265
     24 H10        -3.4711   -1.9137    0.5677 H         1 <0>         0.1417
     25 H11        -4.4102   -0.4451    1.0009 H         1 <0>         0.1420
     26 H12        -4.9461    0.4678   -2.4341 H         1 <0>         0.4629
     27 H13        -3.6796    1.6346   -1.9231 H         1 <0>         0.4579
     28 H14        -4.9599    1.1350   -0.7664 H         1 <0>         0.4431
@<TRIPOS>BOND
     1    1    6 ar
     2    1    2 ar
     3    1   17 1
     4    2    3 ar
     5    2   18 1
     6    3    4 ar
     7    3   19 1
     8    4   10 ar
     9    4    5 ar
    10    5    6 ar
    11    5    7 ar
    12    6   20 1
    13    7    8 ar
    14    7   21 1
    15    8    9 ar
    16    8   22 1
    17    9   10 ar
    18    9   23 1
    19   10   11 1
    20   11   12 1
    21   11   14 1
    22   11   13 1
    23   13   14 1
    24   13   24 1
    25   13   25 1
    26   14   15 1
    27   14   16 1
    28   16   26 1
    29   16   27 1
    30   16   28 1
@<TRIPOS>MOLECULE
ZINC37381539
   28    30     0     0     0
SMALL
USER_CHARGES

@<TRIPOS>ATOM
      1 C1         -0.0164    1.3567    0.0095 C.ar      1 <0>        -0.1061
      2 C2          1.1685    2.0906    0.0021 C.ar      1 <0>        -0.0945
      3 C3          2.3785    1.4679   -0.0132 C.ar      1 <0>        -0.1235
      4 C4          2.4378    0.0637   -0.0214 C.ar      1 <0>        -0.0368
      5 C5          1.2328   -0.6827   -0.0134 C.ar      1 <0>        -0.0497
      6 C6          0.0021   -0.0041    0.0020 C.ar      1 <0>        -0.1000
      7 C7          1.2920   -2.0865   -0.0210 C.ar      1 <0>        -0.0754
      8 C8          2.5022   -2.7094   -0.0359 C.ar      1 <0>        -0.1248
      9 C9          3.6867   -1.9757   -0.0433 C.ar      1 <0>        -0.1298
     10 C10         3.6681   -0.6146   -0.0367 C.ar      1 <0>        -0.0884
     11 C11         4.9603    0.1606   -0.0459 C.3       1 <0>        -0.0809
     12 H1          4.9030    1.1651   -0.4653 H         1 <0>         0.1507
     13 C12         6.2540   -0.6252   -0.2688 C.3       1 <0>        -0.1488
     14 C13         5.9277   -0.0649    1.1178 C.3       1 <0>        -0.0699
     15 H2          6.5071    0.7911    1.4637 H         1 <0>         0.1867
     16 N1          5.5258   -1.0205    2.1585 N.4       1 <0>        -0.6081
     17 H3         -0.9634    1.8756    0.0259 H         1 <0>         0.1329
     18 H4          1.1258    3.1698    0.0084 H         1 <0>         0.1315
     19 H5          3.2883    2.0497   -0.0195 H         1 <0>         0.1297
     20 H6         -0.9241   -0.5595    0.0082 H         1 <0>         0.1359
     21 H7          0.3820   -2.6682   -0.0147 H         1 <0>         0.1375
     22 H8          2.5450   -3.7886   -0.0417 H         1 <0>         0.1338
     23 H9          4.6338   -2.4947   -0.0548 H         1 <0>         0.1220
     24 H10         6.1705   -1.7030   -0.4089 H         1 <0>         0.1248
     25 H11         7.0480   -0.1376   -0.8346 H         1 <0>         0.1413
     26 H12         5.3895   -1.9307    1.7449 H         1 <0>         0.4301
     27 H13         6.2473   -1.0753    2.8617 H         1 <0>         0.4415
     28 H14         4.6644   -0.7120    2.5838 H         1 <0>         0.4380
@<TRIPOS>BOND
     1    1    6 ar
     2    1    2 ar
     3    1   17 1
     4    2    3 ar
     5    2   18 1
     6    3    4 ar
     7    3   19 1
     8    4   10 ar
     9    4    5 ar
    10    5    6 ar
    11    5    7 ar
    12    6   20 1
    13    7    8 ar
    14    7   21 1
    15    8    9 ar
    16    8   22 1
    17    9   10 ar
    18    9   23 1
    19   10   11 1
    20   11   12 1
    21   11   14 1
    22   11   13 1
    23   13   14 1
    24   13   24 1
    25   13   25 1
    26   14   15 1
    27   14   16 1
    28   16   26 1
    29   16   27 1
    30   16   28 1
@<TRIPOS>MOLECULE
ZINC37381542
   28    30     0     0     0
SMALL
USER_CHARGES

@<TRIPOS>ATOM
      1 C1         -0.0164    1.3567    0.0095 C.ar      1 <0>        -0.1152
      2 C2          1.1685    2.0906    0.0021 C.ar      1 <0>        -0.0964
      3 C3          2.3785    1.4679   -0.0132 C.ar      1 <0>        -0.1283
      4 C4          2.4378    0.0637   -0.0214 C.ar      1 <0>        -0.0336
      5 C5          1.2328   -0.6827   -0.0134 C.ar      1 <0>        -0.0546
      6 C6          0.0021   -0.0041    0.0020 C.ar      1 <0>        -0.0939
      7 C7          1.2920   -2.0865   -0.0210 C.ar      1 <0>        -0.0790
      8 C8          2.5022   -2.7094   -0.0359 C.ar      1 <0>        -0.1241
      9 C9          3.6867   -1.9757   -0.0433 C.ar      1 <0>        -0.0938
     10 C10         3.6681   -0.6146   -0.0367 C.ar      1 <0>        -0.0829
     11 C11         4.9603    0.1606   -0.0459 C.3       1 <0>        -0.0752
     12 H1          4.9114    1.1611    0.3839 H         1 <0>         0.1389
     13 C12         6.2581   -0.6272    0.1439 C.3       1 <0>        -0.1485
     14 C13         5.9044   -0.0538   -1.2307 C.3       1 <0>        -0.0760
     15 H2          5.5909   -0.7557   -2.0034 H         1 <0>         0.1810
     16 N1          6.6760    1.1042   -1.7014 N.4       1 <0>        -0.6068
     17 H3         -0.9634    1.8756    0.0259 H         1 <0>         0.1308
     18 H4          1.1258    3.1698    0.0084 H         1 <0>         0.1280
     19 H5          3.2883    2.0497   -0.0195 H         1 <0>         0.1205
     20 H6         -0.9241   -0.5595    0.0082 H         1 <0>         0.1346
     21 H7          0.3820   -2.6682   -0.0147 H         1 <0>         0.1357
     22 H8          2.5450   -3.7886   -0.0417 H         1 <0>         0.1323
     23 H9          4.6338   -2.4947   -0.0548 H         1 <0>         0.1262
     24 H10         7.0632   -0.1448    0.6983 H         1 <0>         0.1295
     25 H11         6.1772   -1.7062    0.2754 H         1 <0>         0.1378
     26 H12         7.2605    1.4456   -0.9531 H         1 <0>         0.4335
     27 H13         7.2543    0.8286   -2.4809 H         1 <0>         0.4419
     28 H14         6.0431    1.8338   -1.9935 H         1 <0>         0.4378
@<TRIPOS>BOND
     1    1    6 ar
     2    1    2 ar
     3    1   17 1
     4    2    3 ar
     5    2   18 1
     6    3    4 ar
     7    3   19 1
     8    4   10 ar
     9    4    5 ar
    10    5    6 ar
    11    5    7 ar
    12    6   20 1
    13    7    8 ar
    14    7   21 1
    15    8    9 ar
    16    8   22 1
    17    9   10 ar
    18    9   23 1
    19   10   11 1
    20   11   12 1
    21   11   14 1
    22   11   13 1
    23   13   14 1
    24   13   24 1
    25   13   25 1
    26   14   15 1
    27   14   16 1
    28   16   26 1
    29   16   27 1
    30   16   28 1
@<TRIPOS>MOLECULE
ZINC37381544
   28    30     0     0     0
SMALL
USER_CHARGES

@<TRIPOS>ATOM
      1 C1         -0.0164    1.3567    0.0095 C.ar      1 <0>        -0.1061
      2 C2          1.1685    2.0906    0.0021 C.ar      1 <0>        -0.0945
      3 C3          2.3785    1.4679   -0.0132 C.ar      1 <0>        -0.1235
      4 C4          2.4378    0.0637   -0.0214 C.ar      1 <0>        -0.0368
      5 C5          1.2328   -0.6827   -0.0134 C.ar      1 <0>        -0.0497
      6 C6          0.0021   -0.0041    0.0020 C.ar      1 <0>        -0.1000
      7 C7          1.2920   -2.0865   -0.0210 C.ar      1 <0>        -0.0754
      8 C8          2.5022   -2.7094   -0.0359 C.ar      1 <0>        -0.1248
      9 C9          3.6867   -1.9757   -0.0433 C.ar      1 <0>        -0.1298
     10 C10         3.6681   -0.6146   -0.0367 C.ar      1 <0>        -0.0883
     11 C11         4.9603    0.1606   -0.0459 C.3       1 <0>        -0.0809
     12 H1          4.9114    1.1611    0.3839 H         1 <0>         0.1507
     13 C12         6.2581   -0.6272    0.1439 C.3       1 <0>        -0.1487
     14 C13         5.9044   -0.0538   -1.2307 C.3       1 <0>        -0.0699
     15 H2          6.4769    0.8054   -1.5800 H         1 <0>         0.1867
     16 N1          5.4818   -0.9997   -2.2721 N.4       1 <0>        -0.6081
     17 H3         -0.9634    1.8756    0.0259 H         1 <0>         0.1329
     18 H4          1.1258    3.1698    0.0084 H         1 <0>         0.1315
     19 H5          3.2883    2.0497   -0.0195 H         1 <0>         0.1297
     20 H6         -0.9241   -0.5595    0.0082 H         1 <0>         0.1359
     21 H7          0.3820   -2.6682   -0.0147 H         1 <0>         0.1375
     22 H8          2.5450   -3.7886   -0.0417 H         1 <0>         0.1338
     23 H9          4.6338   -2.4947   -0.0548 H         1 <0>         0.1220
     24 H10         7.0632   -0.1448    0.6983 H         1 <0>         0.1413
     25 H11         6.1772   -1.7062    0.2754 H         1 <0>         0.1248
     26 H12         4.6122   -0.6873   -2.6774 H         1 <0>         0.4380
     27 H13         6.1893   -1.0478   -2.9900 H         1 <0>         0.4415
     28 H14         5.3537   -1.9137   -1.8644 H         1 <0>         0.4301
@<TRIPOS>BOND
     1    1    6 ar
     2    1    2 ar
     3    1   17 1
     4    2    3 ar
     5    2   18 1
     6    3    4 ar
     7    3   19 1
     8    4   10 ar
     9    4    5 ar
    10    5    6 ar
    11    5    7 ar
    12    6   20 1
    13    7    8 ar
    14    7   21 1
    15    8    9 ar
    16    8   22 1
    17    9   10 ar
    18    9   23 1
    19   10   11 1
    20   11   12 1
    21   11   14 1
    22   11   13 1
    23   13   14 1
    24   13   24 1
    25   13   25 1
    26   14   15 1
    27   14   16 1
    28   16   26 1
    29   16   27 1
    30   16   28 1
@<TRIPOS>MOLECULE
ZINC44677165
   36    38     0     0     0
SMALL
USER_CHARGES

@<TRIPOS>ATOM
      1 C1         -0.0167    1.3781    0.0096 C.ar      1 <0>        -0.0996
      2 C2          1.1709    2.0855    0.0021 C.ar      1 <0>        -0.1055
      3 C3          2.3773    1.4107   -0.0130 C.ar      1 <0>        -0.0955
      4 C4          2.3960    0.0285   -0.0201 C.ar      1 <0>        -0.1076
      5 C5          1.2084   -0.6789   -0.0117 C.ar      1 <0>        -0.1426
      6 C6          0.0021   -0.0041    0.0020 C.ar      1 <0>        -0.1038
      7 C7          3.7112   -0.7071   -0.0376 C.3       1 <0>        -0.0704
      8 H1          4.5500   -0.1604   -0.4683 H         1 <0>         0.1523
      9 C8          3.6707   -2.2216   -0.2511 C.3       1 <0>        -0.1487
     10 C9          4.0079   -1.6516    1.1290 C.3       1 <0>        -0.0768
     11 H2          5.0419   -1.7265    1.4654 H         1 <0>         0.1865
     12 N1          2.9889   -1.7719    2.1803 N.4       1 <0>        -0.4665
     13 C10         3.5007   -2.6226    3.2631 C.3       1 <0>        -0.0247
     14 C11         2.4554   -2.7460    4.3416 C.2       1 <0>         0.5007
     15 O1          1.3891   -2.1810    4.2202 O.2       1 <0>        -0.5251
     16 N2          2.7055   -3.4843    5.4411 N.am      1 <0>        -0.6750
     17 C12         1.6893   -3.6043    6.4896 C.3       1 <0>         0.0602
     18 C13         2.1548   -3.4818    7.9419 C.3       1 <0>        -0.1826
     19 C14         1.7401   -4.8447    7.3839 C.3       1 <0>        -0.1784
     20 H3         -0.9591    1.9053    0.0259 H         1 <0>         0.1340
     21 H4          1.1563    3.1654    0.0076 H         1 <0>         0.1350
     22 H5          3.3051    1.9634   -0.0196 H         1 <0>         0.1327
     23 H6          1.2231   -1.7588   -0.0176 H         1 <0>         0.1197
     24 H7         -0.9258   -0.5567    0.0082 H         1 <0>         0.1332
     25 H8          2.6928   -2.6859   -0.3790 H         1 <0>         0.1240
     26 H9          4.4831   -2.6713   -0.8220 H         1 <0>         0.1421
     27 H10         2.7726   -0.8565    2.5454 H         1 <0>         0.4363
     28 H11         3.7344   -3.6115    2.8687 H         1 <0>         0.1639
     29 H12         4.4027   -2.1755    3.6809 H         1 <0>         0.1638
     30 H13         3.5583   -3.9362    5.5382 H         1 <0>         0.4119
     31 H14         0.7069   -3.2035    6.2401 H         1 <0>         0.1455
     32 H15         3.2171   -3.3119    8.1173 H         1 <0>         0.1025
     33 H16         1.4786   -3.0002    8.6482 H         1 <0>         0.1116
     34 H17         0.7910   -5.2597    7.7231 H         1 <0>         0.1130
     35 H18         2.5295   -5.5714    7.1922 H         1 <0>         0.1034
     36 H19         2.1539   -2.1858    1.7936 H         1 <0>         0.4304
@<TRIPOS>BOND
     1    1    6 ar
     2    1    2 ar
     3    1   20 1
     4    2    3 ar
     5    2   21 1
     6    3    4 ar
     7    3   22 1
     8    4    5 ar
     9    4    7 1
    10    5    6 ar
    11    5   23 1
    12    6   24 1
    13    7    8 1
    14    7   10 1
    15    7    9 1
    16    9   10 1
    17    9   25 1
    18    9   26 1
    19   10   11 1
    20   10   12 1
    21   12   13 1
    22   12   27 1
    23   12   36 1
    24   13   14 1
    25   13   28 1
    26   13   29 1
    27   14   15 2
    28   14   16 am
    29   16   17 1
    30   16   30 1
    31   17   19 1
    32   17   18 1
    33   17   31 1
    34   18   19 1
    35   18   32 1
    36   18   33 1
    37   19   34 1
    38   19   35 1
@<TRIPOS>MOLECULE
ZINC44677166
   36    38     0     0     0
SMALL
USER_CHARGES

@<TRIPOS>ATOM
      1 C1         -0.0167    1.3781    0.0096 C.ar      1 <0>        -0.1013
      2 C2          1.1709    2.0855    0.0021 C.ar      1 <0>        -0.1132
      3 C3          2.3773    1.4107   -0.0130 C.ar      1 <0>        -0.1002
      4 C4          2.3960    0.0285   -0.0201 C.ar      1 <0>        -0.0904
      5 C5          1.2084   -0.6789   -0.0117 C.ar      1 <0>        -0.1136
      6 C6          0.0021   -0.0041    0.0020 C.ar      1 <0>        -0.1133
      7 C7          3.7112   -0.7071   -0.0376 C.3       1 <0>        -0.0690
      8 H1          4.5589   -0.1646    0.3809 H         1 <0>         0.1398
      9 C8          3.6750   -2.2237    0.1616 C.3       1 <0>        -0.1475
     10 C9          3.9832   -1.6399   -1.2194 C.3       1 <0>        -0.0795
     11 H2          3.2110   -1.7215   -1.9844 H         1 <0>         0.1813
     12 N1          5.3670   -1.7362   -1.7030 N.4       1 <0>        -0.4653
     13 C10         5.4079   -2.5784   -2.9059 C.3       1 <0>        -0.0233
     14 C11         6.8275   -2.6772   -3.4019 C.2       1 <0>         0.5018
     15 O1          7.7175   -2.1026   -2.8115 O.2       1 <0>        -0.5276
     16 N2          7.1080   -3.4041   -4.5016 N.am      1 <0>        -0.6750
     17 C12         8.4881   -3.5002   -4.9838 C.3       1 <0>         0.0599
     18 C13         8.7212   -3.3642   -6.4898 C.3       1 <0>        -0.1826
     19 C14         8.8624   -4.7296   -5.8140 C.3       1 <0>        -0.1784
     20 H3         -0.9591    1.9053    0.0259 H         1 <0>         0.1311
     21 H4          1.1563    3.1654    0.0076 H         1 <0>         0.1315
     22 H5          3.3051    1.9634   -0.0196 H         1 <0>         0.1266
     23 H6          1.2231   -1.7588   -0.0176 H         1 <0>         0.1250
     24 H7         -0.9258   -0.5567    0.0082 H         1 <0>         0.1307
     25 H8          4.4992   -2.6789    0.7109 H         1 <0>         0.1291
     26 H9          2.7000   -2.6893    0.3053 H         1 <0>         0.1388
     27 H10         5.7102   -0.8140   -1.9263 H         1 <0>         0.4366
     28 H11         5.0372   -3.5747   -2.6646 H         1 <0>         0.1635
     29 H12         4.7822   -2.1357   -3.6808 H         1 <0>         0.1626
     30 H13         6.3962   -3.8637   -4.9738 H         1 <0>         0.4120
     31 H14         9.2483   -3.0922   -4.3177 H         1 <0>         0.1457
     32 H15         7.8478   -3.2034   -7.1218 H         1 <0>         0.1025
     33 H16         9.6349   -2.8666   -6.8148 H         1 <0>         0.1118
     34 H17         9.8689   -5.1303   -5.6944 H         1 <0>         0.1132
     35 H18         8.0818   -5.4670   -6.0014 H         1 <0>         0.1034
     36 H19         5.9462   -2.1460   -0.9856 H         1 <0>         0.4333
@<TRIPOS>BOND
     1    1    6 ar
     2    1    2 ar
     3    1   20 1
     4    2    3 ar
     5    2   21 1
     6    3    4 ar
     7    3   22 1
     8    4    5 ar
     9    4    7 1
    10    5    6 ar
    11    5   23 1
    12    6   24 1
    13    7    8 1
    14    7   10 1
    15    7    9 1
    16    9   10 1
    17    9   25 1
    18    9   26 1
    19   10   11 1
    20   10   12 1
    21   12   13 1
    22   12   27 1
    23   12   36 1
    24   13   14 1
    25   13   28 1
    26   13   29 1
    27   14   15 2
    28   14   16 am
    29   16   17 1
    30   16   30 1
    31   17   19 1
    32   17   18 1
    33   17   31 1
    34   18   19 1
    35   18   32 1
    36   18   33 1
    37   19   34 1
    38   19   35 1
@<TRIPOS>MOLECULE
ZINC44677167
   36    38     0     0     0
SMALL
USER_CHARGES

@<TRIPOS>ATOM
      1 C1         -0.0167    1.3781    0.0096 C.ar      1 <0>        -0.1013
      2 C2          1.1709    2.0855    0.0021 C.ar      1 <0>        -0.1132
      3 C3          2.3773    1.4107   -0.0130 C.ar      1 <0>        -0.1002
      4 C4          2.3960    0.0285   -0.0201 C.ar      1 <0>        -0.0904
      5 C5          1.2084   -0.6789   -0.0117 C.ar      1 <0>        -0.1136
      6 C6          0.0021   -0.0041    0.0020 C.ar      1 <0>        -0.1133
      7 C7          3.7112   -0.7071   -0.0376 C.3       1 <0>        -0.0689
      8 H1          4.5500   -0.1604   -0.4683 H         1 <0>         0.1398
      9 C8          3.6707   -2.2216   -0.2511 C.3       1 <0>        -0.1475
     10 C9          4.0079   -1.6516    1.1290 C.3       1 <0>        -0.0796
     11 H2          3.2518   -1.7409    1.9091 H         1 <0>         0.1814
     12 N1          5.4015   -1.7526    1.5824 N.4       1 <0>        -0.4652
     13 C10         5.4675   -2.6068    2.7757 C.3       1 <0>        -0.0233
     14 C11         6.8971   -2.7104    3.2409 C.2       1 <0>         0.5017
     15 O1          7.7746   -2.1298    2.6377 O.2       1 <0>        -0.5276
     16 N2          7.2006   -3.4482    4.3271 N.am      1 <0>        -0.6749
     17 C12         8.5904   -3.5489    4.7794 C.3       1 <0>         0.0599
     18 C13         9.1007   -4.9310    5.1919 C.3       1 <0>        -0.1825
     19 C14         8.8314   -3.8658    6.2566 C.3       1 <0>        -0.1785
     20 H3         -0.9591    1.9053    0.0259 H         1 <0>         0.1311
     21 H4          1.1563    3.1654    0.0076 H         1 <0>         0.1315
     22 H5          3.3051    1.9634   -0.0196 H         1 <0>         0.1266
     23 H6          1.2231   -1.7588   -0.0176 H         1 <0>         0.1250
     24 H7         -0.9258   -0.5567    0.0082 H         1 <0>         0.1307
     25 H8          2.6928   -2.6859   -0.3790 H         1 <0>         0.1388
     26 H9          4.4831   -2.6713   -0.8220 H         1 <0>         0.1291
     27 H10         5.9655   -2.1552    0.8490 H         1 <0>         0.4334
     28 H11         4.8582   -2.1719    3.5680 H         1 <0>         0.1627
     29 H12         5.0917   -3.6006    2.5324 H         1 <0>         0.1634
     30 H13         6.4987   -3.9126    4.8095 H         1 <0>         0.4120
     31 H14         9.2947   -2.8783    4.2871 H         1 <0>         0.1457
     32 H15         8.4023   -5.7654    5.1268 H         1 <0>         0.1025
     33 H16        10.1409   -5.1701    4.9709 H         1 <0>         0.1118
     34 H17         9.6945   -3.4040    6.7361 H         1 <0>         0.1132
     35 H18         7.9559   -3.9994    6.8921 H         1 <0>         0.1034
     36 H19         5.7493   -0.8326    1.8077 H         1 <0>         0.4366
@<TRIPOS>BOND
     1    1    6 ar
     2    1    2 ar
     3    1   20 1
     4    2    3 ar
     5    2   21 1
     6    3    4 ar
     7    3   22 1
     8    4    5 ar
     9    4    7 1
    10    5    6 ar
    11    5   23 1
    12    6   24 1
    13    7    8 1
    14    7   10 1
    15    7    9 1
    16    9   10 1
    17    9   25 1
    18    9   26 1
    19   10   11 1
    20   10   12 1
    21   12   13 1
    22   12   27 1
    23   12   36 1
    24   13   14 1
    25   13   28 1
    26   13   29 1
    27   14   15 2
    28   14   16 am
    29   16   17 1
    30   16   30 1
    31   17   19 1
    32   17   18 1
    33   17   31 1
    34   18   19 1
    35   18   32 1
    36   18   33 1
    37   19   34 1
    38   19   35 1
@<TRIPOS>MOLECULE
ZINC44677168
   36    38     0     0     0
SMALL
USER_CHARGES

@<TRIPOS>ATOM
      1 C1         -0.0167    1.3781    0.0096 C.ar      1 <0>        -0.0996
      2 C2          1.1709    2.0855    0.0021 C.ar      1 <0>        -0.1055
      3 C3          2.3773    1.4107   -0.0130 C.ar      1 <0>        -0.0954
      4 C4          2.3960    0.0285   -0.0201 C.ar      1 <0>        -0.1076
      5 C5          1.2084   -0.6789   -0.0117 C.ar      1 <0>        -0.1425
      6 C6          0.0021   -0.0041    0.0020 C.ar      1 <0>        -0.1039
      7 C7          3.7112   -0.7071   -0.0376 C.3       1 <0>        -0.0704
      8 H1          4.5589   -0.1646    0.3809 H         1 <0>         0.1523
      9 C8          3.6750   -2.2237    0.1616 C.3       1 <0>        -0.1487
     10 C9          3.9832   -1.6399   -1.2194 C.3       1 <0>        -0.0768
     11 H2          5.0100   -1.7113   -1.5782 H         1 <0>         0.1866
     12 N1          2.9425   -1.7498   -2.2503 N.4       1 <0>        -0.4665
     13 C10         3.4313   -2.5896   -3.3521 C.3       1 <0>        -0.0247
     14 C11         2.3637   -2.7023   -4.4096 C.2       1 <0>         0.5007
     15 O1          1.3002   -2.1387   -4.2602 O.2       1 <0>        -0.5251
     16 N2          2.5906   -3.4296   -5.5214 N.am      1 <0>        -0.6750
     17 C12         1.5527   -3.5392   -6.5495 C.3       1 <0>         0.0602
     18 C13         1.3024   -4.9213   -7.1561 C.3       1 <0>        -0.1826
     19 C14         2.0043   -3.8400   -7.9801 C.3       1 <0>        -0.1785
     20 H3         -0.9591    1.9053    0.0259 H         1 <0>         0.1340
     21 H4          1.1563    3.1654    0.0076 H         1 <0>         0.1350
     22 H5          3.3051    1.9634   -0.0196 H         1 <0>         0.1327
     23 H6          1.2231   -1.7588   -0.0176 H         1 <0>         0.1197
     24 H7         -0.9258   -0.5567    0.0082 H         1 <0>         0.1332
     25 H8          4.4992   -2.6789    0.7109 H         1 <0>         0.1422
     26 H9          2.7000   -2.6893    0.3053 H         1 <0>         0.1240
     27 H10         2.1157   -2.1676   -1.8503 H         1 <0>         0.4304
     28 H11         4.3245   -2.1383   -3.7842 H         1 <0>         0.1639
     29 H12         3.6731   -3.5823   -2.9726 H         1 <0>         0.1638
     30 H13         3.4411   -3.8804   -5.6409 H         1 <0>         0.4119
     31 H14         0.6924   -2.8823   -6.4209 H         1 <0>         0.1455
     32 H15         1.9100   -5.7490   -6.7903 H         1 <0>         0.1025
     33 H16         0.2772   -5.1741   -7.4266 H         1 <0>         0.1116
     34 H17         1.4409   -3.3813   -8.7926 H         1 <0>         0.1131
     35 H18         3.0736   -3.9562   -8.1563 H         1 <0>         0.1034
     36 H19         2.7187   -0.8308   -2.6016 H         1 <0>         0.4362
@<TRIPOS>BOND
     1    1    6 ar
     2    1    2 ar
     3    1   20 1
     4    2    3 ar
     5    2   21 1
     6    3    4 ar
     7    3   22 1
     8    4    5 ar
     9    4    7 1
    10    5    6 ar
    11    5   23 1
    12    6   24 1
    13    7    8 1
    14    7   10 1
    15    7    9 1
    16    9   10 1
    17    9   25 1
    18    9   26 1
    19   10   11 1
    20   10   12 1
    21   12   13 1
    22   12   27 1
    23   12   36 1
    24   13   14 1
    25   13   28 1
    26   13   29 1
    27   14   15 2
    28   14   16 am
    29   16   17 1
    30   16   30 1
    31   17   19 1
    32   17   18 1
    33   17   31 1
    34   18   19 1
    35   18   32 1
    36   18   33 1
    37   19   34 1
    38   19   35 1
@<TRIPOS>MOLECULE
ZINC37381509
   32    34     0     0     0
SMALL
USER_CHARGES

@<TRIPOS>ATOM
      1 C1         -0.0167    1.3790    0.0096 C.ar      1 <0>        -0.1066
      2 C2          1.1687    2.0919    0.0021 C.ar      1 <0>        -0.1169
      3 C3          2.3774    1.4258   -0.0129 C.ar      1 <0>        -0.1048
      4 C4          2.4022    0.0327   -0.0206 C.ar      1 <0>        -0.0678
      5 C5          1.2051   -0.6804   -0.0130 C.ar      1 <0>        -0.1050
      6 C6          0.0021   -0.0041    0.0020 C.ar      1 <0>        -0.1171
      7 C7          3.6987   -0.6889   -0.0373 C.ar      1 <0>        -0.0148
      8 C8          4.8958    0.0241   -0.0395 C.ar      1 <0>        -0.1100
      9 C9          6.0988   -0.6522   -0.0546 C.ar      1 <0>        -0.0937
     10 C10         6.1176   -2.0352   -0.0680 C.ar      1 <0>        -0.0958
     11 C11         4.9322   -2.7481   -0.0663 C.ar      1 <0>        -0.1066
     12 C12         3.7235   -2.0821   -0.0450 C.ar      1 <0>        -0.1094
     13 C13         7.4343   -2.7680   -0.0849 C.3       1 <0>        -0.0723
     14 H1          8.2732   -2.2176   -0.5106 H         1 <0>         0.1380
     15 C14         7.3976   -4.2816   -0.3054 C.3       1 <0>        -0.1504
     16 C15         7.7295   -3.7172    1.0782 C.3       1 <0>        -0.0778
     17 H2          6.9713   -3.8116    1.8556 H         1 <0>         0.1803
     18 N1          9.1219   -3.8174    1.5353 N.4       1 <0>        -0.6065
     19 H3         -0.9603    1.9042    0.0260 H         1 <0>         0.1283
     20 H4          1.1483    3.1717    0.0077 H         1 <0>         0.1289
     21 H5          3.3023    1.9834   -0.0191 H         1 <0>         0.1257
     22 H6          1.2186   -1.7603   -0.0193 H         1 <0>         0.1254
     23 H7         -0.9264   -0.5558    0.0082 H         1 <0>         0.1288
     24 H8          4.8823    1.1040   -0.0299 H         1 <0>         0.1337
     25 H9          7.0273   -0.1005   -0.0564 H         1 <0>         0.1280
     26 H10         4.9525   -3.8278   -0.0771 H         1 <0>         0.1270
     27 H11         2.7986   -2.6396   -0.0392 H         1 <0>         0.1332
     28 H12         6.4210   -4.7473   -0.4383 H         1 <0>         0.1371
     29 H13         8.2126   -4.7270   -0.8760 H         1 <0>         0.1284
     30 H14         9.4408   -2.9110    1.8433 H         1 <0>         0.4379
     31 H15         9.1783   -4.4719    2.3011 H         1 <0>         0.4414
     32 H16         9.7031   -4.1380    0.7754 H         1 <0>         0.4333
@<TRIPOS>BOND
     1    1    6 ar
     2    1    2 ar
     3    1   19 1
     4    2    3 ar
     5    2   20 1
     6    3    4 ar
     7    3   21 1
     8    4    5 ar
     9    4    7 1
    10    5    6 ar
    11    5   22 1
    12    6   23 1
    13    7   12 ar
    14    7    8 ar
    15    8    9 ar
    16    8   24 1
    17    9   10 ar
    18    9   25 1
    19   10   11 ar
    20   10   13 1
    21   11   12 ar
    22   11   26 1
    23   12   27 1
    24   13   14 1
    25   13   16 1
    26   13   15 1
    27   15   16 1
    28   15   28 1
    29   15   29 1
    30   16   17 1
    31   16   18 1
    32   18   30 1
    33   18   31 1
    34   18   32 1
@<TRIPOS>MOLECULE
ZINC69476340
   63    66     0     0     0
SMALL
USER_CHARGES

@<TRIPOS>ATOM
      1 C1         -0.0167    1.3781    0.0096 C.ar      1 <0>        -0.1097
      2 C2          1.1709    2.0855    0.0021 C.ar      1 <0>        -0.1213
      3 C3          2.3773    1.4107   -0.0130 C.ar      1 <0>        -0.1009
      4 C4          2.3960    0.0285   -0.0201 C.ar      1 <0>        -0.1127
      5 C5          1.2084   -0.6789   -0.0117 C.ar      1 <0>        -0.1007
      6 C6          0.0021   -0.0041    0.0020 C.ar      1 <0>        -0.1206
      7 C7          3.7112   -0.7071   -0.0376 C.3       1 <0>         0.1632
      8 N1          4.1518   -0.9524    1.3379 N.am      1 <0>        -0.7264
      9 C8          5.3108   -1.6005    1.5688 C.2       1 <0>         0.4997
     10 O1          5.9889   -1.9806    0.6379 O.2       1 <0>        -0.4955
     11 C9          5.7640   -1.8528    2.9837 C.3       1 <0>         0.1440
     12 H1          4.9059   -2.1291    3.5963 H         1 <0>         0.1138
     13 C10         6.4057   -0.5835    3.5477 C.3       1 <0>        -0.1359
     14 C11         6.7529   -0.7993    5.0221 C.3       1 <0>         0.0644
     15 O2          7.3522    0.3862    5.5488 O.3       1 <0>        -0.3044
     16 C12         7.7228    0.3616    6.8561 C.ar      1 <0>         0.1528
     17 C13         7.5191   -0.7821    7.6148 C.ar      1 <0>        -0.1967
     18 C14         7.8971   -0.8046    8.9431 C.ar      1 <0>        -0.0616
     19 C15         8.4781    0.3114    9.5169 C.ar      1 <0>        -0.1914
     20 C16         8.6817    1.4523    8.7632 C.ar      1 <0>        -0.0601
     21 C17         8.3106    1.4780    7.4326 C.ar      1 <0>        -0.1328
     22 C18         9.3146    2.6669    9.3919 C.3       1 <0>        -0.0794
     23 H2          9.8322    3.3362    8.7046 H         1 <0>         0.1519
     24 C19         9.8949    2.5127   10.7991 C.3       1 <0>        -0.1481
     25 C20         8.5981    3.2980   10.5874 C.3       1 <0>        -0.0693
     26 H3          8.6447    4.3825   10.6869 H         1 <0>         0.1868
     27 N2          7.3459    2.6736   11.0346 N.4       1 <0>        -0.6079
     28 N3          6.7436   -2.9420    2.9958 N.am      1 <0>        -0.7254
     29 C21         7.8930   -2.8224    2.3021 C.2       1 <0>         0.5670
     30 O3          8.1168   -1.8107    1.6665 O.2       1 <0>        -0.4982
     31 C22         8.8816   -3.9216    2.3143 C.ar      1 <0>        -0.1359
     32 C23         8.6251   -5.0870    3.0384 C.ar      1 <0>        -0.0906
     33 C24         9.5516   -6.1091    3.0452 C.ar      1 <0>        -0.1274
     34 C25        10.7331   -5.9807    2.3367 C.ar      1 <0>        -0.0918
     35 C26        10.9937   -4.8280    1.6172 C.ar      1 <0>        -0.1252
     36 C27        10.0729   -3.8009    1.5970 C.ar      1 <0>        -0.0580
     37 H4         -0.9591    1.9053    0.0259 H         1 <0>         0.1250
     38 H5          1.1563    3.1654    0.0076 H         1 <0>         0.1251
     39 H6          3.3051    1.9634   -0.0196 H         1 <0>         0.1237
     40 H7          1.2231   -1.7588   -0.0176 H         1 <0>         0.1239
     41 H8         -0.9258   -0.5567    0.0082 H         1 <0>         0.1257
     42 H9          3.5884   -1.6586   -0.5549 H         1 <0>         0.0775
     43 H10         4.4573   -0.1052   -0.5563 H         1 <0>         0.0782
     44 H11         3.6095   -0.6484    2.0824 H         1 <0>         0.3993
     45 H12         7.3143   -0.3570    2.9898 H         1 <0>         0.1095
     46 H13         5.7069    0.2481    3.4569 H         1 <0>         0.0904
     47 H14         5.8442   -1.0258    5.5799 H         1 <0>         0.0678
     48 H15         7.4517   -1.6309    5.1128 H         1 <0>         0.0699
     49 H16         7.0651   -1.6538    7.1672 H         1 <0>         0.1371
     50 H17         7.7385   -1.6945    9.5342 H         1 <0>         0.1360
     51 H18         8.7730    0.2918   10.5557 H         1 <0>         0.1238
     52 H19         8.4739    2.3680    6.8430 H         1 <0>         0.1410
     53 H20         9.8189    1.5327   11.2703 H         1 <0>         0.1252
     54 H21        10.7940    3.0808   11.0378 H         1 <0>         0.1410
     55 H22         7.5244    1.7180   11.3048 H         1 <0>         0.4304
     56 H23         6.9791    3.1835   11.8243 H         1 <0>         0.4410
     57 H24         6.5651   -3.7493    3.5030 H         1 <0>         0.4050
     58 H25         7.7036   -5.1881    3.5925 H         1 <0>         0.1225
     59 H26         9.3544   -7.0113    3.6051 H         1 <0>         0.1297
     60 H27        11.4553   -6.7837    2.3456 H         1 <0>         0.1295
     61 H28        11.9180   -4.7340    1.0665 H         1 <0>         0.1321
     62 H29        10.2753   -2.9036    1.0310 H         1 <0>         0.1364
     63 H30         6.6742    2.6905   10.2819 H         1 <0>         0.4377
@<TRIPOS>BOND
     1    1    6 ar
     2    1    2 ar
     3    1   37 1
     4    2    3 ar
     5    2   38 1
     6    3    4 ar
     7    3   39 1
     8    4    5 ar
     9    4    7 1
    10    5    6 ar
    11    5   40 1
    12    6   41 1
    13    7    8 1
    14    7   42 1
    15    7   43 1
    16    8    9 am
    17    8   44 1
    18    9   10 2
    19    9   11 1
    20   11   12 1
    21   11   13 1
    22   11   28 1
    23   13   14 1
    24   13   45 1
    25   13   46 1
    26   14   15 1
    27   14   47 1
    28   14   48 1
    29   15   16 1
    30   16   21 ar
    31   16   17 ar
    32   17   18 ar
    33   17   49 1
    34   18   19 ar
    35   18   50 1
    36   19   20 ar
    37   19   51 1
    38   20   21 ar
    39   20   22 1
    40   21   52 1
    41   22   23 1
    42   22   25 1
    43   22   24 1
    44   24   25 1
    45   24   53 1
    46   24   54 1
    47   25   26 1
    48   25   27 1
    49   27   55 1
    50   27   56 1
    51   27   63 1
    52   28   29 am
    53   28   57 1
    54   29   30 2
    55   29   31 1
    56   31   36 ar
    57   31   32 ar
    58   32   33 ar
    59   32   58 1
    60   33   34 ar
    61   33   59 1
    62   34   35 ar
    63   34   60 1
    64   35   36 ar
    65   35   61 1
    66   36   62 1
@<TRIPOS>MOLECULE
ZINC69476342
   63    66     0     0     0
SMALL
USER_CHARGES

@<TRIPOS>ATOM
      1 C1         -0.0167    1.3781    0.0096 C.ar      1 <0>        -0.1096
      2 C2          1.1709    2.0855    0.0021 C.ar      1 <0>        -0.1212
      3 C3          2.3773    1.4107   -0.0130 C.ar      1 <0>        -0.1009
      4 C4          2.3960    0.0285   -0.0201 C.ar      1 <0>        -0.1130
      5 C5          1.2084   -0.6789   -0.0117 C.ar      1 <0>        -0.1006
      6 C6          0.0021   -0.0041    0.0020 C.ar      1 <0>        -0.1205
      7 C7          3.7112   -0.7071   -0.0376 C.3       1 <0>         0.1637
      8 N1          4.1518   -0.9524    1.3379 N.am      1 <0>        -0.7264
      9 C8          5.3108   -1.6005    1.5688 C.2       1 <0>         0.5006
     10 O1          5.9889   -1.9806    0.6379 O.2       1 <0>        -0.4973
     11 C9          5.7640   -1.8528    2.9837 C.3       1 <0>         0.1431
     12 H1          4.9059   -2.1291    3.5963 H         1 <0>         0.1146
     13 C10         6.4057   -0.5835    3.5477 C.3       1 <0>        -0.1349
     14 C11         6.7529   -0.7993    5.0221 C.3       1 <0>         0.0651
     15 O2          7.3522    0.3862    5.5488 O.3       1 <0>        -0.3081
     16 C12         7.7228    0.3616    6.8561 C.ar      1 <0>         0.1426
     17 C13         7.5191   -0.7821    7.6148 C.ar      1 <0>        -0.1942
     18 C14         7.8971   -0.8046    8.9431 C.ar      1 <0>        -0.0694
     19 C15         8.4781    0.3114    9.5169 C.ar      1 <0>        -0.1542
     20 C16         8.6817    1.4523    8.7632 C.ar      1 <0>        -0.0488
     21 C17         8.3106    1.4780    7.4326 C.ar      1 <0>        -0.1371
     22 C18         9.3146    2.6669    9.3919 C.3       1 <0>        -0.0753
     23 H2          9.0638    3.6209    8.9281 H         1 <0>         0.1400
     24 C19         9.5215    2.6511   10.9077 C.3       1 <0>        -0.1475
     25 C20        10.7228    2.5107    9.9694 C.3       1 <0>        -0.0752
     26 H3         11.1914    1.5294    9.8947 H         1 <0>         0.1815
     27 N2         11.6332    3.6581    9.8570 N.4       1 <0>        -0.6068
     28 N3          6.7436   -2.9420    2.9958 N.am      1 <0>        -0.7243
     29 C21         7.8930   -2.8224    2.3021 C.2       1 <0>         0.5670
     30 O3          8.1168   -1.8107    1.6665 O.2       1 <0>        -0.4995
     31 C22         8.8816   -3.9216    2.3143 C.ar      1 <0>        -0.1349
     32 C23         8.6251   -5.0870    3.0384 C.ar      1 <0>        -0.0901
     33 C24         9.5516   -6.1091    3.0452 C.ar      1 <0>        -0.1271
     34 C25        10.7331   -5.9807    2.3367 C.ar      1 <0>        -0.0926
     35 C26        10.9937   -4.8280    1.6172 C.ar      1 <0>        -0.1260
     36 C27        10.0729   -3.8009    1.5970 C.ar      1 <0>        -0.0587
     37 H4         -0.9591    1.9053    0.0259 H         1 <0>         0.1250
     38 H5          1.1563    3.1654    0.0076 H         1 <0>         0.1251
     39 H6          3.3051    1.9634   -0.0196 H         1 <0>         0.1235
     40 H7          1.2231   -1.7588   -0.0176 H         1 <0>         0.1239
     41 H8         -0.9258   -0.5567    0.0082 H         1 <0>         0.1257
     42 H9          3.5884   -1.6586   -0.5549 H         1 <0>         0.0772
     43 H10         4.4573   -0.1052   -0.5563 H         1 <0>         0.0777
     44 H11         3.6095   -0.6484    2.0824 H         1 <0>         0.4000
     45 H12         7.3143   -0.3570    2.9898 H         1 <0>         0.1080
     46 H13         5.7069    0.2481    3.4569 H         1 <0>         0.0901
     47 H14         5.8442   -1.0258    5.5799 H         1 <0>         0.0674
     48 H15         7.4517   -1.6309    5.1128 H         1 <0>         0.0678
     49 H16         7.0651   -1.6538    7.1672 H         1 <0>         0.1343
     50 H17         7.7385   -1.6945    9.5342 H         1 <0>         0.1336
     51 H18         8.7730    0.2918   10.5557 H         1 <0>         0.1269
     52 H19         8.4739    2.3680    6.8430 H         1 <0>         0.1341
     53 H20         9.4072    3.5947   11.4412 H         1 <0>         0.1292
     54 H21         9.1998    1.7621   11.4503 H         1 <0>         0.1383
     55 H22        11.2349    4.4517   10.3363 H         1 <0>         0.4335
     56 H23        12.5218    3.4245   10.2740 H         1 <0>         0.4418
     57 H24         6.5651   -3.7493    3.5030 H         1 <0>         0.4051
     58 H25         7.7036   -5.1881    3.5925 H         1 <0>         0.1232
     59 H26         9.3544   -7.0113    3.6051 H         1 <0>         0.1298
     60 H27        11.4553   -6.7837    2.3456 H         1 <0>         0.1291
     61 H28        11.9180   -4.7340    1.0665 H         1 <0>         0.1314
     62 H29        10.2753   -2.9036    1.0310 H         1 <0>         0.1360
     63 H30        11.7681    3.8862    8.8834 H         1 <0>         0.4385
@<TRIPOS>BOND
     1    1    6 ar
     2    1    2 ar
     3    1   37 1
     4    2    3 ar
     5    2   38 1
     6    3    4 ar
     7    3   39 1
     8    4    5 ar
     9    4    7 1
    10    5    6 ar
    11    5   40 1
    12    6   41 1
    13    7    8 1
    14    7   42 1
    15    7   43 1
    16    8    9 am
    17    8   44 1
    18    9   10 2
    19    9   11 1
    20   11   12 1
    21   11   13 1
    22   11   28 1
    23   13   14 1
    24   13   45 1
    25   13   46 1
    26   14   15 1
    27   14   47 1
    28   14   48 1
    29   15   16 1
    30   16   21 ar
    31   16   17 ar
    32   17   18 ar
    33   17   49 1
    34   18   19 ar
    35   18   50 1
    36   19   20 ar
    37   19   51 1
    38   20   21 ar
    39   20   22 1
    40   21   52 1
    41   22   23 1
    42   22   25 1
    43   22   24 1
    44   24   25 1
    45   24   53 1
    46   24   54 1
    47   25   26 1
    48   25   27 1
    49   27   55 1
    50   27   56 1
    51   27   63 1
    52   28   29 am
    53   28   57 1
    54   29   30 2
    55   29   31 1
    56   31   36 ar
    57   31   32 ar
    58   32   33 ar
    59   32   58 1
    60   33   34 ar
    61   33   59 1
    62   34   35 ar
    63   34   60 1
    64   35   36 ar
    65   35   61 1
    66   36   62 1
@<TRIPOS>MOLECULE
ZINC69476344
   63    66     0     0     0
SMALL
USER_CHARGES

@<TRIPOS>ATOM
      1 C1         -0.0167    1.3781    0.0096 C.ar      1 <0>        -0.1099
      2 C2          1.1709    2.0855    0.0021 C.ar      1 <0>        -0.1215
      3 C3          2.3773    1.4107   -0.0130 C.ar      1 <0>        -0.1010
      4 C4          2.3960    0.0285   -0.0201 C.ar      1 <0>        -0.1124
      5 C5          1.2084   -0.6789   -0.0117 C.ar      1 <0>        -0.1005
      6 C6          0.0021   -0.0041    0.0020 C.ar      1 <0>        -0.1205
      7 C7          3.7112   -0.7071   -0.0376 C.3       1 <0>         0.1634
      8 N1          4.1518   -0.9524    1.3379 N.am      1 <0>        -0.7267
      9 C8          5.3108   -1.6005    1.5688 C.2       1 <0>         0.5004
     10 O1          5.9889   -1.9806    0.6379 O.2       1 <0>        -0.4964
     11 C9          5.7640   -1.8528    2.9837 C.3       1 <0>         0.1436
     12 H1          4.9059   -2.1291    3.5963 H         1 <0>         0.1141
     13 C10         6.4057   -0.5835    3.5477 C.3       1 <0>        -0.1350
     14 C11         6.7529   -0.7993    5.0221 C.3       1 <0>         0.0652
     15 O2          7.3522    0.3862    5.5488 O.3       1 <0>        -0.3081
     16 C12         7.7228    0.3616    6.8561 C.ar      1 <0>         0.1425
     17 C13         7.5191   -0.7821    7.6148 C.ar      1 <0>        -0.1941
     18 C14         7.8971   -0.8046    8.9431 C.ar      1 <0>        -0.0695
     19 C15         8.4781    0.3114    9.5169 C.ar      1 <0>        -0.1542
     20 C16         8.6817    1.4523    8.7632 C.ar      1 <0>        -0.0489
     21 C17         8.3106    1.4780    7.4326 C.ar      1 <0>        -0.1370
     22 C18         9.3146    2.6669    9.3919 C.3       1 <0>        -0.0753
     23 H2          9.8322    3.3362    8.7046 H         1 <0>         0.1400
     24 C19         9.8949    2.5127   10.7991 C.3       1 <0>        -0.1477
     25 C20         8.5981    3.2980   10.5874 C.3       1 <0>        -0.0750
     26 H3          7.6690    2.8347   10.9192 H         1 <0>         0.1814
     27 N2          8.6608    4.7595   10.7215 N.4       1 <0>        -0.6068
     28 N3          6.7436   -2.9420    2.9958 N.am      1 <0>        -0.7247
     29 C21         7.8930   -2.8224    2.3021 C.2       1 <0>         0.5673
     30 O3          8.1168   -1.8107    1.6665 O.2       1 <0>        -0.4992
     31 C22         8.8816   -3.9216    2.3143 C.ar      1 <0>        -0.1354
     32 C23         8.6251   -5.0870    3.0384 C.ar      1 <0>        -0.0902
     33 C24         9.5516   -6.1091    3.0452 C.ar      1 <0>        -0.1273
     34 C25        10.7331   -5.9807    2.3367 C.ar      1 <0>        -0.0922
     35 C26        10.9937   -4.8280    1.6172 C.ar      1 <0>        -0.1257
     36 C27        10.0729   -3.8009    1.5970 C.ar      1 <0>        -0.0583
     37 H4         -0.9591    1.9053    0.0259 H         1 <0>         0.1248
     38 H5          1.1563    3.1654    0.0076 H         1 <0>         0.1248
     39 H6          3.3051    1.9634   -0.0196 H         1 <0>         0.1235
     40 H7          1.2231   -1.7588   -0.0176 H         1 <0>         0.1240
     41 H8         -0.9258   -0.5567    0.0082 H         1 <0>         0.1257
     42 H9          3.5884   -1.6586   -0.5549 H         1 <0>         0.0773
     43 H10         4.4573   -0.1052   -0.5563 H         1 <0>         0.0779
     44 H11         3.6095   -0.6484    2.0824 H         1 <0>         0.3996
     45 H12         7.3143   -0.3570    2.9898 H         1 <0>         0.1085
     46 H13         5.7069    0.2481    3.4569 H         1 <0>         0.0894
     47 H14         5.8442   -1.0258    5.5799 H         1 <0>         0.0667
     48 H15         7.4517   -1.6309    5.1128 H         1 <0>         0.0684
     49 H16         7.0651   -1.6538    7.1672 H         1 <0>         0.1343
     50 H17         7.7385   -1.6945    9.5342 H         1 <0>         0.1336
     51 H18         8.7730    0.2918   10.5557 H         1 <0>         0.1269
     52 H19         8.4739    2.3680    6.8430 H         1 <0>         0.1341
     53 H20         9.8189    1.5327   11.2703 H         1 <0>         0.1384
     54 H21        10.7940    3.0808   11.0378 H         1 <0>         0.1292
     55 H22         8.2498    5.1900    9.9067 H         1 <0>         0.4383
     56 H23         8.1518    5.0439   11.5450 H         1 <0>         0.4417
     57 H24         6.5651   -3.7493    3.5030 H         1 <0>         0.4051
     58 H25         7.7036   -5.1881    3.5925 H         1 <0>         0.1229
     59 H26         9.3544   -7.0113    3.6051 H         1 <0>         0.1297
     60 H27        11.4553   -6.7837    2.3456 H         1 <0>         0.1292
     61 H28        11.9180   -4.7340    1.0665 H         1 <0>         0.1316
     62 H29        10.2753   -2.9036    1.0310 H         1 <0>         0.1362
     63 H30         9.6239    5.0486   10.8049 H         1 <0>         0.4337
@<TRIPOS>BOND
     1    1    6 ar
     2    1    2 ar
     3    1   37 1
     4    2    3 ar
     5    2   38 1
     6    3    4 ar
     7    3   39 1
     8    4    5 ar
     9    4    7 1
    10    5    6 ar
    11    5   40 1
    12    6   41 1
    13    7    8 1
    14    7   42 1
    15    7   43 1
    16    8    9 am
    17    8   44 1
    18    9   10 2
    19    9   11 1
    20   11   12 1
    21   11   13 1
    22   11   28 1
    23   13   14 1
    24   13   45 1
    25   13   46 1
    26   14   15 1
    27   14   47 1
    28   14   48 1
    29   15   16 1
    30   16   21 ar
    31   16   17 ar
    32   17   18 ar
    33   17   49 1
    34   18   19 ar
    35   18   50 1
    36   19   20 ar
    37   19   51 1
    38   20   21 ar
    39   20   22 1
    40   21   52 1
    41   22   23 1
    42   22   25 1
    43   22   24 1
    44   24   25 1
    45   24   53 1
    46   24   54 1
    47   25   26 1
    48   25   27 1
    49   27   55 1
    50   27   56 1
    51   27   63 1
    52   28   29 am
    53   28   57 1
    54   29   30 2
    55   29   31 1
    56   31   36 ar
    57   31   32 ar
    58   32   33 ar
    59   32   58 1
    60   33   34 ar
    61   33   59 1
    62   34   35 ar
    63   34   60 1
    64   35   36 ar
    65   35   61 1
    66   36   62 1
@<TRIPOS>MOLECULE
ZINC69476347
   63    66     0     0     0
SMALL
USER_CHARGES

@<TRIPOS>ATOM
      1 C1         -0.0167    1.3781    0.0096 C.ar      1 <0>        -0.1092
      2 C2          1.1709    2.0855    0.0021 C.ar      1 <0>        -0.1210
      3 C3          2.3773    1.4107   -0.0130 C.ar      1 <0>        -0.1008
      4 C4          2.3960    0.0285   -0.0201 C.ar      1 <0>        -0.1135
      5 C5          1.2084   -0.6789   -0.0117 C.ar      1 <0>        -0.1007
      6 C6          0.0021   -0.0041    0.0020 C.ar      1 <0>        -0.1205
      7 C7          3.7112   -0.7071   -0.0376 C.3       1 <0>         0.1637
      8 N1          4.1518   -0.9524    1.3379 N.am      1 <0>        -0.7260
      9 C8          5.3108   -1.6005    1.5688 C.2       1 <0>         0.5003
     10 O1          5.9889   -1.9806    0.6379 O.2       1 <0>        -0.4971
     11 C9          5.7640   -1.8528    2.9837 C.3       1 <0>         0.1432
     12 H1          4.9059   -2.1291    3.5963 H         1 <0>         0.1147
     13 C10         6.4057   -0.5835    3.5477 C.3       1 <0>        -0.1357
     14 C11         6.7529   -0.7993    5.0221 C.3       1 <0>         0.0644
     15 O2          7.3522    0.3862    5.5488 O.3       1 <0>        -0.3044
     16 C12         7.7228    0.3616    6.8561 C.ar      1 <0>         0.1532
     17 C13         7.5191   -0.7821    7.6148 C.ar      1 <0>        -0.1969
     18 C14         7.8971   -0.8046    8.9431 C.ar      1 <0>        -0.0613
     19 C15         8.4781    0.3114    9.5169 C.ar      1 <0>        -0.1917
     20 C16         8.6817    1.4523    8.7632 C.ar      1 <0>        -0.0597
     21 C17         8.3106    1.4780    7.4326 C.ar      1 <0>        -0.1334
     22 C18         9.3146    2.6669    9.3919 C.3       1 <0>        -0.0795
     23 H2          9.0638    3.6209    8.9281 H         1 <0>         0.1518
     24 C19         9.5215    2.6511   10.9077 C.3       1 <0>        -0.1479
     25 C20        10.7228    2.5107    9.9694 C.3       1 <0>        -0.0693
     26 H3         11.3983    3.3621    9.8860 H         1 <0>         0.1868
     27 N2         11.3543    1.1882    9.8687 N.4       1 <0>        -0.6081
     28 N3          6.7436   -2.9420    2.9958 N.am      1 <0>        -0.7247
     29 C21         7.8930   -2.8224    2.3021 C.2       1 <0>         0.5663
     30 O3          8.1168   -1.8107    1.6665 O.2       1 <0>        -0.4984
     31 C22         8.8816   -3.9216    2.3143 C.ar      1 <0>        -0.1351
     32 C23         8.6251   -5.0870    3.0384 C.ar      1 <0>        -0.0906
     33 C24         9.5516   -6.1091    3.0452 C.ar      1 <0>        -0.1273
     34 C25        10.7331   -5.9807    2.3367 C.ar      1 <0>        -0.0925
     35 C26        10.9937   -4.8280    1.6172 C.ar      1 <0>        -0.1257
     36 C27        10.0729   -3.8009    1.5970 C.ar      1 <0>        -0.0586
     37 H4         -0.9591    1.9053    0.0259 H         1 <0>         0.1252
     38 H5          1.1563    3.1654    0.0076 H         1 <0>         0.1254
     39 H6          3.3051    1.9634   -0.0196 H         1 <0>         0.1236
     40 H7          1.2231   -1.7588   -0.0176 H         1 <0>         0.1237
     41 H8         -0.9258   -0.5567    0.0082 H         1 <0>         0.1258
     42 H9          3.5884   -1.6586   -0.5549 H         1 <0>         0.0773
     43 H10         4.4573   -0.1052   -0.5563 H         1 <0>         0.0780
     44 H11         3.6095   -0.6484    2.0824 H         1 <0>         0.4000
     45 H12         7.3143   -0.3570    2.9898 H         1 <0>         0.1088
     46 H13         5.7069    0.2481    3.4569 H         1 <0>         0.0913
     47 H14         5.8442   -1.0258    5.5799 H         1 <0>         0.0688
     48 H15         7.4517   -1.6309    5.1128 H         1 <0>         0.0689
     49 H16         7.0651   -1.6538    7.1672 H         1 <0>         0.1371
     50 H17         7.7385   -1.6945    9.5342 H         1 <0>         0.1360
     51 H18         8.7730    0.2918   10.5557 H         1 <0>         0.1238
     52 H19         8.4739    2.3680    6.8430 H         1 <0>         0.1410
     53 H20         9.4072    3.5947   11.4412 H         1 <0>         0.1410
     54 H21         9.1998    1.7621   11.4503 H         1 <0>         0.1252
     55 H22        11.4340    0.9266    8.8975 H         1 <0>         0.4380
     56 H23        12.2731    1.2217   10.2845 H         1 <0>         0.4411
     57 H24         6.5651   -3.7493    3.5030 H         1 <0>         0.4049
     58 H25         7.7036   -5.1881    3.5925 H         1 <0>         0.1230
     59 H26         9.3544   -7.0113    3.6051 H         1 <0>         0.1298
     60 H27        11.4553   -6.7837    2.3456 H         1 <0>         0.1293
     61 H28        11.9180   -4.7340    1.0665 H         1 <0>         0.1317
     62 H29        10.2753   -2.9036    1.0310 H         1 <0>         0.1363
     63 H30        10.7897    0.5080   10.3551 H         1 <0>         0.4303
@<TRIPOS>BOND
     1    1    6 ar
     2    1    2 ar
     3    1   37 1
     4    2    3 ar
     5    2   38 1
     6    3    4 ar
     7    3   39 1
     8    4    5 ar
     9    4    7 1
    10    5    6 ar
    11    5   40 1
    12    6   41 1
    13    7    8 1
    14    7   42 1
    15    7   43 1
    16    8    9 am
    17    8   44 1
    18    9   10 2
    19    9   11 1
    20   11   12 1
    21   11   13 1
    22   11   28 1
    23   13   14 1
    24   13   45 1
    25   13   46 1
    26   14   15 1
    27   14   47 1
    28   14   48 1
    29   15   16 1
    30   16   21 ar
    31   16   17 ar
    32   17   18 ar
    33   17   49 1
    34   18   19 ar
    35   18   50 1
    36   19   20 ar
    37   19   51 1
    38   20   21 ar
    39   20   22 1
    40   21   52 1
    41   22   23 1
    42   22   25 1
    43   22   24 1
    44   24   25 1
    45   24   53 1
    46   24   54 1
    47   25   26 1
    48   25   27 1
    49   27   55 1
    50   27   56 1
    51   27   63 1
    52   28   29 am
    53   28   57 1
    54   29   30 2
    55   29   31 1
    56   31   36 ar
    57   31   32 ar
    58   32   33 ar
    59   32   58 1
    60   33   34 ar
    61   33   59 1
    62   34   35 ar
    63   34   60 1
    64   35   36 ar
    65   35   61 1
    66   36   62 1
