@<TRIPOS>MOLECULE
ZINC03814434
   62    69     0     0     0
SMALL
USER_CHARGES

@<TRIPOS>ATOM
      1 C1         -0.1295    1.5952   -0.2973 C.3       1 <0>        -0.1687
      2 C2         -0.0862    0.0696   -0.1900 C.3       1 <0>         0.3342
      3 C3          0.5692   -0.4501   -1.4637 C.3       1 <0>         0.0405
      4 H1          1.4796    0.1159   -1.6612 H         1 <0>         0.1372
      5 C4          0.9167   -1.9328   -1.2889 C.3       1 <0>        -0.0061
      6 H2          1.3963   -2.3075   -2.1932 H         1 <0>         0.1555
      7 C5          1.8785   -2.0596   -0.1021 C.3       1 <0>        -0.1827
      8 C6          1.2061   -1.5198    1.1541 C.3       1 <0>         0.2999
      9 H3          1.9797   -1.4243    1.9161 H         1 <0>         0.1550
     10 O1          0.6555   -0.2442    0.9666 O.3       1 <0>        -0.3234
     11 N1          0.2189   -2.4746    1.6600 N.pl3     1 <0>        -0.5366
     12 C7          0.4705   -3.5508    2.4739 C.ar      1 <0>         0.1469
     13 C8          1.6649   -4.0152    3.0240 C.ar      1 <0>        -0.1522
     14 C9          1.5948   -5.1456    3.8201 C.ar      1 <0>        -0.0582
     15 C10         0.4006   -5.7997    4.0696 C.ar      1 <0>        -0.1457
     16 C11        -0.7984   -5.3597    3.5358 C.ar      1 <0>        -0.0280
     17 C12        -0.7487   -4.2198    2.7307 C.ar      1 <0>        -0.1131
     18 C13        -1.7893   -3.4830    2.0197 C.ar      1 <0>         0.0276
     19 C14        -1.1442   -2.4197    1.3841 C.ar      1 <0>         0.0376
     20 C15        -1.8806   -1.5095    0.6175 C.ar      1 <0>         0.0894
     21 N2         -1.4718   -0.3951   -0.1095 N.pl3     1 <0>        -0.5183
     22 C16        -2.5611    0.1913   -0.7090 C.ar      1 <0>         0.1618
     23 C17        -2.6521    1.3277   -1.5118 C.ar      1 <0>        -0.1305
     24 C18        -3.9109    1.6745   -1.9733 C.ar      1 <0>        -0.0737
     25 C19        -5.0393    0.9368   -1.6616 C.ar      1 <0>        -0.1358
     26 C20        -4.9745   -0.1955   -0.8662 C.ar      1 <0>        -0.0503
     27 C21        -3.7147   -0.5596   -0.3919 C.ar      1 <0>        -0.1042
     28 C22        -3.2693   -1.6660    0.4845 C.ar      1 <0>        -0.0360
     29 C23        -3.9084   -2.7313    1.1102 C.ar      1 <0>        -0.0288
     30 C24        -3.1873   -3.6421    1.8754 C.ar      1 <0>        -0.1255
     31 C25        -4.1221   -4.6480    2.4030 C.2       1 <0>         0.5632
     32 O2         -3.8062   -5.5851    3.1110 O.2       1 <0>        -0.5106
     33 N3         -5.3744   -4.3851    1.9926 N.am      1 <0>        -0.7162
     34 C26        -5.3495   -3.1771    1.1601 C.3       1 <0>         0.1358
     35 N4         -0.3067   -2.7008   -1.0216 N.4       1 <0>        -0.5252
     36 C27         0.0145   -4.1336   -0.9773 C.3       1 <0>        -0.0497
     37 O3         -0.3340   -0.2979   -2.5607 O.3       1 <0>        -0.3614
     38 C28         0.3101   -0.0933   -3.8198 C.3       1 <0>         0.0162
     39 H4          0.8261    2.0094    0.0240 H         1 <0>         0.0984
     40 H5         -0.3202    1.8814   -1.3317 H         1 <0>         0.1036
     41 H6         -0.9255    1.9818    0.3392 H         1 <0>         0.0921
     42 H7          2.1370   -3.1081    0.0458 H         1 <0>         0.1233
     43 H8          2.7835   -1.4869   -0.3048 H         1 <0>         0.1455
     44 H9          2.6036   -3.5149    2.8368 H         1 <0>         0.1365
     45 H10         2.5026   -5.5304    4.2610 H         1 <0>         0.1359
     46 H11         0.4045   -6.6780    4.6980 H         1 <0>         0.1352
     47 H12        -1.7278   -5.8736    3.7323 H         1 <0>         0.1600
     48 H13        -1.7792    1.9122   -1.7624 H         1 <0>         0.1440
     49 H14        -4.0153    2.5500   -2.5970 H         1 <0>         0.1336
     50 H15        -5.9967    1.2527   -2.0488 H         1 <0>         0.1332
     51 H16        -5.8575   -0.7687   -0.6249 H         1 <0>         0.1415
     52 H17        -6.1628   -4.9065    2.2103 H         1 <0>         0.4348
     53 H18        -5.9671   -2.3994    1.6094 H         1 <0>         0.1115
     54 H19        -5.7060   -3.4063    0.1559 H         1 <0>         0.1103
     55 H20        -0.6958   -2.4158   -0.1353 H         1 <0>         0.4186
     56 H21         0.4349   -4.4415   -1.9347 H         1 <0>         0.1256
     57 H22         0.7403   -4.3189   -0.1854 H         1 <0>         0.1191
     58 H23        -0.8932   -4.7035   -0.7789 H         1 <0>         0.1256
     59 H24         0.9168    0.8112   -3.7748 H         1 <0>         0.0633
     60 H25         0.9482   -0.9479   -4.0446 H         1 <0>         0.0514
     61 H26        -0.4433    0.0130   -4.6003 H         1 <0>         0.1100
     62 H27        -0.9785   -2.5293   -1.7546 H         1 <0>         0.4274
@<TRIPOS>BOND
     1    1    2 1
     2    1   39 1
     3    1   40 1
     4    1   41 1
     5    2   10 1
     6    2   21 1
     7    2    3 1
     8    3    4 1
     9    3    5 1
    10    3   37 1
    11    5    6 1
    12    5    7 1
    13    5   35 1
    14    7    8 1
    15    7   42 1
    16    7   43 1
    17    8    9 1
    18    8   10 1
    19    8   11 1
    20   11   19 1
    21   11   12 1
    22   12   17 ar
    23   12   13 ar
    24   13   14 ar
    25   13   44 1
    26   14   15 ar
    27   14   45 1
    28   15   16 ar
    29   15   46 1
    30   16   17 ar
    31   16   47 1
    32   17   18 1
    33   18   30 ar
    34   18   19 ar
    35   19   20 ar
    36   20   28 ar
    37   20   21 1
    38   21   22 1
    39   22   27 ar
    40   22   23 ar
    41   23   24 ar
    42   23   48 1
    43   24   25 ar
    44   24   49 1
    45   25   26 ar
    46   25   50 1
    47   26   27 ar
    48   26   51 1
    49   27   28 1
    50   28   29 ar
    51   29   34 1
    52   29   30 ar
    53   30   31 1
    54   31   32 2
    55   31   33 am
    56   33   34 1
    57   33   52 1
    58   34   53 1
    59   34   54 1
    60   35   36 1
    61   35   55 1
    62   35   62 1
    63   36   56 1
    64   36   57 1
    65   36   58 1
    66   37   38 1
    67   38   59 1
    68   38   60 1
    69   38   61 1
@<TRIPOS>MOLECULE
ZINC02560264
   37    42     0     0     0
SMALL
USER_CHARGES

@<TRIPOS>ATOM
      1 C1         -0.0166    1.3740    0.0096 C.ar      1 <0>        -0.1440
      2 C2          1.1716    2.0886    0.0021 C.ar      1 <0>        -0.0817
      3 C3          2.3839    1.4333   -0.0130 C.ar      1 <0>        -0.1381
      4 C4          2.4234    0.0421   -0.0208 C.ar      1 <0>         0.1368
      5 C5          1.2204   -0.6789   -0.0132 C.ar      1 <0>        -0.0962
      6 C6          0.0021   -0.0041    0.0020 C.ar      1 <0>        -0.0609
      7 C7          1.5891   -2.1077   -0.0244 C.ar      1 <0>        -0.0649
      8 C8          0.8454   -3.2819   -0.0236 C.ar      1 <0>        -0.0450
      9 C9          1.4816   -4.5185   -0.0365 C.ar      1 <0>        -0.1358
     10 C10         2.8940   -4.5714   -0.0501 C.ar      1 <0>        -0.0059
     11 C11         3.8569   -5.6841   -0.0662 C.ar      1 <0>        -0.1090
     12 C12         3.7202   -7.0720   -0.0736 C.ar      1 <0>        -0.0448
     13 C13         4.8431   -7.8694   -0.0897 C.ar      1 <0>        -0.1554
     14 C14         6.1070   -7.2977   -0.0979 C.ar      1 <0>        -0.0739
     15 C15         6.2575   -5.9282   -0.0907 C.ar      1 <0>        -0.1504
     16 C16         5.1356   -5.1043   -0.0750 C.ar      1 <0>         0.1441
     17 N1          4.9880   -3.7311   -0.0653 N.pl3     1 <0>        -0.6105
     18 H1          5.7195   -3.0941   -0.0687 H         1 <0>         0.4165
     19 C17         3.6443   -3.3949   -0.0504 C.ar      1 <0>         0.1138
     20 C18         2.9910   -2.1538   -0.0381 C.ar      1 <0>         0.1603
     21 N2          3.4713   -0.8601   -0.0356 N.pl3     1 <0>        -0.6071
     22 H2          4.4105   -0.6179   -0.0435 H         1 <0>         0.4182
     23 C19         0.4534   -5.5701   -0.0322 C.2       1 <0>         0.5671
     24 O1          0.6821   -6.7645   -0.0405 O.2       1 <0>        -0.5235
     25 N3         -0.7748   -5.0244   -0.0172 N.am      1 <0>        -0.7239
     26 C20        -0.6370   -3.5635   -0.0107 C.3       1 <0>         0.1438
     27 H3         -0.9602    1.8992    0.0259 H         1 <0>         0.1299
     28 H4          1.1469    3.1683    0.0077 H         1 <0>         0.1312
     29 H5          3.3035    1.9995   -0.0190 H         1 <0>         0.1253
     30 H6         -0.9246   -0.5587    0.0075 H         1 <0>         0.1280
     31 H7          2.7375   -7.5198   -0.0665 H         1 <0>         0.1456
     32 H8          4.7391   -8.9443   -0.0955 H         1 <0>         0.1286
     33 H9          6.9811   -7.9319   -0.1098 H         1 <0>         0.1300
     34 H10         7.2462   -5.4938   -0.0972 H         1 <0>         0.1240
     35 H11        -1.6120   -5.5143   -0.0117 H         1 <0>         0.4271
     36 H12        -1.0897   -3.1483    0.8897 H         1 <0>         0.1004
     37 H13        -1.1071   -3.1386   -0.8976 H         1 <0>         0.1004
@<TRIPOS>BOND
     1    1    6 ar
     2    1    2 ar
     3    1   27 1
     4    2    3 ar
     5    2   28 1
     6    3    4 ar
     7    3   29 1
     8    4   21 1
     9    4    5 ar
    10    5    6 ar
    11    5    7 1
    12    6   30 1
    13    7   20 ar
    14    7    8 ar
    15    8   26 1
    16    8    9 ar
    17    9   10 ar
    18    9   23 1
    19   10   19 ar
    20   10   11 1
    21   11   16 ar
    22   11   12 ar
    23   12   13 ar
    24   12   31 1
    25   13   14 ar
    26   13   32 1
    27   14   15 ar
    28   14   33 1
    29   15   16 ar
    30   15   34 1
    31   16   17 1
    32   17   18 1
    33   17   19 1
    34   19   20 ar
    35   20   21 1
    36   21   22 1
    37   23   24 2
    38   23   25 am
    39   25   26 1
    40   25   35 1
    41   26   36 1
    42   26   37 1
@<TRIPOS>MOLECULE
ZINC01554668
   47    52     0     0     0
SMALL
USER_CHARGES

@<TRIPOS>ATOM
      1 C1         -0.2832    1.4683    0.0475 C.3       1 <0>         0.0335
      2 N1         -0.3334    0.0041    0.0468 N.pl3     1 <0>        -0.5008
      3 C2         -0.5714   -0.7779   -1.0665 C.ar      1 <0>         0.1449
      4 C3         -0.8140   -0.4635   -2.4006 C.ar      1 <0>        -0.1504
      5 C4         -1.0221   -1.4689   -3.3192 C.ar      1 <0>        -0.0730
      6 C5         -0.9931   -2.7997   -2.9282 C.ar      1 <0>        -0.1553
      7 C6         -0.7551   -3.1321   -1.6130 C.ar      1 <0>        -0.0437
      8 C7         -0.5418   -2.1252   -0.6721 C.ar      1 <0>        -0.1078
      9 C8         -0.2671   -2.1312    0.7736 C.ar      1 <0>        -0.0040
     10 C9         -0.1431   -0.7961    1.1613 C.ar      1 <0>         0.1149
     11 C10         0.1286   -0.4838    2.5010 C.ar      1 <0>         0.1604
     12 C11         0.2766   -1.5171    3.4386 C.ar      1 <0>        -0.0610
     13 C12         0.5516   -0.8661    4.7341 C.ar      1 <0>        -0.0929
     14 C13         0.7864   -1.3502    6.0188 C.ar      1 <0>        -0.0597
     15 C14         1.0184   -0.4670    7.0511 C.ar      1 <0>        -0.1431
     16 C15         1.0181    0.8993    6.8147 C.ar      1 <0>        -0.0807
     17 C16         0.7867    1.3916    5.5485 C.ar      1 <0>        -0.1379
     18 C17         0.5514    0.5155    4.4929 C.ar      1 <0>         0.1380
     19 N2          0.2962    0.7228    3.1497 N.pl3     1 <0>        -0.4936
     20 C18         0.2152    2.0366    2.5066 C.3       1 <0>         0.0651
     21 C19        -1.2333    2.5288    2.5328 C.3       1 <0>        -0.0543
     22 C20        -1.3368    3.7895    1.7800 C.1       1 <0>         0.1939
     23 N3         -1.4166    4.7625    1.1991 N.1       1 <0>        -0.4012
     24 C21         0.1556   -2.8451    3.0480 C.ar      1 <0>        -0.0459
     25 C22        -0.1218   -3.1674    1.7235 C.ar      1 <0>        -0.1335
     26 C23        -0.1930   -4.6318    1.6069 C.2       1 <0>         0.5670
     27 O1         -0.4091   -5.2361    0.5739 O.2       1 <0>        -0.5231
     28 N4          0.0149   -5.2077    2.8033 N.am      1 <0>        -0.7241
     29 C24         0.2569   -4.1527    3.7942 C.3       1 <0>         0.1441
     30 H1          0.7562    1.7962    0.0589 H         1 <0>         0.0786
     31 H2         -0.7745    1.8491   -0.8479 H         1 <0>         0.0907
     32 H3         -0.7940    1.8489    0.9320 H         1 <0>         0.1054
     33 H4         -0.8395    0.5692   -2.7157 H         1 <0>         0.1218
     34 H5         -1.2099   -1.2189   -4.3529 H         1 <0>         0.1296
     35 H6         -1.1581   -3.5783   -3.6582 H         1 <0>         0.1286
     36 H7         -0.7338   -4.1689   -1.3114 H         1 <0>         0.1459
     37 H8          0.7864   -2.4139    6.2055 H         1 <0>         0.1280
     38 H9          1.2007   -0.8404    8.0480 H         1 <0>         0.1295
     39 H10         1.2005    1.5837    7.6301 H         1 <0>         0.1308
     40 H11         0.7883    2.4576    5.3751 H         1 <0>         0.1245
     41 H12         0.8488    2.7432    3.0426 H         1 <0>         0.1062
     42 H13         0.5532    1.9568    1.4734 H         1 <0>         0.1310
     43 H14        -1.8800    1.7792    2.0768 H         1 <0>         0.1201
     44 H15        -1.5418    2.6955    3.5649 H         1 <0>         0.1260
     45 H16         0.0160   -6.1615    2.9800 H         1 <0>         0.4270
     46 H17         1.2496   -4.2588    4.2316 H         1 <0>         0.1007
     47 H18        -0.5038   -4.1996    4.5734 H         1 <0>         0.0998
@<TRIPOS>BOND
     1    1    2 1
     2    1   30 1
     3    1   31 1
     4    1   32 1
     5    2   10 1
     6    2    3 1
     7    3    8 ar
     8    3    4 ar
     9    4    5 ar
    10    4   33 1
    11    5    6 ar
    12    5   34 1
    13    6    7 ar
    14    6   35 1
    15    7    8 ar
    16    7   36 1
    17    8    9 1
    18    9   25 ar
    19    9   10 ar
    20   10   11 ar
    21   11   19 1
    22   11   12 ar
    23   12   13 1
    24   12   24 ar
    25   13   18 ar
    26   13   14 ar
    27   14   15 ar
    28   14   37 1
    29   15   16 ar
    30   15   38 1
    31   16   17 ar
    32   16   39 1
    33   17   18 ar
    34   17   40 1
    35   18   19 1
    36   19   20 1
    37   20   21 1
    38   20   41 1
    39   20   42 1
    40   21   22 1
    41   21   43 1
    42   21   44 1
    43   22   23 3
    44   24   29 1
    45   24   25 ar
    46   25   26 1
    47   26   27 2
    48   26   28 am
    49   28   29 1
    50   28   45 1
    51   29   46 1
    52   29   47 1
