@<TRIPOS>MOLECULE
ZINC02043204
   48    50     0     0     0
SMALL
USER_CHARGES

@<TRIPOS>ATOM
      1 C1          2.5162    0.9496    1.4171 C.ar      1 <0>        -0.1558
      2 C2          1.8179    1.8754    0.7027 C.ar      1 <0>        -0.0089
      3 C3          0.8924    1.4496   -0.2625 C.ar      1 <0>        -0.1400
      4 C4          0.1441    2.3570   -1.0300 C.ar      1 <0>         0.1716
      5 N1         -0.7096    1.9109   -1.9214 N.ar      1 <0>        -0.4887
      6 C5         -0.9082    0.6184   -2.1416 C.ar      1 <0>         0.1175
      7 C6         -0.2327   -0.3410   -1.4505 C.ar      1 <0>        -0.1972
      8 C7          0.7007    0.0595   -0.4769 C.ar      1 <0>         0.0581
      9 C8          1.4373   -0.8645    0.2774 C.ar      1 <0>        -0.6935
     10 C9          2.3271   -0.4146    1.2059 C.ar      1 <0>         0.0350
     11 S1          1.2137   -2.5943    0.0269 S.o2      1 <0>         2.6977
     12 O1          2.1244   -3.2517    0.8974 O.2       1 <0>        -0.9448
     13 O2         -0.1865   -2.8329    0.0680 O.2       1 <0>        -0.9312
     14 N2          1.7064   -2.9332   -1.5173 N.pl3     1 <0>        -1.1162
     15 C10         3.1062   -2.7326   -1.9002 C.3       1 <0>         0.0916
     16 C11         3.3893   -3.4769   -3.2066 C.3       1 <0>        -0.0177
     17 N3          4.7929   -3.2757   -3.5905 N.4       1 <0>        -0.5066
     18 C12         5.0647   -3.9903   -4.8449 C.3       1 <0>         0.0395
     19 C13         6.5046   -3.7840   -5.2387 C.2       1 <0>        -0.2534
     20 C14         7.2882   -4.8305   -5.4586 C.2       1 <0>        -0.0124
     21 C15         8.7005   -4.6281   -5.8449 C.ar      1 <0>        -0.0865
     22 C16         9.2134   -3.3367   -5.9733 C.ar      1 <0>        -0.0932
     23 C17        10.5324   -3.1541   -6.3336 C.ar      1 <0>        -0.0930
     24 C18        11.3467   -4.2489   -6.5682 C.ar      1 <0>        -0.0711
     25 C19        10.8435   -5.5324   -6.4424 C.ar      1 <0>        -0.0912
     26 C20         9.5277   -5.7277   -6.0770 C.ar      1 <0>        -0.0822
     27 Br1        13.1533   -3.9899   -7.0630 Br        1 <0>        -0.0276
     28 H1          3.2315    1.2784    2.1565 H         1 <0>         0.1450
     29 H2          1.9750    2.9294    0.8779 H         1 <0>         0.1486
     30 H3          0.2706    3.4199   -0.8866 H         1 <0>         0.1731
     31 H4         -1.6264    0.3180   -2.8902 H         1 <0>         0.1633
     32 H5         -0.4102   -1.3883   -1.6456 H         1 <0>         0.1411
     33 H6          2.8949   -1.1263    1.7868 H         1 <0>         0.1512
     34 H7          1.0683   -3.2645   -2.1683 H         1 <0>         0.4272
     35 H8          3.2957   -1.6683   -2.0399 H         1 <0>         0.0890
     36 H9          3.7565   -3.1173   -1.1145 H         1 <0>         0.1050
     37 H10         3.1998   -4.5411   -3.0669 H         1 <0>         0.1445
     38 H11         2.7390   -3.0921   -3.9922 H         1 <0>         0.1424
     39 H12         4.9683   -2.2905   -3.7199 H         1 <0>         0.4308
     40 H13         4.8752   -5.0546   -4.7051 H         1 <0>         0.1348
     41 H14         4.4144   -3.6056   -5.6305 H         1 <0>         0.1403
     42 H15         6.8982   -2.7835   -5.3419 H         1 <0>         0.1396
     43 H16         6.8946   -5.8309   -5.3555 H         1 <0>         0.1348
     44 H17         8.5789   -2.4819   -5.7913 H         1 <0>         0.1337
     45 H18        10.9305   -2.1552   -6.4334 H         1 <0>         0.1407
     46 H19        11.4834   -6.3826   -6.6269 H         1 <0>         0.1428
     47 H20         9.1374   -6.7295   -5.9748 H         1 <0>         0.1397
     48 H21         5.3949   -3.6319   -2.8633 H         1 <0>         0.4327
@<TRIPOS>BOND
     1    1   10 ar
     2    1    2 ar
     3    1   28 1
     4    2    3 ar
     5    2   29 1
     6    3    8 ar
     7    3    4 ar
     8    4    5 ar
     9    4   30 1
    10    5    6 ar
    11    6    7 ar
    12    6   31 1
    13    7    8 ar
    14    7   32 1
    15    8    9 ar
    16    9   10 ar
    17    9   11 1
    18   10   33 1
    19   11   12 2
    20   11   13 2
    21   11   14 1
    22   14   15 1
    23   14   34 1
    24   15   16 1
    25   15   35 1
    26   15   36 1
    27   16   17 1
    28   16   37 1
    29   16   38 1
    30   17   18 1
    31   17   39 1
    32   17   48 1
    33   18   19 1
    34   18   40 1
    35   18   41 1
    36   19   20 2
    37   19   42 1
    38   20   21 1
    39   20   43 1
    40   21   26 ar
    41   21   22 ar
    42   22   23 ar
    43   22   44 1
    44   23   24 ar
    45   23   45 1
    46   24   25 ar
    47   24   27 1
    48   25   26 ar
    49   25   46 1
    50   26   47 1
@<TRIPOS>MOLECULE
ZINC02043206
   34    35     0     0     0
SMALL
USER_CHARGES

@<TRIPOS>ATOM
      1 C1         -0.5130    1.5552   -0.7084 C.3       1 <0>        -0.0468
      2 N1         -0.4140    0.0951   -0.5807 N.4       1 <0>        -0.5074
      3 C2          0.4441   -0.4328   -1.6498 C.3       1 <0>        -0.0188
      4 C3          0.5473   -1.9536   -1.5168 C.3       1 <0>         0.0910
      5 N2          1.4030   -2.4801   -2.5829 N.pl3     1 <0>        -1.1165
      6 S1          2.0071   -4.0183   -2.4762 S.o2      1 <0>         2.6978
      7 O1          2.7594   -4.2422   -3.6608 O.2       1 <0>        -0.9309
      8 O2          2.5736   -4.1430   -1.1790 O.2       1 <0>        -0.9449
      9 C4          0.6350   -5.1221   -2.5348 C.ar      1 <0>        -0.6937
     10 C5          0.3415   -5.9101   -1.4628 C.ar      1 <0>         0.0350
     11 C6         -0.7400   -6.7882   -1.4917 C.ar      1 <0>        -0.1558
     12 C7         -1.5370   -6.8861   -2.5918 C.ar      1 <0>        -0.0088
     13 C8         -1.2657   -6.0902   -3.7153 C.ar      1 <0>        -0.1401
     14 C9         -0.1668   -5.1921   -3.6826 C.ar      1 <0>         0.0580
     15 C10         0.0802   -4.4015   -4.8200 C.ar      1 <0>        -0.1977
     16 C11        -0.7452   -4.5283   -5.8955 C.ar      1 <0>         0.1177
     17 N3         -1.7685   -5.3717   -5.8976 N.ar      1 <0>        -0.4887
     18 C12        -2.0519   -6.1475   -4.8776 C.ar      1 <0>         0.1720
     19 H1          0.4809    1.9953   -0.6272 H         1 <0>         0.1264
     20 H2         -0.9437    1.8067   -1.6776 H         1 <0>         0.1254
     21 H3         -1.1497    1.9469    0.0849 H         1 <0>         0.1304
     22 H4         -0.0153   -0.1378    0.3165 H         1 <0>         0.4346
     23 H5          0.0134   -0.1813   -2.6189 H         1 <0>         0.1415
     24 H6          1.4380    0.0072   -1.5686 H         1 <0>         0.1442
     25 H7          0.9780   -2.2051   -0.5476 H         1 <0>         0.1050
     26 H8         -0.4466   -2.3936   -1.5979 H         1 <0>         0.0885
     27 H9          1.6158   -1.9277   -3.3514 H         1 <0>         0.4271
     28 H10         0.9568   -5.8536   -0.5770 H         1 <0>         0.1513
     29 H11        -0.9495   -7.4015   -0.6278 H         1 <0>         0.1453
     30 H12        -2.3716   -7.5716   -2.5996 H         1 <0>         0.1488
     31 H13         0.9076   -3.7077   -4.8394 H         1 <0>         0.1405
     32 H14        -0.5614   -3.9245   -6.7719 H         1 <0>         0.1634
     33 H15        -2.8959   -6.8195   -4.9271 H         1 <0>         0.1733
     34 H16        -1.3340   -0.3123   -0.6558 H         1 <0>         0.4329
@<TRIPOS>BOND
     1    1    2 1
     2    1   19 1
     3    1   20 1
     4    1   21 1
     5    2    3 1
     6    2   22 1
     7    2   34 1
     8    3    4 1
     9    3   23 1
    10    3   24 1
    11    4    5 1
    12    4   25 1
    13    4   26 1
    14    5    6 1
    15    5   27 1
    16    6    7 2
    17    6    8 2
    18    6    9 1
    19    9   14 ar
    20    9   10 ar
    21   10   11 ar
    22   10   28 1
    23   11   12 ar
    24   11   29 1
    25   12   13 ar
    26   12   30 1
    27   13   18 ar
    28   13   14 ar
    29   14   15 ar
    30   15   16 ar
    31   15   31 1
    32   16   17 ar
    33   16   32 1
    34   17   18 ar
    35   18   33 1
@<TRIPOS>MOLECULE
ZINC03814434
   62    69     0     0     0
SMALL
USER_CHARGES

@<TRIPOS>ATOM
      1 C1         -0.1295    1.5952   -0.2973 C.3       1 <0>        -0.1687
      2 C2         -0.0862    0.0696   -0.1900 C.3       1 <0>         0.3342
      3 C3          0.5692   -0.4501   -1.4637 C.3       1 <0>         0.0405
      4 H1          1.4796    0.1159   -1.6612 H         1 <0>         0.1372
      5 C4          0.9167   -1.9328   -1.2889 C.3       1 <0>        -0.0061
      6 H2          1.3963   -2.3075   -2.1932 H         1 <0>         0.1555
      7 C5          1.8785   -2.0596   -0.1021 C.3       1 <0>        -0.1827
      8 C6          1.2061   -1.5198    1.1541 C.3       1 <0>         0.2999
      9 H3          1.9797   -1.4243    1.9161 H         1 <0>         0.1550
     10 O1          0.6555   -0.2442    0.9666 O.3       1 <0>        -0.3234
     11 N1          0.2189   -2.4746    1.6600 N.pl3     1 <0>        -0.5366
     12 C7          0.4705   -3.5508    2.4739 C.ar      1 <0>         0.1469
     13 C8          1.6649   -4.0152    3.0240 C.ar      1 <0>        -0.1522
     14 C9          1.5948   -5.1456    3.8201 C.ar      1 <0>        -0.0582
     15 C10         0.4006   -5.7997    4.0696 C.ar      1 <0>        -0.1457
     16 C11        -0.7984   -5.3597    3.5358 C.ar      1 <0>        -0.0280
     17 C12        -0.7487   -4.2198    2.7307 C.ar      1 <0>        -0.1131
     18 C13        -1.7893   -3.4830    2.0197 C.ar      1 <0>         0.0276
     19 C14        -1.1442   -2.4197    1.3841 C.ar      1 <0>         0.0376
     20 C15        -1.8806   -1.5095    0.6175 C.ar      1 <0>         0.0894
     21 N2         -1.4718   -0.3951   -0.1095 N.pl3     1 <0>        -0.5183
     22 C16        -2.5611    0.1913   -0.7090 C.ar      1 <0>         0.1618
     23 C17        -2.6521    1.3277   -1.5118 C.ar      1 <0>        -0.1305
     24 C18        -3.9109    1.6745   -1.9733 C.ar      1 <0>        -0.0737
     25 C19        -5.0393    0.9368   -1.6616 C.ar      1 <0>        -0.1358
     26 C20        -4.9745   -0.1955   -0.8662 C.ar      1 <0>        -0.0503
     27 C21        -3.7147   -0.5596   -0.3919 C.ar      1 <0>        -0.1042
     28 C22        -3.2693   -1.6660    0.4845 C.ar      1 <0>        -0.0360
     29 C23        -3.9084   -2.7313    1.1102 C.ar      1 <0>        -0.0288
     30 C24        -3.1873   -3.6421    1.8754 C.ar      1 <0>        -0.1255
     31 C25        -4.1221   -4.6480    2.4030 C.2       1 <0>         0.5632
     32 O2         -3.8062   -5.5851    3.1110 O.2       1 <0>        -0.5106
     33 N3         -5.3744   -4.3851    1.9926 N.am      1 <0>        -0.7162
     34 C26        -5.3495   -3.1771    1.1601 C.3       1 <0>         0.1358
     35 N4         -0.3067   -2.7008   -1.0216 N.4       1 <0>        -0.5252
     36 C27         0.0145   -4.1336   -0.9773 C.3       1 <0>        -0.0497
     37 O3         -0.3340   -0.2979   -2.5607 O.3       1 <0>        -0.3614
     38 C28         0.3101   -0.0933   -3.8198 C.3       1 <0>         0.0162
     39 H4          0.8261    2.0094    0.0240 H         1 <0>         0.0984
     40 H5         -0.3202    1.8814   -1.3317 H         1 <0>         0.1036
     41 H6         -0.9255    1.9818    0.3392 H         1 <0>         0.0921
     42 H7          2.1370   -3.1081    0.0458 H         1 <0>         0.1233
     43 H8          2.7835   -1.4869   -0.3048 H         1 <0>         0.1455
     44 H9          2.6036   -3.5149    2.8368 H         1 <0>         0.1365
     45 H10         2.5026   -5.5304    4.2610 H         1 <0>         0.1359
     46 H11         0.4045   -6.6780    4.6980 H         1 <0>         0.1352
     47 H12        -1.7278   -5.8736    3.7323 H         1 <0>         0.1600
     48 H13        -1.7792    1.9122   -1.7624 H         1 <0>         0.1440
     49 H14        -4.0153    2.5500   -2.5970 H         1 <0>         0.1336
     50 H15        -5.9967    1.2527   -2.0488 H         1 <0>         0.1332
     51 H16        -5.8575   -0.7687   -0.6249 H         1 <0>         0.1415
     52 H17        -6.1628   -4.9065    2.2103 H         1 <0>         0.4348
     53 H18        -5.9671   -2.3994    1.6094 H         1 <0>         0.1115
     54 H19        -5.7060   -3.4063    0.1559 H         1 <0>         0.1103
     55 H20        -0.6958   -2.4158   -0.1353 H         1 <0>         0.4186
     56 H21         0.4349   -4.4415   -1.9347 H         1 <0>         0.1256
     57 H22         0.7403   -4.3189   -0.1854 H         1 <0>         0.1191
     58 H23        -0.8932   -4.7035   -0.7789 H         1 <0>         0.1256
     59 H24         0.9168    0.8112   -3.7748 H         1 <0>         0.0633
     60 H25         0.9482   -0.9479   -4.0446 H         1 <0>         0.0514
     61 H26        -0.4433    0.0130   -4.6003 H         1 <0>         0.1100
     62 H27        -0.9785   -2.5293   -1.7546 H         1 <0>         0.4274
@<TRIPOS>BOND
     1    1    2 1
     2    1   39 1
     3    1   40 1
     4    1   41 1
     5    2   10 1
     6    2   21 1
     7    2    3 1
     8    3    4 1
     9    3    5 1
    10    3   37 1
    11    5    6 1
    12    5    7 1
    13    5   35 1
    14    7    8 1
    15    7   42 1
    16    7   43 1
    17    8    9 1
    18    8   10 1
    19    8   11 1
    20   11   19 1
    21   11   12 1
    22   12   17 ar
    23   12   13 ar
    24   13   14 ar
    25   13   44 1
    26   14   15 ar
    27   14   45 1
    28   15   16 ar
    29   15   46 1
    30   16   17 ar
    31   16   47 1
    32   17   18 1
    33   18   30 ar
    34   18   19 ar
    35   19   20 ar
    36   20   28 ar
    37   20   21 1
    38   21   22 1
    39   22   27 ar
    40   22   23 ar
    41   23   24 ar
    42   23   48 1
    43   24   25 ar
    44   24   49 1
    45   25   26 ar
    46   25   50 1
    47   26   27 ar
    48   26   51 1
    49   27   28 1
    50   28   29 ar
    51   29   34 1
    52   29   30 ar
    53   30   31 1
    54   31   32 2
    55   31   33 am
    56   33   34 1
    57   33   52 1
    58   34   53 1
    59   34   54 1
    60   35   36 1
    61   35   55 1
    62   35   62 1
    63   36   56 1
    64   36   57 1
    65   36   58 1
    66   37   38 1
    67   38   59 1
    68   38   60 1
    69   38   61 1
@<TRIPOS>MOLECULE
ZINC34285211
   59    62     0     0     0
SMALL
USER_CHARGES

@<TRIPOS>ATOM
      1 C1         -0.0187    1.5258    0.0104 C.3       1 <0>        -0.1656
      2 C2          0.0021   -0.0041    0.0020 C.3       1 <0>         0.0991
      3 N1          0.6878   -0.4765   -1.2033 N.pl3     1 <0>        -0.4455
      4 C3          0.1084   -0.7452   -2.4220 C.ar      1 <0>         0.0734
      5 C4         -1.1885   -0.6848   -2.9333 C.ar      1 <0>         0.0979
      6 C5         -1.4068   -1.0423   -4.2530 C.ar      1 <0>         0.0255
      7 N2         -0.4156   -1.4373   -5.0310 N.ar      1 <0>        -0.4288
      8 C6          0.8360   -1.5144   -4.6003 C.ar      1 <0>         0.2963
      9 C7          1.1491   -1.1685   -3.2692 C.ar      1 <0>         0.0642
     10 N3          2.2847   -1.1401   -2.5504 N.2       1 <0>        -0.4358
     11 C8          2.0279   -0.7287   -1.3319 C.2       1 <0>         0.3425
     12 C9          3.0324   -0.5655   -0.2583 C.2       1 <0>         0.1311
     13 C10         4.4724   -0.8253   -0.3802 C.2       1 <0>         0.3646
     14 N4          5.0335   -0.5707    0.7697 N.2       1 <0>        -0.3434
     15 O1          4.0212   -0.1472    1.6654 O.3       1 <0>         0.0494
     16 N5          2.7917   -0.1594    0.9619 N.2       1 <0>        -0.2485
     17 N6          5.1251   -1.2670   -1.5235 N.pl3     1 <0>        -0.7999
     18 C11         1.8718   -1.9500   -5.4881 C.1       1 <0>        -0.1208
     19 C12         2.7209   -2.3071   -6.2159 C.1       1 <0>        -0.0802
     20 C13         3.7856   -2.7549   -7.1284 C.3       1 <0>         0.2403
     21 C14         5.1250   -2.7540   -6.3888 C.3       1 <0>        -0.1769
     22 C15         3.4749   -4.1704   -7.6190 C.3       1 <0>        -0.1771
     23 O2          3.8585   -1.8683   -8.2468 O.3       1 <0>        -0.5533
     24 O3         -2.2219   -0.2814   -2.1476 O.3       1 <0>        -0.3053
     25 C16        -3.5183   -0.2475   -2.7478 C.3       1 <0>         0.0602
     26 C17        -4.5450    0.2275   -1.7176 C.3       1 <0>        -0.1100
     27 H1         -4.4926   -0.4065   -0.8325 H         1 <0>         0.1080
     28 C18        -4.2441    1.6772   -1.3267 C.3       1 <0>        -0.1348
     29 C19        -5.3219    2.1680   -0.3558 C.3       1 <0>        -0.1475
     30 C20        -6.6969    2.0173   -1.0100 C.3       1 <0>        -0.0100
     31 N7         -6.9357    0.6061   -1.3358 N.4       1 <0>        -0.5023
     32 C21        -5.9489    0.1476   -2.3210 C.3       1 <0>        -0.0035
     33 H2          1.0039    1.9031    0.0027 H         1 <0>         0.0658
     34 H3         -0.5459    1.8868   -0.8726 H         1 <0>         0.0628
     35 H4         -0.5289    1.8773    0.9072 H         1 <0>         0.0853
     36 H5          0.5293   -0.3651    0.8851 H         1 <0>         0.1095
     37 H6         -1.0205   -0.3814    0.0098 H         1 <0>         0.1024
     38 H7         -2.4085   -0.9976   -4.6543 H         1 <0>         0.1718
     39 H8          4.6220   -1.4309   -2.3365 H         1 <0>         0.4312
     40 H9          6.0842   -1.4116   -1.5092 H         1 <0>         0.4212
     41 H10         5.0694   -3.4303   -5.5357 H         1 <0>         0.0725
     42 H11         5.9134   -3.0856   -7.0645 H         1 <0>         0.0747
     43 H12         5.3464   -1.7456   -6.0392 H         1 <0>         0.0708
     44 H13         2.5207   -4.1710   -8.1459 H         1 <0>         0.0706
     45 H14         4.2633   -4.5020   -8.2948 H         1 <0>         0.0744
     46 H15         3.4193   -4.8466   -6.7660 H         1 <0>         0.0730
     47 H16         4.5403   -2.1031   -8.8910 H         1 <0>         0.3893
     48 H17        -3.5089    0.4388   -3.5945 H         1 <0>         0.0809
     49 H18        -3.7852   -1.2465   -3.0928 H         1 <0>         0.0809
     50 H19        -3.2679    1.7296   -0.8445 H         1 <0>         0.1002
     51 H20        -4.2451    2.3031   -2.2191 H         1 <0>         0.0849
     52 H21        -5.2864    1.5744    0.5577 H         1 <0>         0.0898
     53 H22        -5.1458    3.2167   -0.1163 H         1 <0>         0.1153
     54 H23        -7.4666    2.3660   -0.3215 H         1 <0>         0.1359
     55 H24        -6.7314    2.6114   -1.9232 H         1 <0>         0.1322
     56 H25        -6.8551    0.0502   -0.4977 H         1 <0>         0.4295
     57 H26        -5.9999    0.7811   -3.2066 H         1 <0>         0.1367
     58 H27        -6.1659   -0.8835   -2.6000 H         1 <0>         0.1389
     59 H28        -7.8638    0.5026   -1.7178 H         1 <0>         0.4360
@<TRIPOS>BOND
     1    1    2 1
     2    1   33 1
     3    1   34 1
     4    1   35 1
     5    2    3 1
     6    2   36 1
     7    2   37 1
     8    3   11 1
     9    3    4 1
    10    4    9 ar
    11    4    5 ar
    12    5    6 ar
    13    5   24 1
    14    6    7 ar
    15    6   38 1
    16    7    8 ar
    17    8    9 ar
    18    8   18 1
    19    9   10 1
    20   10   11 2
    21   11   12 1
    22   12   16 2
    23   12   13 1
    24   13   14 2
    25   13   17 1
    26   14   15 1
    27   15   16 1
    28   17   39 1
    29   17   40 1
    30   18   19 3
    31   19   20 1
    32   20   21 1
    33   20   22 1
    34   20   23 1
    35   21   41 1
    36   21   42 1
    37   21   43 1
    38   22   44 1
    39   22   45 1
    40   22   46 1
    41   23   47 1
    42   24   25 1
    43   25   26 1
    44   25   48 1
    45   25   49 1
    46   26   27 1
    47   26   32 1
    48   26   28 1
    49   28   29 1
    50   28   50 1
    51   28   51 1
    52   29   30 1
    53   29   52 1
    54   29   53 1
    55   30   31 1
    56   30   54 1
    57   30   55 1
    58   31   32 1
    59   31   56 1
    60   31   59 1
    61   32   57 1
    62   32   58 1
@<TRIPOS>MOLECULE
ZINC45373881
   58    61     0     0     0
SMALL
USER_CHARGES

@<TRIPOS>ATOM
      1 C1          0.1002    1.2567    0.0923 C.ar      1 <0>        -0.1252
      2 C2          1.2934    1.9571    0.0646 C.ar      1 <0>        -0.0680
      3 C3          2.4971    1.2912    0.2113 C.ar      1 <0>        -0.1185
      4 C4          2.5150   -0.0773    0.3866 C.ar      1 <0>        -0.0353
      5 C5          1.3152   -0.7897    0.4160 C.ar      1 <0>        -0.1379
      6 C6          0.1040   -0.1115    0.2672 C.ar      1 <0>        -0.0753
      7 C7          1.3269   -2.2559    0.6028 C.2       1 <0>         0.5599
      8 O1          2.3831   -2.8439    0.7313 O.2       1 <0>        -0.5122
      9 N1          0.1665   -2.9409    0.6308 N.am      1 <0>        -0.6685
     10 C8          0.1805   -4.3371    0.7092 C.ar      1 <0>         0.1396
     11 C9          1.1584   -4.9843    1.4540 C.ar      1 <0>        -0.1159
     12 C10         1.1656   -6.3614    1.5244 C.ar      1 <0>        -0.1022
     13 C11         0.2024   -7.1046    0.8572 C.ar      1 <0>        -0.0791
     14 C12        -0.7720   -6.4656    0.1198 C.ar      1 <0>        -0.0621
     15 C13        -0.7850   -5.0814    0.0484 C.ar      1 <0>        -0.1393
     16 C14        -1.8446   -7.2299   -0.6113 C.3       1 <0>         0.0968
     17 N2         -1.4574   -8.6354   -0.7684 N.3       1 <0>        -0.6854
     18 C15        -1.0818   -9.2092    0.5336 C.3       1 <0>         0.0527
     19 C16         0.2572   -8.6075    0.9609 C.3       1 <0>        -0.0775
     20 C17         3.7916    2.0621    0.1793 C.3       1 <0>         0.1793
     21 N3          4.1408    2.4867    1.5372 N.am      1 <0>        -0.7362
     22 C18         5.2665    3.1957    1.7530 C.2       1 <0>         0.7039
     23 O2          5.9921    3.4830    0.8207 O.2       1 <0>        -0.5639
     24 N4          5.5879    3.5863    3.0023 N.am      1 <0>        -0.6853
     25 C19         6.6933    4.4097    3.2126 C.ar      1 <0>         0.1967
     26 C20         7.0375    5.3657    2.2622 C.ar      1 <0>        -0.1299
     27 C21         8.1282    6.1803    2.4668 C.ar      1 <0>        -0.0346
     28 C22         8.8898    6.0464    3.6309 C.ar      1 <0>        -0.1612
     29 C23         8.5410    5.0854    4.5838 C.ar      1 <0>        -0.0624
     30 C24         7.4462    4.2773    4.3752 C.ar      1 <0>        -0.1578
     31 C25        10.0601    6.9176    3.8534 C.2       1 <0>         0.5649
     32 O3         10.3626    7.7530    3.0233 O.2       1 <0>        -0.5403
     33 N5         10.7935    6.7872    4.9766 N.am      1 <0>        -0.8524
     34 H1         -0.8363    1.7831   -0.0187 H         1 <0>         0.1354
     35 H2          1.2849    3.0283   -0.0727 H         1 <0>         0.1332
     36 H3          3.4554   -0.5960    0.5003 H         1 <0>         0.1407
     37 H4         -0.8279   -0.6569    0.2887 H         1 <0>         0.1282
     38 H5         -0.6783   -2.4655    0.5966 H         1 <0>         0.4095
     39 H6          1.9104   -4.4109    1.9758 H         1 <0>         0.1386
     40 H7          1.9263   -6.8649    2.1025 H         1 <0>         0.1267
     41 H8         -1.5484   -4.5802   -0.5282 H         1 <0>         0.1253
     42 H9         -2.7749   -7.1742   -0.0459 H         1 <0>         0.0460
     43 H10        -1.9953   -6.7862   -1.5954 H         1 <0>         0.0885
     44 H11        -2.1982   -9.1686   -1.1984 H         1 <0>         0.3487
     45 H12        -1.8447   -8.9679    1.2738 H         1 <0>         0.0373
     46 H13        -0.9848  -10.2910    0.4427 H         1 <0>         0.0814
     47 H14         1.0475   -8.9863    0.3129 H         1 <0>         0.0844
     48 H15         0.4691   -8.8916    1.9917 H         1 <0>         0.0783
     49 H16         4.5832    1.4266   -0.2176 H         1 <0>         0.0827
     50 H17         3.6763    2.9394   -0.4573 H         1 <0>         0.0835
     51 H18         3.5619    2.2575    2.2810 H         1 <0>         0.4001
     52 H19         5.0501    3.2946    3.7550 H         1 <0>         0.4098
     53 H20         6.4486    5.4687    1.3628 H         1 <0>         0.1438
     54 H21         8.3953    6.9217    1.7283 H         1 <0>         0.1406
     55 H22         9.1276    4.9791    5.4843 H         1 <0>         0.1308
     56 H23         7.1736    3.5372    5.1130 H         1 <0>         0.1330
     57 H24        10.5522    6.1208    5.6388 H         1 <0>         0.4002
     58 H25        11.5627    7.3598    5.1228 H         1 <0>         0.4057
@<TRIPOS>BOND
     1    1    6 ar
     2    1    2 ar
     3    1   34 1
     4    2    3 ar
     5    2   35 1
     6    3    4 ar
     7    3   20 1
     8    4    5 ar
     9    4   36 1
    10    5    6 ar
    11    5    7 1
    12    6   37 1
    13    7    8 2
    14    7    9 am
    15    9   10 1
    16    9   38 1
    17   10   15 ar
    18   10   11 ar
    19   11   12 ar
    20   11   39 1
    21   12   13 ar
    22   12   40 1
    23   13   19 1
    24   13   14 ar
    25   14   15 ar
    26   14   16 1
    27   15   41 1
    28   16   17 1
    29   16   42 1
    30   16   43 1
    31   17   18 1
    32   17   44 1
    33   18   19 1
    34   18   45 1
    35   18   46 1
    36   19   47 1
    37   19   48 1
    38   20   21 1
    39   20   49 1
    40   20   50 1
    41   21   22 am
    42   21   51 1
    43   22   23 2
    44   22   24 am
    45   24   25 1
    46   24   52 1
    47   25   30 ar
    48   25   26 ar
    49   26   27 ar
    50   26   53 1
    51   27   28 ar
    52   27   54 1
    53   28   29 ar
    54   28   31 1
    55   29   30 ar
    56   29   55 1
    57   30   56 1
    58   31   32 2
    59   31   33 am
    60   33   57 1
    61   33   58 1
@<TRIPOS>MOLECULE
ZINC45373881
   59    62     0     0     0
SMALL
USER_CHARGES

@<TRIPOS>ATOM
      1 C1          0.0986    1.2547    0.0906 C.ar      1 <0>        -0.1238
      2 C2          1.2909    1.9565    0.0615 C.ar      1 <0>        -0.0611
      3 C3          2.4955    1.2922    0.2079 C.ar      1 <0>        -0.1144
      4 C4          2.5153   -0.0761    0.3842 C.ar      1 <0>        -0.0325
      5 C5          1.3164   -0.7900    0.4150 C.ar      1 <0>        -0.1478
      6 C6          0.1042   -0.1134    0.2666 C.ar      1 <0>        -0.0751
      7 C7          1.3300   -2.2561    0.6030 C.2       1 <0>         0.5670
      8 O1          2.3870   -2.8426    0.7312 O.2       1 <0>        -0.5079
      9 N1          0.1705   -2.9425    0.6324 N.am      1 <0>        -0.6749
     10 C8          0.1863   -4.3386    0.7118 C.ar      1 <0>         0.1674
     11 C9          1.1652   -4.9836    1.4570 C.ar      1 <0>        -0.0966
     12 C10         1.1742   -6.3609    1.5292 C.ar      1 <0>        -0.0827
     13 C11         0.2118   -7.1049    0.8631 C.ar      1 <0>        -0.1079
     14 C12        -0.7637   -6.4682    0.1243 C.ar      1 <0>        -0.1159
     15 C13        -0.7788   -5.0843    0.0517 C.ar      1 <0>        -0.1242
     16 C14        -1.8322   -7.2378   -0.6067 C.3       1 <0>         0.0485
     17 N2         -1.4306   -8.6360   -0.7849 N.4       1 <0>        -0.5044
     18 C15        -1.0751   -9.2028    0.5250 C.3       1 <0>        -0.0035
     19 C16         0.2627   -8.6081    0.9666 C.3       1 <0>        -0.1052
     20 C17         3.7890    2.0647    0.1743 C.3       1 <0>         0.1776
     21 N3          4.1388    2.4907    1.5317 N.am      1 <0>        -0.7382
     22 C18         5.2637    3.2013    1.7461 C.2       1 <0>         0.7041
     23 O2          5.9883    3.4887    0.8131 O.2       1 <0>        -0.5621
     24 N4          5.5855    3.5932    2.9948 N.am      1 <0>        -0.6843
     25 C19         6.6900    4.4182    3.2037 C.ar      1 <0>         0.1930
     26 C20         7.0324    5.3739    2.2523 C.ar      1 <0>        -0.1293
     27 C21         8.1223    6.1900    2.4555 C.ar      1 <0>        -0.0346
     28 C22         8.8849    6.0579    3.6192 C.ar      1 <0>        -0.1580
     29 C23         8.5379    5.0972    4.5730 C.ar      1 <0>        -0.0625
     30 C24         7.4439    4.2876    4.3658 C.ar      1 <0>        -0.1569
     31 C25        10.0542    6.9307    3.8401 C.2       1 <0>         0.5638
     32 O3         10.3551    7.7659    3.0092 O.2       1 <0>        -0.5386
     33 N5         10.7886    6.8021    4.9629 N.am      1 <0>        -0.8518
     34 H1         -0.8386    1.7798   -0.0201 H         1 <0>         0.1379
     35 H2          1.2810    3.0276   -0.0766 H         1 <0>         0.1369
     36 H3          3.4564   -0.5936    0.4977 H         1 <0>         0.1415
     37 H4         -0.8270   -0.6600    0.2891 H         1 <0>         0.1266
     38 H5         -0.6749   -2.4682    0.5984 H         1 <0>         0.4156
     39 H6          1.9168   -4.4087    1.9777 H         1 <0>         0.1512
     40 H7          1.9355   -6.8631    2.1076 H         1 <0>         0.1395
     41 H8         -1.5428   -4.5846   -0.5253 H         1 <0>         0.1380
     42 H9         -2.7582   -7.2003   -0.0329 H         1 <0>         0.1408
     43 H10        -1.9971   -6.7839   -1.5838 H         1 <0>         0.1412
     44 H11        -2.1963   -9.1591   -1.1826 H         1 <0>         0.4365
     45 H12        -1.8457   -8.9516    1.2538 H         1 <0>         0.1344
     46 H13        -0.9847  -10.2860    0.4427 H         1 <0>         0.1403
     47 H14         1.0578   -8.9888    0.3255 H         1 <0>         0.1037
     48 H15         0.4631   -8.8937    1.9992 H         1 <0>         0.1230
     49 H16         4.5812    1.4298   -0.2227 H         1 <0>         0.0832
     50 H17         3.6723    2.9413   -0.4629 H         1 <0>         0.0852
     51 H18         3.5607    2.2614    2.2760 H         1 <0>         0.3995
     52 H19         5.0487    3.3015    3.7482 H         1 <0>         0.4094
     53 H20         6.4427    5.4754    1.3533 H         1 <0>         0.1434
     54 H21         8.3879    6.9312    1.7162 H         1 <0>         0.1415
     55 H22         9.1253    4.9923    5.4732 H         1 <0>         0.1316
     56 H23         7.1728    3.5477    5.1044 H         1 <0>         0.1326
     57 H24        10.5486    6.1359    5.6257 H         1 <0>         0.4001
     58 H25        11.5572    7.3758    5.1081 H         1 <0>         0.4067
     59 H26        -0.6326   -8.6822   -1.4006 H         1 <0>         0.4324
@<TRIPOS>BOND
     1    1    6 ar
     2    1    2 ar
     3    1   34 1
     4    2    3 ar
     5    2   35 1
     6    3    4 ar
     7    3   20 1
     8    4    5 ar
     9    4   36 1
    10    5    6 ar
    11    5    7 1
    12    6   37 1
    13    7    8 2
    14    7    9 am
    15    9   10 1
    16    9   38 1
    17   10   15 ar
    18   10   11 ar
    19   11   12 ar
    20   11   39 1
    21   12   13 ar
    22   12   40 1
    23   13   19 1
    24   13   14 ar
    25   14   15 ar
    26   14   16 1
    27   15   41 1
    28   16   17 1
    29   16   42 1
    30   16   43 1
    31   17   18 1
    32   17   44 1
    33   17   59 1
    34   18   19 1
    35   18   45 1
    36   18   46 1
    37   19   47 1
    38   19   48 1
    39   20   21 1
    40   20   49 1
    41   20   50 1
    42   21   22 am
    43   21   51 1
    44   22   23 2
    45   22   24 am
    46   24   25 1
    47   24   52 1
    48   25   30 ar
    49   25   26 ar
    50   26   27 ar
    51   26   53 1
    52   27   28 ar
    53   27   54 1
    54   28   29 ar
    55   28   31 1
    56   29   30 ar
    57   29   55 1
    58   30   56 1
    59   31   32 2
    60   31   33 am
    61   33   57 1
    62   33   58 1
@<TRIPOS>MOLECULE
ZINC45390920
   60    63     0     0     0
SMALL
USER_CHARGES

@<TRIPOS>ATOM
      1 C1         -0.0559    1.4214   -0.0246 C.3       1 <0>         0.0229
      2 O1         -0.0314   -0.0074   -0.0284 O.3       1 <0>        -0.3007
      3 C2          0.5787   -0.6107   -1.0809 C.ar      1 <0>         0.1301
      4 C3          1.1472    0.1593   -2.0865 C.ar      1 <0>        -0.1827
      5 C4          1.7674   -0.4481   -3.1566 C.ar      1 <0>        -0.0778
      6 C5          1.8256   -1.8419   -3.2312 C.ar      1 <0>        -0.1375
      7 C6          1.2539   -2.6172   -2.2190 C.ar      1 <0>        -0.1129
      8 C7          0.6379   -2.0020   -1.1465 C.ar      1 <0>         0.0927
      9 O2          0.0845   -2.7535   -0.1572 O.3       1 <0>        -0.3038
     10 C8          0.1821   -4.1731   -0.2892 C.3       1 <0>         0.0229
     11 C9          2.4891   -2.4942   -4.3771 C.2       1 <0>         0.5649
     12 O3          2.5390   -3.7074   -4.4407 O.2       1 <0>        -0.5345
     13 N1          3.0397   -1.7450   -5.3528 N.am      1 <0>        -0.7240
     14 C10         3.6983   -2.3924   -6.4901 C.3       1 <0>         0.1617
     15 C11         4.2256   -1.3399   -7.4310 C.ar      1 <0>        -0.1172
     16 C12         3.4244   -0.8652   -8.4546 C.ar      1 <0>        -0.0695
     17 C13         3.9008    0.1006   -9.3230 C.ar      1 <0>        -0.1249
     18 C14         5.1795    0.5969   -9.1734 C.ar      1 <0>        -0.0764
     19 C15         5.9926    0.1228   -8.1428 C.ar      1 <0>        -0.1376
     20 C16         5.5036   -0.8478   -7.2665 C.ar      1 <0>        -0.0366
     21 C17         7.3636    0.6497   -7.9768 C.2       1 <0>         0.5600
     22 O4          8.0695    0.2349   -7.0782 O.2       1 <0>        -0.5119
     23 N2          7.8311    1.5900   -8.8217 N.am      1 <0>        -0.6685
     24 C18         9.0904    2.1589   -8.6071 C.ar      1 <0>         0.1401
     25 C19        10.1261    1.3879   -8.0944 C.ar      1 <0>        -0.1161
     26 C20        11.3641    1.9576   -7.8845 C.ar      1 <0>        -0.1019
     27 C21        11.5825    3.2950   -8.1826 C.ar      1 <0>        -0.0796
     28 C22        10.5579    4.0626   -8.6950 C.ar      1 <0>        -0.0623
     29 C23         9.3124    3.4937   -8.9104 C.ar      1 <0>        -0.1398
     30 C24        10.7513    5.5150   -9.0446 C.3       1 <0>         0.0969
     31 N3         11.9540    6.0442   -8.3940 N.3       1 <0>        -0.6854
     32 C25        13.1130    5.1876   -8.6913 C.3       1 <0>         0.0527
     33 C26        12.9520    3.8718   -7.9295 C.3       1 <0>        -0.0774
     34 H1          0.9654    1.8023   -0.0289 H         1 <0>         0.0584
     35 H2         -0.5804    1.7782   -0.9110 H         1 <0>         0.0582
     36 H3         -0.5713    1.7736    0.8689 H         1 <0>         0.1044
     37 H4          1.1030    1.2370   -2.0301 H         1 <0>         0.1434
     38 H5          2.2082    0.1533   -3.9378 H         1 <0>         0.1304
     39 H6          1.2965   -3.6950   -2.2733 H         1 <0>         0.1505
     40 H7         -0.3134   -4.4874   -1.2078 H         1 <0>         0.0579
     41 H8          1.2321   -4.4633   -0.3251 H         1 <0>         0.0581
     42 H9         -0.2981   -4.6512    0.5646 H         1 <0>         0.1041
     43 H10         2.9999   -0.7772   -5.3020 H         1 <0>         0.4016
     44 H11         4.5249   -3.0053   -6.1305 H         1 <0>         0.0828
     45 H12         2.9804   -3.0224   -7.0152 H         1 <0>         0.0833
     46 H13         2.4229   -1.2507   -8.5763 H         1 <0>         0.1330
     47 H14         3.2706    0.4666  -10.1201 H         1 <0>         0.1351
     48 H15         5.5505    1.3504   -9.8524 H         1 <0>         0.1280
     49 H16         6.1262   -1.2160   -6.4645 H         1 <0>         0.1407
     50 H17         7.2941    1.8721   -9.5786 H         1 <0>         0.4095
     51 H18         9.9621    0.3463   -7.8609 H         1 <0>         0.1393
     52 H19        12.1692    1.3588   -7.4849 H         1 <0>         0.1267
     53 H20         8.5097    4.0939   -9.3126 H         1 <0>         0.1251
     54 H21        10.8536    5.6144  -10.1252 H         1 <0>         0.0459
     55 H22         9.8828    6.0837   -8.7123 H         1 <0>         0.0882
     56 H23        12.1274    6.9976   -8.6752 H         1 <0>         0.3485
     57 H24        13.1558    4.9880   -9.7620 H         1 <0>         0.0373
     58 H25        14.0282    5.6860   -8.3720 H         1 <0>         0.0813
     59 H26        13.0763    4.0542   -6.8620 H         1 <0>         0.0842
     60 H27        13.7103    3.1644   -8.2649 H         1 <0>         0.0783
@<TRIPOS>BOND
     1    1    2 1
     2    1   34 1
     3    1   35 1
     4    1   36 1
     5    2    3 1
     6    3    8 ar
     7    3    4 ar
     8    4    5 ar
     9    4   37 1
    10    5    6 ar
    11    5   38 1
    12    6    7 ar
    13    6   11 1
    14    7    8 ar
    15    7   39 1
    16    8    9 1
    17    9   10 1
    18   10   40 1
    19   10   41 1
    20   10   42 1
    21   11   12 2
    22   11   13 am
    23   13   14 1
    24   13   43 1
    25   14   15 1
    26   14   44 1
    27   14   45 1
    28   15   20 ar
    29   15   16 ar
    30   16   17 ar
    31   16   46 1
    32   17   18 ar
    33   17   47 1
    34   18   19 ar
    35   18   48 1
    36   19   20 ar
    37   19   21 1
    38   20   49 1
    39   21   22 2
    40   21   23 am
    41   23   24 1
    42   23   50 1
    43   24   29 ar
    44   24   25 ar
    45   25   26 ar
    46   25   51 1
    47   26   27 ar
    48   26   52 1
    49   27   33 1
    50   27   28 ar
    51   28   29 ar
    52   28   30 1
    53   29   53 1
    54   30   31 1
    55   30   54 1
    56   30   55 1
    57   31   32 1
    58   31   56 1
    59   32   33 1
    60   32   57 1
    61   32   58 1
    62   33   59 1
    63   33   60 1
@<TRIPOS>MOLECULE
ZINC45390920
   61    64     0     0     0
SMALL
USER_CHARGES

@<TRIPOS>ATOM
      1 C1          0.0324    1.4230   -0.0065 C.3       1 <0>         0.0231
      2 O1          0.0456   -0.0059   -0.0120 O.3       1 <0>        -0.2994
      3 C2          0.6616   -0.6208    1.0304 C.ar      1 <0>         0.1314
      4 C3          1.2364    0.1382    2.0408 C.ar      1 <0>        -0.1837
      5 C4          1.8626   -0.4809    3.1006 C.ar      1 <0>        -0.0794
      6 C5          1.9197   -1.8755    3.1604 C.ar      1 <0>        -0.1389
      7 C6          1.3409   -2.6397    2.1438 C.ar      1 <0>        -0.1128
      8 C7          0.7104   -2.0128    1.0865 C.ar      1 <0>         0.0947
      9 O2          0.1418   -2.7536    0.0978 O.3       1 <0>        -0.3028
     10 C8          0.2294   -4.1747    0.2198 C.3       1 <0>         0.0225
     11 C9          2.5906   -2.5403    4.2948 C.2       1 <0>         0.5655
     12 O3          2.6395   -3.7541    4.3455 O.2       1 <0>        -0.5312
     13 N1          3.1488   -1.8018    5.2743 N.am      1 <0>        -0.7260
     14 C10         3.8146   -2.4616    6.4002 C.3       1 <0>         0.1596
     15 C11         4.3496   -1.4195    7.3482 C.ar      1 <0>        -0.1130
     16 C12         5.6291   -0.9213    7.1759 C.ar      1 <0>        -0.0626
     17 C13         6.1281    0.0352    8.0419 C.ar      1 <0>        -0.1235
     18 C14         5.3518    0.4988    9.0841 C.ar      1 <0>        -0.0761
     19 C15         4.0603    0.0009    9.2633 C.ar      1 <0>        -0.1474
     20 C16         3.5608   -0.9601    8.3823 C.ar      1 <0>        -0.0338
     21 C17         3.2231    0.4926   10.3779 C.2       1 <0>         0.5670
     22 O4          2.0986    0.0572   10.5314 O.2       1 <0>        -0.5075
     23 N2          3.7066    1.4238   11.2239 N.am      1 <0>        -0.6749
     24 C18         2.8825    1.9602   12.2183 C.ar      1 <0>         0.1679
     25 C19         1.9332    1.1614   12.8431 C.ar      1 <0>        -0.0969
     26 C20         1.1238    1.6987   13.8220 C.ar      1 <0>        -0.0824
     27 C21         1.2527    3.0306   14.1864 C.ar      1 <0>        -0.1084
     28 C22         2.1960    3.8265   13.5705 C.ar      1 <0>        -0.1161
     29 C23         3.0139    3.2902   12.5886 C.ar      1 <0>        -0.1247
     30 C24         2.3748    5.2749   13.9424 C.3       1 <0>         0.0487
     31 N3          1.1910    5.7770   14.6458 N.4       1 <0>        -0.5044
     32 C25         0.9039    4.8968   15.7887 C.3       1 <0>        -0.0035
     33 C26         0.3438    3.5764   15.2584 C.3       1 <0>        -0.1051
     34 H1          1.0567    1.7959   -0.0103 H         1 <0>         0.0583
     35 H2         -0.4893    1.7850   -0.8925 H         1 <0>         0.1054
     36 H3         -0.4802    1.7782    0.8875 H         1 <0>         0.0575
     37 H4          1.1930    1.2164    1.9958 H         1 <0>         0.1429
     38 H5          2.3095    0.1119    3.8849 H         1 <0>         0.1285
     39 H6          1.3834   -3.7180    2.1863 H         1 <0>         0.1511
     40 H7          1.2774   -4.4734    0.2439 H         1 <0>         0.0585
     41 H8         -0.2598   -4.4911    1.1410 H         1 <0>         0.0582
     42 H9         -0.2625   -4.6436   -0.6324 H         1 <0>         0.1057
     43 H10         3.1097   -0.8334    5.2338 H         1 <0>         0.4008
     44 H11         3.0997   -3.0963    6.9238 H         1 <0>         0.0835
     45 H12         4.6379   -3.0716    6.0286 H         1 <0>         0.0852
     46 H13         6.2410   -1.2811    6.3620 H         1 <0>         0.1366
     47 H14         7.1276    0.4196    7.9021 H         1 <0>         0.1376
     48 H15         5.7427    1.2450    9.7599 H         1 <0>         0.1264
     49 H16         2.5608   -1.3465    8.5130 H         1 <0>         0.1415
     50 H17         4.6261    1.7219   11.1430 H         1 <0>         0.4157
     51 H18         1.8290    0.1235   12.5630 H         1 <0>         0.1519
     52 H19         0.3849    1.0785   14.3076 H         1 <0>         0.1395
     53 H20         3.7538    3.9119   12.1066 H         1 <0>         0.1378
     54 H21         3.2464    5.3748   14.5893 H         1 <0>         0.1408
     55 H22         2.5308    5.8618   13.0372 H         1 <0>         0.1410
     56 H23         1.3671    6.7138   14.9769 H         1 <0>         0.4364
     57 H24         1.8221    4.7079   16.3448 H         1 <0>         0.1344
     58 H25         0.1695    5.3706   16.4400 H         1 <0>         0.1402
     59 H26        -0.6486    3.7454   14.8406 H         1 <0>         0.1036
     60 H27         0.2746    2.8580   16.0752 H         1 <0>         0.1231
     61 H28         0.4018    5.7824   14.0171 H         1 <0>         0.4322
@<TRIPOS>BOND
     1    1    2 1
     2    1   34 1
     3    1   35 1
     4    1   36 1
     5    2    3 1
     6    3    8 ar
     7    3    4 ar
     8    4    5 ar
     9    4   37 1
    10    5    6 ar
    11    5   38 1
    12    6    7 ar
    13    6   11 1
    14    7    8 ar
    15    7   39 1
    16    8    9 1
    17    9   10 1
    18   10   40 1
    19   10   41 1
    20   10   42 1
    21   11   12 2
    22   11   13 am
    23   13   14 1
    24   13   43 1
    25   14   15 1
    26   14   44 1
    27   14   45 1
    28   15   20 ar
    29   15   16 ar
    30   16   17 ar
    31   16   46 1
    32   17   18 ar
    33   17   47 1
    34   18   19 ar
    35   18   48 1
    36   19   20 ar
    37   19   21 1
    38   20   49 1
    39   21   22 2
    40   21   23 am
    41   23   24 1
    42   23   50 1
    43   24   29 ar
    44   24   25 ar
    45   25   26 ar
    46   25   51 1
    47   26   27 ar
    48   26   52 1
    49   27   33 1
    50   27   28 ar
    51   28   29 ar
    52   28   30 1
    53   29   53 1
    54   30   31 1
    55   30   54 1
    56   30   55 1
    57   31   32 1
    58   31   56 1
    59   31   61 1
    60   32   33 1
    61   32   57 1
    62   32   58 1
    63   33   59 1
    64   33   60 1
