@<TRIPOS>MOLECULE
ZINC02043204
   48    50     0     0     0
SMALL
USER_CHARGES

@<TRIPOS>ATOM
      1 C1          2.5162    0.9496    1.4171 C.ar      1 <0>        -0.1558
      2 C2          1.8179    1.8754    0.7027 C.ar      1 <0>        -0.0089
      3 C3          0.8924    1.4496   -0.2625 C.ar      1 <0>        -0.1400
      4 C4          0.1441    2.3570   -1.0300 C.ar      1 <0>         0.1716
      5 N1         -0.7096    1.9109   -1.9214 N.ar      1 <0>        -0.4887
      6 C5         -0.9082    0.6184   -2.1416 C.ar      1 <0>         0.1175
      7 C6         -0.2327   -0.3410   -1.4505 C.ar      1 <0>        -0.1972
      8 C7          0.7007    0.0595   -0.4769 C.ar      1 <0>         0.0581
      9 C8          1.4373   -0.8645    0.2774 C.ar      1 <0>        -0.6935
     10 C9          2.3271   -0.4146    1.2059 C.ar      1 <0>         0.0350
     11 S1          1.2137   -2.5943    0.0269 S.o2      1 <0>         2.6977
     12 O1          2.1244   -3.2517    0.8974 O.2       1 <0>        -0.9448
     13 O2         -0.1865   -2.8329    0.0680 O.2       1 <0>        -0.9312
     14 N2          1.7064   -2.9332   -1.5173 N.pl3     1 <0>        -1.1162
     15 C10         3.1062   -2.7326   -1.9002 C.3       1 <0>         0.0916
     16 C11         3.3893   -3.4769   -3.2066 C.3       1 <0>        -0.0177
     17 N3          4.7929   -3.2757   -3.5905 N.4       1 <0>        -0.5066
     18 C12         5.0647   -3.9903   -4.8449 C.3       1 <0>         0.0395
     19 C13         6.5046   -3.7840   -5.2387 C.2       1 <0>        -0.2534
     20 C14         7.2882   -4.8305   -5.4586 C.2       1 <0>        -0.0124
     21 C15         8.7005   -4.6281   -5.8449 C.ar      1 <0>        -0.0865
     22 C16         9.2134   -3.3367   -5.9733 C.ar      1 <0>        -0.0932
     23 C17        10.5324   -3.1541   -6.3336 C.ar      1 <0>        -0.0930
     24 C18        11.3467   -4.2489   -6.5682 C.ar      1 <0>        -0.0711
     25 C19        10.8435   -5.5324   -6.4424 C.ar      1 <0>        -0.0912
     26 C20         9.5277   -5.7277   -6.0770 C.ar      1 <0>        -0.0822
     27 Br1        13.1533   -3.9899   -7.0630 Br        1 <0>        -0.0276
     28 H1          3.2315    1.2784    2.1565 H         1 <0>         0.1450
     29 H2          1.9750    2.9294    0.8779 H         1 <0>         0.1486
     30 H3          0.2706    3.4199   -0.8866 H         1 <0>         0.1731
     31 H4         -1.6264    0.3180   -2.8902 H         1 <0>         0.1633
     32 H5         -0.4102   -1.3883   -1.6456 H         1 <0>         0.1411
     33 H6          2.8949   -1.1263    1.7868 H         1 <0>         0.1512
     34 H7          1.0683   -3.2645   -2.1683 H         1 <0>         0.4272
     35 H8          3.2957   -1.6683   -2.0399 H         1 <0>         0.0890
     36 H9          3.7565   -3.1173   -1.1145 H         1 <0>         0.1050
     37 H10         3.1998   -4.5411   -3.0669 H         1 <0>         0.1445
     38 H11         2.7390   -3.0921   -3.9922 H         1 <0>         0.1424
     39 H12         4.9683   -2.2905   -3.7199 H         1 <0>         0.4308
     40 H13         4.8752   -5.0546   -4.7051 H         1 <0>         0.1348
     41 H14         4.4144   -3.6056   -5.6305 H         1 <0>         0.1403
     42 H15         6.8982   -2.7835   -5.3419 H         1 <0>         0.1396
     43 H16         6.8946   -5.8309   -5.3555 H         1 <0>         0.1348
     44 H17         8.5789   -2.4819   -5.7913 H         1 <0>         0.1337
     45 H18        10.9305   -2.1552   -6.4334 H         1 <0>         0.1407
     46 H19        11.4834   -6.3826   -6.6269 H         1 <0>         0.1428
     47 H20         9.1374   -6.7295   -5.9748 H         1 <0>         0.1397
     48 H21         5.3949   -3.6319   -2.8633 H         1 <0>         0.4327
@<TRIPOS>BOND
     1    1   10 ar
     2    1    2 ar
     3    1   28 1
     4    2    3 ar
     5    2   29 1
     6    3    8 ar
     7    3    4 ar
     8    4    5 ar
     9    4   30 1
    10    5    6 ar
    11    6    7 ar
    12    6   31 1
    13    7    8 ar
    14    7   32 1
    15    8    9 ar
    16    9   10 ar
    17    9   11 1
    18   10   33 1
    19   11   12 2
    20   11   13 2
    21   11   14 1
    22   14   15 1
    23   14   34 1
    24   15   16 1
    25   15   35 1
    26   15   36 1
    27   16   17 1
    28   16   37 1
    29   16   38 1
    30   17   18 1
    31   17   39 1
    32   17   48 1
    33   18   19 1
    34   18   40 1
    35   18   41 1
    36   19   20 2
    37   19   42 1
    38   20   21 1
    39   20   43 1
    40   21   26 ar
    41   21   22 ar
    42   22   23 ar
    43   22   44 1
    44   23   24 ar
    45   23   45 1
    46   24   25 ar
    47   24   27 1
    48   25   26 ar
    49   25   46 1
    50   26   47 1
@<TRIPOS>MOLECULE
ZINC02043206
   34    35     0     0     0
SMALL
USER_CHARGES

@<TRIPOS>ATOM
      1 C1         -0.5130    1.5552   -0.7084 C.3       1 <0>        -0.0468
      2 N1         -0.4140    0.0951   -0.5807 N.4       1 <0>        -0.5074
      3 C2          0.4441   -0.4328   -1.6498 C.3       1 <0>        -0.0188
      4 C3          0.5473   -1.9536   -1.5168 C.3       1 <0>         0.0910
      5 N2          1.4030   -2.4801   -2.5829 N.pl3     1 <0>        -1.1165
      6 S1          2.0071   -4.0183   -2.4762 S.o2      1 <0>         2.6978
      7 O1          2.7594   -4.2422   -3.6608 O.2       1 <0>        -0.9309
      8 O2          2.5736   -4.1430   -1.1790 O.2       1 <0>        -0.9449
      9 C4          0.6350   -5.1221   -2.5348 C.ar      1 <0>        -0.6937
     10 C5          0.3415   -5.9101   -1.4628 C.ar      1 <0>         0.0350
     11 C6         -0.7400   -6.7882   -1.4917 C.ar      1 <0>        -0.1558
     12 C7         -1.5370   -6.8861   -2.5918 C.ar      1 <0>        -0.0088
     13 C8         -1.2657   -6.0902   -3.7153 C.ar      1 <0>        -0.1401
     14 C9         -0.1668   -5.1921   -3.6826 C.ar      1 <0>         0.0580
     15 C10         0.0802   -4.4015   -4.8200 C.ar      1 <0>        -0.1977
     16 C11        -0.7452   -4.5283   -5.8955 C.ar      1 <0>         0.1177
     17 N3         -1.7685   -5.3717   -5.8976 N.ar      1 <0>        -0.4887
     18 C12        -2.0519   -6.1475   -4.8776 C.ar      1 <0>         0.1720
     19 H1          0.4809    1.9953   -0.6272 H         1 <0>         0.1264
     20 H2         -0.9437    1.8067   -1.6776 H         1 <0>         0.1254
     21 H3         -1.1497    1.9469    0.0849 H         1 <0>         0.1304
     22 H4         -0.0153   -0.1378    0.3165 H         1 <0>         0.4346
     23 H5          0.0134   -0.1813   -2.6189 H         1 <0>         0.1415
     24 H6          1.4380    0.0072   -1.5686 H         1 <0>         0.1442
     25 H7          0.9780   -2.2051   -0.5476 H         1 <0>         0.1050
     26 H8         -0.4466   -2.3936   -1.5979 H         1 <0>         0.0885
     27 H9          1.6158   -1.9277   -3.3514 H         1 <0>         0.4271
     28 H10         0.9568   -5.8536   -0.5770 H         1 <0>         0.1513
     29 H11        -0.9495   -7.4015   -0.6278 H         1 <0>         0.1453
     30 H12        -2.3716   -7.5716   -2.5996 H         1 <0>         0.1488
     31 H13         0.9076   -3.7077   -4.8394 H         1 <0>         0.1405
     32 H14        -0.5614   -3.9245   -6.7719 H         1 <0>         0.1634
     33 H15        -2.8959   -6.8195   -4.9271 H         1 <0>         0.1733
     34 H16        -1.3340   -0.3123   -0.6558 H         1 <0>         0.4329
@<TRIPOS>BOND
     1    1    2 1
     2    1   19 1
     3    1   20 1
     4    1   21 1
     5    2    3 1
     6    2   22 1
     7    2   34 1
     8    3    4 1
     9    3   23 1
    10    3   24 1
    11    4    5 1
    12    4   25 1
    13    4   26 1
    14    5    6 1
    15    5   27 1
    16    6    7 2
    17    6    8 2
    18    6    9 1
    19    9   14 ar
    20    9   10 ar
    21   10   11 ar
    22   10   28 1
    23   11   12 ar
    24   11   29 1
    25   12   13 ar
    26   12   30 1
    27   13   18 ar
    28   13   14 ar
    29   14   15 ar
    30   15   16 ar
    31   15   31 1
    32   16   17 ar
    33   16   32 1
    34   17   18 ar
    35   18   33 1
@<TRIPOS>MOLECULE
ZINC03814434
   62    69     0     0     0
SMALL
USER_CHARGES

@<TRIPOS>ATOM
      1 C1         -0.1295    1.5952   -0.2973 C.3       1 <0>        -0.1687
      2 C2         -0.0862    0.0696   -0.1900 C.3       1 <0>         0.3342
      3 C3          0.5692   -0.4501   -1.4637 C.3       1 <0>         0.0405
      4 H1          1.4796    0.1159   -1.6612 H         1 <0>         0.1372
      5 C4          0.9167   -1.9328   -1.2889 C.3       1 <0>        -0.0061
      6 H2          1.3963   -2.3075   -2.1932 H         1 <0>         0.1555
      7 C5          1.8785   -2.0596   -0.1021 C.3       1 <0>        -0.1827
      8 C6          1.2061   -1.5198    1.1541 C.3       1 <0>         0.2999
      9 H3          1.9797   -1.4243    1.9161 H         1 <0>         0.1550
     10 O1          0.6555   -0.2442    0.9666 O.3       1 <0>        -0.3234
     11 N1          0.2189   -2.4746    1.6600 N.pl3     1 <0>        -0.5366
     12 C7          0.4705   -3.5508    2.4739 C.ar      1 <0>         0.1469
     13 C8          1.6649   -4.0152    3.0240 C.ar      1 <0>        -0.1522
     14 C9          1.5948   -5.1456    3.8201 C.ar      1 <0>        -0.0582
     15 C10         0.4006   -5.7997    4.0696 C.ar      1 <0>        -0.1457
     16 C11        -0.7984   -5.3597    3.5358 C.ar      1 <0>        -0.0280
     17 C12        -0.7487   -4.2198    2.7307 C.ar      1 <0>        -0.1131
     18 C13        -1.7893   -3.4830    2.0197 C.ar      1 <0>         0.0276
     19 C14        -1.1442   -2.4197    1.3841 C.ar      1 <0>         0.0376
     20 C15        -1.8806   -1.5095    0.6175 C.ar      1 <0>         0.0894
     21 N2         -1.4718   -0.3951   -0.1095 N.pl3     1 <0>        -0.5183
     22 C16        -2.5611    0.1913   -0.7090 C.ar      1 <0>         0.1618
     23 C17        -2.6521    1.3277   -1.5118 C.ar      1 <0>        -0.1305
     24 C18        -3.9109    1.6745   -1.9733 C.ar      1 <0>        -0.0737
     25 C19        -5.0393    0.9368   -1.6616 C.ar      1 <0>        -0.1358
     26 C20        -4.9745   -0.1955   -0.8662 C.ar      1 <0>        -0.0503
     27 C21        -3.7147   -0.5596   -0.3919 C.ar      1 <0>        -0.1042
     28 C22        -3.2693   -1.6660    0.4845 C.ar      1 <0>        -0.0360
     29 C23        -3.9084   -2.7313    1.1102 C.ar      1 <0>        -0.0288
     30 C24        -3.1873   -3.6421    1.8754 C.ar      1 <0>        -0.1255
     31 C25        -4.1221   -4.6480    2.4030 C.2       1 <0>         0.5632
     32 O2         -3.8062   -5.5851    3.1110 O.2       1 <0>        -0.5106
     33 N3         -5.3744   -4.3851    1.9926 N.am      1 <0>        -0.7162
     34 C26        -5.3495   -3.1771    1.1601 C.3       1 <0>         0.1358
     35 N4         -0.3067   -2.7008   -1.0216 N.4       1 <0>        -0.5252
     36 C27         0.0145   -4.1336   -0.9773 C.3       1 <0>        -0.0497
     37 O3         -0.3340   -0.2979   -2.5607 O.3       1 <0>        -0.3614
     38 C28         0.3101   -0.0933   -3.8198 C.3       1 <0>         0.0162
     39 H4          0.8261    2.0094    0.0240 H         1 <0>         0.0984
     40 H5         -0.3202    1.8814   -1.3317 H         1 <0>         0.1036
     41 H6         -0.9255    1.9818    0.3392 H         1 <0>         0.0921
     42 H7          2.1370   -3.1081    0.0458 H         1 <0>         0.1233
     43 H8          2.7835   -1.4869   -0.3048 H         1 <0>         0.1455
     44 H9          2.6036   -3.5149    2.8368 H         1 <0>         0.1365
     45 H10         2.5026   -5.5304    4.2610 H         1 <0>         0.1359
     46 H11         0.4045   -6.6780    4.6980 H         1 <0>         0.1352
     47 H12        -1.7278   -5.8736    3.7323 H         1 <0>         0.1600
     48 H13        -1.7792    1.9122   -1.7624 H         1 <0>         0.1440
     49 H14        -4.0153    2.5500   -2.5970 H         1 <0>         0.1336
     50 H15        -5.9967    1.2527   -2.0488 H         1 <0>         0.1332
     51 H16        -5.8575   -0.7687   -0.6249 H         1 <0>         0.1415
     52 H17        -6.1628   -4.9065    2.2103 H         1 <0>         0.4348
     53 H18        -5.9671   -2.3994    1.6094 H         1 <0>         0.1115
     54 H19        -5.7060   -3.4063    0.1559 H         1 <0>         0.1103
     55 H20        -0.6958   -2.4158   -0.1353 H         1 <0>         0.4186
     56 H21         0.4349   -4.4415   -1.9347 H         1 <0>         0.1256
     57 H22         0.7403   -4.3189   -0.1854 H         1 <0>         0.1191
     58 H23        -0.8932   -4.7035   -0.7789 H         1 <0>         0.1256
     59 H24         0.9168    0.8112   -3.7748 H         1 <0>         0.0633
     60 H25         0.9482   -0.9479   -4.0446 H         1 <0>         0.0514
     61 H26        -0.4433    0.0130   -4.6003 H         1 <0>         0.1100
     62 H27        -0.9785   -2.5293   -1.7546 H         1 <0>         0.4274
@<TRIPOS>BOND
     1    1    2 1
     2    1   39 1
     3    1   40 1
     4    1   41 1
     5    2   10 1
     6    2   21 1
     7    2    3 1
     8    3    4 1
     9    3    5 1
    10    3   37 1
    11    5    6 1
    12    5    7 1
    13    5   35 1
    14    7    8 1
    15    7   42 1
    16    7   43 1
    17    8    9 1
    18    8   10 1
    19    8   11 1
    20   11   19 1
    21   11   12 1
    22   12   17 ar
    23   12   13 ar
    24   13   14 ar
    25   13   44 1
    26   14   15 ar
    27   14   45 1
    28   15   16 ar
    29   15   46 1
    30   16   17 ar
    31   16   47 1
    32   17   18 1
    33   18   30 ar
    34   18   19 ar
    35   19   20 ar
    36   20   28 ar
    37   20   21 1
    38   21   22 1
    39   22   27 ar
    40   22   23 ar
    41   23   24 ar
    42   23   48 1
    43   24   25 ar
    44   24   49 1
    45   25   26 ar
    46   25   50 1
    47   26   27 ar
    48   26   51 1
    49   27   28 1
    50   28   29 ar
    51   29   34 1
    52   29   30 ar
    53   30   31 1
    54   31   32 2
    55   31   33 am
    56   33   34 1
    57   33   52 1
    58   34   53 1
    59   34   54 1
    60   35   36 1
    61   35   55 1
    62   35   62 1
    63   36   56 1
    64   36   57 1
    65   36   58 1
    66   37   38 1
    67   38   59 1
    68   38   60 1
    69   38   61 1
@<TRIPOS>MOLECULE
ZINC03812168
   64    69     0     0     0
SMALL
USER_CHARGES
dimethylaminomethylBLAHdione
@<TRIPOS>ATOM
      1 C1         -3.6591   -3.4932   -0.5238 C.3       1 <0>        -0.0551
      2 C2         -2.4926   -2.9550   -2.5762 C.3       1 <0>        -0.0445
      3 C3         -2.6578   -1.3072   -0.8098 C.3       1 <0>        -0.0358
      4 C4         -2.4673   -1.1012    0.6860 C.3       1 <0>         0.0654
      5 H1         -3.1645   -1.7751    1.2185 H         1 <0>         0.0947
      6 C5         -2.7230    0.3270    1.1457 C.3       1 <0>        -0.1345
      7 C6         -2.5225    1.3892    0.0793 C.3       1 <0>         0.1021
      8 N1         -1.1339    1.8402    0.0096 N.pl3     1 <0>        -0.4782
      9 C7         -0.0126    1.0747    0.0080 C.2       1 <0>         0.0759
     10 C8          1.1009    1.8532    0.0015 C.2       1 <0>        -0.1124
     11 C9          0.6150    3.2557   -0.0375 C.ar      1 <0>        -0.0829
     12 C10        -0.7846    3.1777   -0.0610 C.ar      1 <0>         0.0902
     13 C11        -1.5354    4.3459   -0.1576 C.ar      1 <0>        -0.1369
     14 C12        -0.9089    5.5725   -0.1941 C.ar      1 <0>        -0.0870
     15 C13         0.4756    5.6497   -0.1263 C.ar      1 <0>        -0.1387
     16 C14         1.2312    4.5008   -0.0317 C.ar      1 <0>        -0.0542
     17 C15         2.5293    1.4989    0.0288 C.2       1 <0>        -0.0575
     18 C16         3.2121    0.4058    0.5546 C.2       1 <0>        -0.0318
     19 C17         2.7061   -0.7744    1.2787 C.2       1 <0>        -0.1258
     20 C18         1.4206   -1.0272    1.6582 C.2       1 <0>         0.1002
     21 N2          1.3169   -2.2819    2.1682 N.pl3     1 <0>        -0.4767
     22 C19         2.5720   -2.8515    2.2654 C.ar      1 <0>         0.0850
     23 C20         3.5031   -1.9214    1.7684 C.ar      1 <0>        -0.0774
     24 C21         4.8560   -2.2219    1.8708 C.ar      1 <0>        -0.0704
     25 C22         5.2705   -3.4529    2.3343 C.ar      1 <0>        -0.1401
     26 C23         4.3436   -4.3996    2.7389 C.ar      1 <0>        -0.0882
     27 C24         3.0009   -4.0952    2.7142 C.ar      1 <0>        -0.1389
     28 C25         0.0751   -2.9597    2.5494 C.3       1 <0>         0.1083
     29 C26        -0.9464   -2.8428    1.4151 C.3       1 <0>         0.0261
     30 O1         -1.1329   -1.4683    1.0718 O.3       1 <0>        -0.3787
     31 C27         4.6407    0.6399    0.2297 C.2       1 <0>         0.5576
     32 O2          5.5801   -0.0982    0.4313 O.2       1 <0>        -0.4501
     33 N3          4.7726    1.8285   -0.3761 N.am      1 <0>        -0.6884
     34 C28         3.5684    2.3701   -0.5773 C.2       1 <0>         0.5496
     35 O3          3.3676    3.4021   -1.1909 O.2       1 <0>        -0.4507
     36 H2         -4.6064   -3.1194   -0.9125 H         1 <0>         0.1320
     37 H3         -3.5558   -4.5494   -0.7723 H         1 <0>         0.1292
     38 H4         -3.6371   -3.3709    0.5591 H         1 <0>         0.1176
     39 H5         -1.6226   -2.4415   -2.9853 H         1 <0>         0.1242
     40 H6         -2.4140   -4.0227   -2.7812 H         1 <0>         0.1266
     41 H7         -3.3976   -2.5618   -3.0392 H         1 <0>         0.1281
     42 H8         -3.6420   -0.9427   -1.1043 H         1 <0>         0.1512
     43 H9         -1.8892   -0.7576   -1.3530 H         1 <0>         0.1401
     44 H10        -3.7581    0.3948    1.5248 H         1 <0>         0.1133
     45 H11        -2.0693    0.5478    1.9998 H         1 <0>         0.1111
     46 H12        -2.8851    1.1097   -0.8943 H         1 <0>         0.0847
     47 H13        -3.1227    2.2722    0.3811 H         1 <0>         0.1001
     48 H14         0.0021   -0.0041    0.0020 H         1 <0>         0.1790
     49 H15        -2.6150    4.2937   -0.2077 H         1 <0>         0.1188
     50 H16        -1.4958    6.4773   -0.2780 H         1 <0>         0.1308
     51 H17         0.9608    6.6157   -0.1385 H         1 <0>         0.1284
     52 H18         2.3072    4.5814    0.0562 H         1 <0>         0.1320
     53 H19         0.6104   -0.3170    1.5917 H         1 <0>         0.1871
     54 H20         5.6126   -1.4944    1.6337 H         1 <0>         0.1514
     55 H21         6.3257   -3.6782    2.3787 H         1 <0>         0.1280
     56 H22         4.6724   -5.3687    3.0799 H         1 <0>         0.1300
     57 H23         2.2783   -4.8297    3.0422 H         1 <0>         0.1175
     58 H24         0.2774   -4.0129    2.7458 H         1 <0>         0.1169
     59 H25        -0.3264   -2.4933    3.4522 H         1 <0>         0.0971
     60 H26        -0.5876   -3.3893    0.5423 H         1 <0>         0.0664
     61 H27        -1.8985   -3.2659    1.7424 H         1 <0>         0.0864
     62 H28         5.6204    2.2247   -0.6318 H         1 <0>         0.4332
     63 N4         -2.5268   -2.7479   -1.1131 N.4       1 <0>        -0.4048
     64 H29        -1.6507   -3.0961   -0.7064 H         1 <0>         0.4232
@<TRIPOS>BOND
     1    1   36 1
     2    1   37 1
     3    1   38 1
     4    1   63 1
     5    2   39 1
     6    2   40 1
     7    2   41 1
     8    2   63 1
     9    3    4 1
    10    3   42 1
    11    3   43 1
    12    3   63 1
    13    4    5 1
    14    4   30 1
    15    4    6 1
    16    6    7 1
    17    6   44 1
    18    6   45 1
    19    7    8 1
    20    7   46 1
    21    7   47 1
    22    8   12 1
    23    8    9 1
    24    9   10 2
    25    9   48 1
    26   10   11 1
    27   10   17 1
    28   11   16 ar
    29   11   12 ar
    30   12   13 ar
    31   13   14 ar
    32   13   49 1
    33   14   15 ar
    34   14   50 1
    35   15   16 ar
    36   15   51 1
    37   16   52 1
    38   17   34 1
    39   17   18 2
    40   18   19 1
    41   18   31 1
    42   19   23 1
    43   19   20 2
    44   20   21 1
    45   20   53 1
    46   21   22 1
    47   21   28 1
    48   22   27 ar
    49   22   23 ar
    50   23   24 ar
    51   24   25 ar
    52   24   54 1
    53   25   26 ar
    54   25   55 1
    55   26   27 ar
    56   26   56 1
    57   27   57 1
    58   28   29 1
    59   28   58 1
    60   28   59 1
    61   29   30 1
    62   29   60 1
    63   29   61 1
    64   31   32 2
    65   31   33 am
    66   33   34 am
    67   33   62 1
    68   34   35 2
    69   63   64 1
