@<TRIPOS>MOLECULE
ZINC44460257
   66    69     0     0     0
SMALL
USER_CHARGES

@<TRIPOS>ATOM
      1 C1         -0.0178    1.4648    0.0101 C.3       1 <0>        -0.0466
      2 N1          0.0021   -0.0041    0.0020 N.4       1 <0>        -0.3824
      3 C2          0.7126   -0.4907    1.1921 C.3       1 <0>        -0.0561
      4 C3         -1.3761   -0.5125    0.0124 C.3       1 <0>        -0.0238
      5 C4         -1.3584   -2.0365   -0.1216 C.3       1 <0>         0.1162
      6 N2         -2.7328   -2.5436   -0.1112 N.am      1 <0>        -0.7490
      7 C5         -2.9636   -3.8672   -0.2179 C.2       1 <0>         0.7094
      8 O1         -2.0311   -4.6404   -0.3227 O.2       1 <0>        -0.5819
      9 N3         -4.2280   -4.3337   -0.2083 N.am      1 <0>        -0.7306
     10 C6         -4.4789   -5.7724   -0.3242 C.3       1 <0>         0.1477
     11 C7         -5.9863   -6.0319   -0.2869 C.3       1 <0>         0.0792
     12 H1         -6.4662   -5.5120   -1.1160 H         1 <0>         0.0697
     13 C8         -6.2501   -7.5363   -0.4041 C.3       1 <0>        -0.1507
     14 C9         -7.7606   -7.7787   -0.3325 C.3       1 <0>        -0.1149
     15 C10        -8.3123   -7.1894    0.9629 C.3       1 <0>        -0.1250
     16 H2         -9.3994   -7.2690    0.9588 H         1 <0>         0.0923
     17 C11        -7.7560   -7.9504    2.1697 C.3       1 <0>         0.2038
     18 H3         -6.6789   -7.7980    2.2382 H         1 <0>         0.0865
     19 N4         -8.4121   -7.4195    3.3733 N.pl3     1 <0>        -0.7335
     20 C12        -8.5651   -6.0350    3.5073 C.ar      1 <0>         0.2687
     21 C13        -8.9356   -5.5130    4.7425 C.ar      1 <0>        -0.1941
     22 C14        -9.0969   -4.1510    4.8967 C.ar      1 <0>        -0.0169
     23 C15        -8.8905   -3.3053    3.8219 C.ar      1 <0>        -0.2455
     24 C16        -8.5208   -3.8208    2.5947 C.ar      1 <0>         0.0003
     25 C17        -8.3540   -5.1856    2.4330 C.ar      1 <0>        -0.1624
     26 C18        -7.9166   -5.7207    1.0946 C.3       1 <0>         0.1557
     27 H4         -8.4056   -5.1414    0.3114 H         1 <0>         0.0675
     28 O2         -6.5220   -5.5571    0.9486 O.3       1 <0>        -0.3669
     29 C19        -9.0698   -1.8185    3.9897 C.3       1 <0>         0.5140
     30 F1         -9.4428   -1.5397    5.3090 F         1 <0>        -0.1778
     31 F2         -7.8662   -1.1677    3.6980 F         1 <0>        -0.1839
     32 F3        -10.0669   -1.3676    3.1181 F         1 <0>        -0.1789
     33 C20        -8.0558   -9.4206    2.0291 C.ar      1 <0>        -0.0989
     34 C21        -9.3117   -9.9033    2.3462 C.ar      1 <0>        -0.1098
     35 C22        -9.5868  -11.2518    2.2173 C.ar      1 <0>        -0.1148
     36 C23        -8.6060  -12.1176    1.7708 C.ar      1 <0>        -0.1122
     37 C24        -7.3504  -11.6348    1.4528 C.ar      1 <0>        -0.1153
     38 C25        -7.0766  -10.2856    1.5777 C.ar      1 <0>        -0.1058
     39 H5          1.0047    1.8421    0.0024 H         1 <0>         0.1279
     40 H6         -0.5450    1.8259   -0.8730 H         1 <0>         0.1248
     41 H7         -0.5280    1.8163    0.9069 H         1 <0>         0.1236
     42 H8          0.7273   -1.5806    1.1861 H         1 <0>         0.1269
     43 H9          1.7352   -0.1134    1.1844 H         1 <0>         0.1285
     44 H10         0.2024   -0.1392    2.0889 H         1 <0>         0.1248
     45 H11        -1.8584   -0.2358    0.9500 H         1 <0>         0.1376
     46 H12        -1.9290   -0.0808   -0.8218 H         1 <0>         0.1382
     47 H13        -0.8762   -2.3132   -1.0592 H         1 <0>         0.0879
     48 H14        -0.8055   -2.4683    0.7126 H         1 <0>         0.0884
     49 H15        -3.4768   -1.9268   -0.0276 H         1 <0>         0.4038
     50 H16        -4.9720   -3.7169   -0.1247 H         1 <0>         0.4033
     51 H17        -4.0706   -6.1376   -1.2666 H         1 <0>         0.0870
     52 H18        -4.0000   -6.2927    0.5052 H         1 <0>         0.0787
     53 H19        -5.8662   -7.9015   -1.3567 H         1 <0>         0.0841
     54 H20        -5.7568   -8.0588    0.4155 H         1 <0>         0.0786
     55 H21        -8.2456   -7.3013   -1.1839 H         1 <0>         0.0725
     56 H22        -7.9578   -8.8504   -0.3567 H         1 <0>         0.0832
     57 H23        -8.7343   -8.0197    4.0639 H         1 <0>         0.4088
     58 H24        -9.0974   -6.1739    5.5812 H         1 <0>         0.1359
     59 H25        -9.3845   -3.7459    5.8556 H         1 <0>         0.1399
     60 H26        -8.3615   -3.1565    1.7581 H         1 <0>         0.1300
     61 H27       -10.0780   -9.2268    2.6951 H         1 <0>         0.1222
     62 H28       -10.5678  -11.6290    2.4658 H         1 <0>         0.1255
     63 H29        -8.8207  -13.1714    1.6708 H         1 <0>         0.1255
     64 H30        -6.5840  -12.3114    1.1043 H         1 <0>         0.1262
     65 H31        -6.0967   -9.9079    1.3257 H         1 <0>         0.1228
     66 H32         0.4744   -0.3295   -0.8281 H         1 <0>         0.4303
@<TRIPOS>BOND
     1    1    2 1
     2    1   39 1
     3    1   40 1
     4    1   41 1
     5    2    3 1
     6    2    4 1
     7    2   66 1
     8    3   42 1
     9    3   43 1
    10    3   44 1
    11    4    5 1
    12    4   45 1
    13    4   46 1
    14    5    6 1
    15    5   47 1
    16    5   48 1
    17    6    7 am
    18    6   49 1
    19    7    8 2
    20    7    9 am
    21    9   10 1
    22    9   50 1
    23   10   11 1
    24   10   51 1
    25   10   52 1
    26   11   12 1
    27   11   28 1
    28   11   13 1
    29   13   14 1
    30   13   53 1
    31   13   54 1
    32   14   15 1
    33   14   55 1
    34   14   56 1
    35   15   16 1
    36   15   26 1
    37   15   17 1
    38   17   18 1
    39   17   19 1
    40   17   33 1
    41   19   20 1
    42   19   57 1
    43   20   25 ar
    44   20   21 ar
    45   21   22 ar
    46   21   58 1
    47   22   23 ar
    48   22   59 1
    49   23   24 ar
    50   23   29 1
    51   24   25 ar
    52   24   60 1
    53   25   26 1
    54   26   27 1
    55   26   28 1
    56   29   30 1
    57   29   31 1
    58   29   32 1
    59   33   38 ar
    60   33   34 ar
    61   34   35 ar
    62   34   61 1
    63   35   36 ar
    64   35   62 1
    65   36   37 ar
    66   36   63 1
    67   37   38 ar
    68   37   64 1
    69   38   65 1
@<TRIPOS>MOLECULE
ZINC44607942
   48    51     0     0     0
SMALL
USER_CHARGES

@<TRIPOS>ATOM
      1 C1         -0.0167    1.3781    0.0096 C.ar      1 <0>        -0.1084
      2 C2          1.1709    2.0855    0.0021 C.ar      1 <0>        -0.1149
      3 C3          2.3773    1.4107   -0.0130 C.ar      1 <0>        -0.1074
      4 C4          2.3960    0.0285   -0.0201 C.ar      1 <0>        -0.1056
      5 C5          1.2084   -0.6789   -0.0117 C.ar      1 <0>        -0.1084
      6 C6          0.0021   -0.0041    0.0020 C.ar      1 <0>        -0.1122
      7 C7          3.7112   -0.7071   -0.0376 C.3       1 <0>         0.2081
      8 H1          4.5003   -0.0447   -0.3933 H         1 <0>         0.0829
      9 C8          4.0466   -1.2045    1.3714 C.3       1 <0>        -0.1286
     10 H2          3.2933   -1.9268    1.6859 H         1 <0>         0.0990
     11 C9          4.0633   -0.0357    2.3531 C.3       1 <0>        -0.1175
     12 C10         5.2154    0.9108    2.0031 C.3       1 <0>        -0.1500
     13 C11         6.5261    0.1180    2.0146 C.3       1 <0>         0.0552
     14 H3          6.6962   -0.2905    3.0107 H         1 <0>         0.0875
     15 O1          6.4355   -0.9491    1.0702 O.3       1 <0>        -0.3784
     16 C12         5.4151   -1.8820    1.3503 C.3       1 <0>         0.1626
     17 H4          5.6035   -2.3500    2.3165 H         1 <0>         0.0804
     18 C13         5.4513   -2.9324    0.2682 C.ar      1 <0>        -0.1763
     19 C14         6.3833   -3.9524    0.3557 C.ar      1 <0>        -0.0039
     20 C15         6.4434   -4.9262   -0.6223 C.ar      1 <0>        -0.2400
     21 C16         5.5718   -4.8870   -1.6955 C.ar      1 <0>        -0.0096
     22 C17         4.6388   -3.8744   -1.7889 C.ar      1 <0>        -0.1910
     23 C18         4.5747   -2.8934   -0.8045 C.ar      1 <0>         0.2701
     24 N1          3.6134   -1.8822   -0.9154 N.pl3     1 <0>        -0.7339
     25 C19         7.4609   -6.0331   -0.5199 C.3       1 <0>         0.5125
     26 F1          6.9115   -7.1077    0.1876 F         1 <0>        -0.1759
     27 F2          7.8212   -6.4556   -1.8040 F         1 <0>        -0.1760
     28 F3          8.5948   -5.5635    0.1517 F         1 <0>        -0.1835
     29 C20         7.6857    1.0414    1.6356 C.3       1 <0>         0.0034
     30 N2          8.9418    0.2799    1.6470 N.4       1 <0>        -0.6363
     31 H5         -0.9591    1.9053    0.0259 H         1 <0>         0.1277
     32 H6          1.1563    3.1654    0.0076 H         1 <0>         0.1273
     33 H7          3.3051    1.9634   -0.0196 H         1 <0>         0.1198
     34 H8          1.2231   -1.7588   -0.0176 H         1 <0>         0.1230
     35 H9         -0.9258   -0.5567    0.0082 H         1 <0>         0.1277
     36 H10         3.1184    0.5040    2.2911 H         1 <0>         0.0899
     37 H11         4.1993   -0.4143    3.3661 H         1 <0>         0.0764
     38 H12         5.0527    1.3334    1.0116 H         1 <0>         0.0849
     39 H13         5.2667    1.7121    2.7401 H         1 <0>         0.0902
     40 H14         7.0662   -3.9867    1.1916 H         1 <0>         0.1327
     41 H15         5.6216   -5.6482   -2.4601 H         1 <0>         0.1410
     42 H16         3.9585   -3.8430   -2.6272 H         1 <0>         0.1386
     43 H17         2.8928   -1.9561   -1.5606 H         1 <0>         0.4114
     44 H18         7.5159    1.4473    0.6383 H         1 <0>         0.1410
     45 H19         7.7495    1.8583    2.3543 H         1 <0>         0.1481
     46 H20         9.0990   -0.0958    2.5701 H         1 <0>         0.4346
     47 H21         8.8828   -0.4763    0.9816 H         1 <0>         0.4428
     48 H22         9.7066    0.8889    1.3970 H         1 <0>         0.4390
@<TRIPOS>BOND
     1    1    6 ar
     2    1    2 ar
     3    1   31 1
     4    2    3 ar
     5    2   32 1
     6    3    4 ar
     7    3   33 1
     8    4    5 ar
     9    4    7 1
    10    5    6 ar
    11    5   34 1
    12    6   35 1
    13    7    8 1
    14    7   24 1
    15    7    9 1
    16    9   10 1
    17    9   16 1
    18    9   11 1
    19   11   12 1
    20   11   36 1
    21   11   37 1
    22   12   13 1
    23   12   38 1
    24   12   39 1
    25   13   14 1
    26   13   15 1
    27   13   29 1
    28   15   16 1
    29   16   17 1
    30   16   18 1
    31   18   23 ar
    32   18   19 ar
    33   19   20 ar
    34   19   40 1
    35   20   21 ar
    36   20   25 1
    37   21   22 ar
    38   21   41 1
    39   22   23 ar
    40   22   42 1
    41   23   24 1
    42   24   43 1
    43   25   26 1
    44   25   27 1
    45   25   28 1
    46   29   30 1
    47   29   44 1
    48   29   45 1
    49   30   46 1
    50   30   47 1
    51   30   48 1
@<TRIPOS>MOLECULE
ZINC09330983
   42    45     0     0     0
SMALL
USER_CHARGES
(4aS,5R,10bS)-9-methyl-5-phenyl-3,4,4a,5,6,10b-hexahydro-2H-pyrano[3,2-c]quinoline
@<TRIPOS>ATOM
      1 C1         -2.3609   -2.8030   -0.9239 C.3       1 <0>        -0.1065
      2 C2         -1.1346   -2.0677   -0.4477 C.ar      1 <0>        -0.1446
      3 C3         -0.0246   -2.7771   -0.0263 C.ar      1 <0>        -0.0665
      4 C4          1.0996   -2.1042    0.4076 C.ar      1 <0>        -0.1914
      5 C5          1.1166   -0.7131    0.4211 C.ar      1 <0>         0.2305
      6 C6          0.0021   -0.0041    0.0020 C.ar      1 <0>        -0.1539
      7 C7         -1.1212   -0.6864   -0.4331 C.ar      1 <0>        -0.0530
      8 C8         -0.0184    1.5043    0.0103 C.3       1 <0>         0.1496
      9 H1         -0.5496    1.8649   -0.8706 H         1 <0>         0.0685
     10 C9          1.4093    2.0450   -0.0004 C.3       1 <0>        -0.1220
     11 H2          1.8777    1.8017   -0.9541 H         1 <0>         0.0846
     12 C10         1.4094    3.5625    0.1634 C.3       1 <0>        -0.1164
     13 C11         0.6327    3.9419    1.4277 C.3       1 <0>        -0.1585
     14 C12        -0.7825    3.3639    1.3293 C.3       1 <0>         0.0581
     15 O1         -0.6988    1.9456    1.1878 O.3       1 <0>        -0.3722
     16 C13         2.2042    1.3900    1.1326 C.3       1 <0>         0.2069
     17 H3          1.7014    1.5603    2.0846 H         1 <0>         0.0822
     18 N1          2.2710   -0.0522    0.8553 N.pl3     1 <0>        -0.7448
     19 C14         3.5959    1.9662    1.1798 C.ar      1 <0>        -0.0916
     20 C15         4.5514    1.5401    0.2763 C.ar      1 <0>        -0.1095
     21 C16         5.8266    2.0721    0.3165 C.ar      1 <0>        -0.1175
     22 C17         6.1493    3.0227    1.2670 C.ar      1 <0>        -0.1167
     23 C18         5.1952    3.4449    2.1738 C.ar      1 <0>        -0.1171
     24 C19         3.9186    2.9167    2.1302 C.ar      1 <0>        -0.1060
     25 H4         -3.0250   -2.9869   -0.0794 H         1 <0>         0.0647
     26 H5         -2.8794   -2.2001   -1.6693 H         1 <0>         0.0618
     27 H6         -2.0651   -3.7538   -1.3673 H         1 <0>         0.0622
     28 H7         -0.0377   -3.8569   -0.0363 H         1 <0>         0.1218
     29 H8          1.9667   -2.6578    0.7364 H         1 <0>         0.1212
     30 H9         -1.9906   -0.1365   -0.7621 H         1 <0>         0.1204
     31 H10         2.4361    3.9186    0.2474 H         1 <0>         0.0752
     32 H11         0.9359    4.0214   -0.7046 H         1 <0>         0.0679
     33 H12         1.1355    3.5300    2.3027 H         1 <0>         0.0719
     34 H13         0.5791    5.0273    1.5117 H         1 <0>         0.0759
     35 H14        -1.3395    3.6077    2.2339 H         1 <0>         0.0953
     36 H15        -1.2897    3.7874    0.4623 H         1 <0>         0.0508
     37 H16         3.1026   -0.5380    0.9711 H         1 <0>         0.4022
     38 H17         4.3006    0.7942   -0.4634 H         1 <0>         0.1223
     39 H18         6.5721    1.7420   -0.3917 H         1 <0>         0.1233
     40 H19         7.1468    3.4351    1.3012 H         1 <0>         0.1231
     41 H20         5.4474    4.1873    2.9166 H         1 <0>         0.1245
     42 H21         3.1733    3.2463    2.8390 H         1 <0>         0.1230
@<TRIPOS>BOND
     1    1    2 1
     2    1   25 1
     3    1   26 1
     4    1   27 1
     5    2    7 ar
     6    2    3 ar
     7    3    4 ar
     8    3   28 1
     9    4    5 ar
    10    4   29 1
    11    5   18 1
    12    5    6 ar
    13    6    7 ar
    14    6    8 1
    15    7   30 1
    16    8    9 1
    17    8   15 1
    18    8   10 1
    19   10   11 1
    20   10   12 1
    21   10   16 1
    22   12   13 1
    23   12   31 1
    24   12   32 1
    25   13   14 1
    26   13   33 1
    27   13   34 1
    28   14   15 1
    29   14   35 1
    30   14   36 1
    31   16   17 1
    32   16   18 1
    33   16   19 1
    34   18   37 1
    35   19   24 ar
    36   19   20 ar
    37   20   21 ar
    38   20   38 1
    39   21   22 ar
    40   21   39 1
    41   22   23 ar
    42   22   40 1
    43   23   24 ar
    44   23   41 1
    45   24   42 1
@<TRIPOS>MOLECULE
ZINC15017853
   45    48     0     0     0
SMALL
USER_CHARGES
(4aS,5R,10bS)-9-ethyl-5-phenyl-3,4,4a,5,6,10b-hexahydro-2H-pyrano[3,2-c]quinoline
@<TRIPOS>ATOM
      1 C1         -2.9455    0.7089    1.4605 C.3       1 <0>        -0.1476
      2 C2         -2.5136    0.9794    0.0179 C.3       1 <0>        -0.0772
      3 C3         -1.2194    1.7515    0.0173 C.ar      1 <0>        -0.1396
      4 C4         -0.0126    1.0758    0.0080 C.ar      1 <0>        -0.0636
      5 C5          1.1729    1.7825    0.0004 C.ar      1 <0>        -0.1922
      6 C6          1.1545    3.1736    0.0100 C.ar      1 <0>         0.2315
      7 C7         -0.0557    3.8486    0.0275 C.ar      1 <0>        -0.1547
      8 C8         -1.2406    3.1327    0.0320 C.ar      1 <0>        -0.0500
      9 C9         -0.1141    5.3559    0.0457 C.3       1 <0>         0.1488
     10 H1         -0.9402    5.6939   -0.5800 H         1 <0>         0.0683
     11 C10         1.1955    5.9339   -0.4854 C.3       1 <0>        -0.1219
     12 H2          1.2817    5.6792   -1.5417 H         1 <0>         0.0845
     13 C11         1.2123    7.4524   -0.3318 C.3       1 <0>        -0.1156
     14 C12         0.9419    7.8231    1.1294 C.3       1 <0>        -0.1583
     15 C13        -0.3938    7.2059    1.5556 C.3       1 <0>         0.0581
     16 O1         -0.3278    5.7891    1.3913 O.3       1 <0>        -0.3721
     17 C14         2.3666    5.3116    0.2802 C.3       1 <0>         0.2070
     18 H3          2.2390    5.4779    1.3499 H         1 <0>         0.0822
     19 N1          2.3686    3.8691   -0.0032 N.pl3     1 <0>        -0.7448
     20 C15         3.6631    5.9250   -0.1823 C.ar      1 <0>        -0.0913
     21 C16         4.2359    5.5156   -1.3719 C.ar      1 <0>        -0.1094
     22 C17         5.4231    6.0811   -1.7981 C.ar      1 <0>        -0.1175
     23 C18         6.0418    7.0501   -1.0305 C.ar      1 <0>        -0.1168
     24 C19         5.4718    7.4557    0.1617 C.ar      1 <0>        -0.1170
     25 C20         4.2826    6.8930    0.5859 C.ar      1 <0>        -0.1062
     26 H4         -3.8815    0.1504    1.4609 H         1 <0>         0.0549
     27 H5         -2.1753    0.1275    1.9674 H         1 <0>         0.0542
     28 H6         -3.0872    1.6560    1.9810 H         1 <0>         0.0548
     29 H7         -3.2837    1.5608   -0.4890 H         1 <0>         0.0672
     30 H8         -2.3718    0.0322   -0.5026 H         1 <0>         0.0677
     31 H9          0.0021   -0.0041    0.0020 H         1 <0>         0.1211
     32 H10         2.1154    1.2554   -0.0125 H         1 <0>         0.1208
     33 H11        -2.1853    3.6561    0.0424 H         1 <0>         0.1197
     34 H12         2.1879    7.8367   -0.6293 H         1 <0>         0.0752
     35 H13         0.4410    7.8900   -0.9657 H         1 <0>         0.0678
     36 H14         1.7418    7.4337    1.7591 H         1 <0>         0.0719
     37 H15         0.8914    8.9074    1.2280 H         1 <0>         0.0760
     38 H16        -0.5873    7.4429    2.6018 H         1 <0>         0.0951
     39 H17        -1.1952    7.6078    0.9356 H         1 <0>         0.0507
     40 H18         3.1990    3.4065   -0.1967 H         1 <0>         0.4022
     41 H19         3.7542    4.7561   -1.9699 H         1 <0>         0.1223
     42 H20         5.8686    5.7639   -2.7294 H         1 <0>         0.1233
     43 H21         6.9708    7.4900   -1.3622 H         1 <0>         0.1231
     44 H22         5.9554    8.2125    0.7615 H         1 <0>         0.1245
     45 H23         3.8372    7.2099    1.5174 H         1 <0>         0.1230
@<TRIPOS>BOND
     1    1    2 1
     2    1   26 1
     3    1   27 1
     4    1   28 1
     5    2    3 1
     6    2   29 1
     7    2   30 1
     8    3    8 ar
     9    3    4 ar
    10    4    5 ar
    11    4   31 1
    12    5    6 ar
    13    5   32 1
    14    6   19 1
    15    6    7 ar
    16    7    8 ar
    17    7    9 1
    18    8   33 1
    19    9   10 1
    20    9   16 1
    21    9   11 1
    22   11   12 1
    23   11   13 1
    24   11   17 1
    25   13   14 1
    26   13   34 1
    27   13   35 1
    28   14   15 1
    29   14   36 1
    30   14   37 1
    31   15   16 1
    32   15   38 1
    33   15   39 1
    34   17   18 1
    35   17   19 1
    36   17   20 1
    37   19   40 1
    38   20   25 ar
    39   20   21 ar
    40   21   22 ar
    41   21   41 1
    42   22   23 ar
    43   22   42 1
    44   23   24 ar
    45   23   43 1
    46   24   25 ar
    47   24   44 1
    48   25   45 1
@<TRIPOS>MOLECULE
ZINC09280365
   39    42     0     0     0
SMALL
USER_CHARGES
chloro-phenyl-BLAH
@<TRIPOS>ATOM
      1 C1         -2.7520    4.5517    4.7416 C.ar      1 <0>        -0.1160
      2 C2         -1.3838    4.6590    4.5761 C.ar      1 <0>        -0.1165
      3 C3         -0.7884    4.1885    3.4207 C.ar      1 <0>        -0.1057
      4 C4         -1.5611    3.6104    2.4310 C.ar      1 <0>        -0.0926
      5 C5         -2.9300    3.5079    2.5942 C.ar      1 <0>        -0.1102
      6 C6         -3.5249    3.9748    3.7513 C.ar      1 <0>        -0.1169
      7 C7         -0.9120    3.0975    1.1713 C.3       1 <0>         0.2041
      8 H1          0.0592    3.5731    1.0351 H         1 <0>         0.0852
      9 C8         -0.7386    1.5783    1.2581 C.3       1 <0>        -0.1225
     10 H2         -1.7259    1.1188    1.3046 H         1 <0>         0.0867
     11 C9          0.0476    1.2095    2.5133 C.3       1 <0>        -0.1159
     12 C10         1.4764    1.7493    2.3996 C.3       1 <0>        -0.1590
     13 C11         2.1146    1.1905    1.1242 C.3       1 <0>         0.0582
     14 O1          1.3287    1.5808   -0.0021 O.3       1 <0>        -0.3716
     15 C12        -0.0127    1.0858    0.0080 C.3       1 <0>         0.1494
     16 H3          0.0021   -0.0041    0.0020 H         1 <0>         0.0727
     17 C13        -0.7196    1.5861   -1.2274 C.ar      1 <0>        -0.1472
     18 C14        -0.5259    0.9206   -2.4255 C.ar      1 <0>        -0.0414
     19 C15        -1.1560    1.3586   -3.5754 C.ar      1 <0>        -0.0921
     20 C16        -1.9840    2.4670   -3.5338 C.ar      1 <0>        -0.0553
     21 C17        -2.1831    3.1338   -2.3420 C.ar      1 <0>        -0.1835
     22 C18        -1.5520    2.6933   -1.1832 C.ar      1 <0>         0.2411
     23 N1         -1.7735    3.3829    0.0149 N.pl3     1 <0>        -0.7399
     24 Cl1        -0.9081    0.5177   -5.0737 Cl        1 <0>        -0.0765
     25 H4         -3.2171    4.9189    5.6445 H         1 <0>         0.1235
     26 H5         -0.7800    5.1100    5.3497 H         1 <0>         0.1249
     27 H6          0.2806    4.2723    3.2913 H         1 <0>         0.1236
     28 H7         -3.5342    3.0602    1.8191 H         1 <0>         0.1224
     29 H8         -4.5939    3.8914    3.8805 H         1 <0>         0.1237
     30 H9          0.0764    0.1249    2.6180 H         1 <0>         0.0693
     31 H10        -0.4371    1.6460    3.3866 H         1 <0>         0.0765
     32 H11         2.0563    1.4337    3.2669 H         1 <0>         0.0772
     33 H12         1.4528    2.8379    2.3497 H         1 <0>         0.0724
     34 H13         2.1529    0.1027    1.1823 H         1 <0>         0.0521
     35 H14         3.1250    1.5854    1.0179 H         1 <0>         0.0966
     36 H15         0.1200    0.0558   -2.4621 H         1 <0>         0.1324
     37 H16        -2.4735    2.8099   -4.4334 H         1 <0>         0.1340
     38 H17        -2.8292    3.9987   -2.3091 H         1 <0>         0.1316
     39 H18        -2.4848    4.0390    0.0810 H         1 <0>         0.4048
@<TRIPOS>BOND
     1    1    6 ar
     2    1    2 ar
     3    1   25 1
     4    2    3 ar
     5    2   26 1
     6    3    4 ar
     7    3   27 1
     8    4    5 ar
     9    4    7 1
    10    5    6 ar
    11    5   28 1
    12    6   29 1
    13    7    8 1
    14    7   23 1
    15    7    9 1
    16    9   10 1
    17    9   15 1
    18    9   11 1
    19   11   12 1
    20   11   30 1
    21   11   31 1
    22   12   13 1
    23   12   32 1
    24   12   33 1
    25   13   14 1
    26   13   34 1
    27   13   35 1
    28   14   15 1
    29   15   16 1
    30   15   17 1
    31   17   22 ar
    32   17   18 ar
    33   18   19 ar
    34   18   36 1
    35   19   20 ar
    36   19   24 1
    37   20   21 ar
    38   20   37 1
    39   21   22 ar
    40   21   38 1
    41   22   23 1
    42   23   39 1
@<TRIPOS>MOLECULE
ZINC05956496
   28    30     0     0     0
SMALL
USER_CHARGES

@<TRIPOS>ATOM
      1 C1         -0.0187    1.5258    0.0104 C.3       1 <0>        -0.1476
      2 C2          0.0021   -0.0041    0.0020 C.3       1 <0>        -0.0856
      3 C3          0.7074   -0.4901   -1.2379 C.ar      1 <0>        -0.0449
      4 C4         -0.0186   -0.7172   -2.3971 C.ar      1 <0>        -0.1474
      5 C5          0.6154   -1.1617   -3.5370 C.ar      1 <0>        -0.0579
      6 C6          1.9906   -1.3828   -3.5223 C.ar      1 <0>        -0.1102
      7 C7          2.9543   -1.8442   -4.5384 C.ar      1 <0>        -0.1047
      8 C8          2.8314   -2.2220   -5.8735 C.ar      1 <0>        -0.0622
      9 C9          3.9479   -2.6152   -6.5792 C.ar      1 <0>        -0.1506
     10 C10         5.1908   -2.6356   -5.9648 C.ar      1 <0>        -0.0839
     11 C11         5.3264   -2.2644   -4.6446 C.ar      1 <0>        -0.1441
     12 C12         4.2107   -1.8642   -3.9152 C.ar      1 <0>         0.1393
     13 N1          4.0545   -1.4474   -2.6053 N.pl3     1 <0>        -0.6181
     14 H1          4.7730   -1.3720   -1.9581 H         1 <0>         0.4168
     15 C13         2.7268   -1.1536   -2.3506 C.ar      1 <0>         0.1445
     16 C14         2.0693   -0.6994   -1.2112 C.ar      1 <0>        -0.1433
     17 H2          1.0039    1.9031    0.0027 H         1 <0>         0.0551
     18 H3         -0.5459    1.8868   -0.8726 H         1 <0>         0.0573
     19 H4         -0.5289    1.8773    0.9072 H         1 <0>         0.0593
     20 H5          0.5293   -0.3651    0.8851 H         1 <0>         0.0722
     21 H6         -1.0205   -0.3814    0.0098 H         1 <0>         0.0755
     22 H7         -1.0848   -0.5456   -2.4065 H         1 <0>         0.1266
     23 H8          0.0479   -1.3383   -4.4388 H         1 <0>         0.1257
     24 H9          1.8642   -2.2071   -6.3539 H         1 <0>         0.1252
     25 H10         3.8544   -2.9087   -7.6143 H         1 <0>         0.1273
     26 H11         6.0601   -2.9456   -6.5257 H         1 <0>         0.1292
     27 H12         6.2991   -2.2843   -4.1756 H         1 <0>         0.1236
     28 H13         2.6260   -0.5148   -0.3043 H         1 <0>         0.1228
@<TRIPOS>BOND
     1    1    2 1
     2    1   17 1
     3    1   18 1
     4    1   19 1
     5    2    3 1
     6    2   20 1
     7    2   21 1
     8    3   16 ar
     9    3    4 ar
    10    4    5 ar
    11    4   22 1
    12    5    6 ar
    13    5   23 1
    14    6   15 ar
    15    6    7 1
    16    7   12 ar
    17    7    8 ar
    18    8    9 ar
    19    8   24 1
    20    9   10 ar
    21    9   25 1
    22   10   11 ar
    23   10   26 1
    24   11   12 ar
    25   11   27 1
    26   12   13 1
    27   13   14 1
    28   13   15 1
    29   15   16 ar
    30   16   28 1
@<TRIPOS>MOLECULE
ZINC01690207
   28    31     0     0     0
SMALL
USER_CHARGES
BLAH
@<TRIPOS>ATOM
      1 C1         -2.1820   -6.0375   -0.0080 C.ar      1 <0>        -0.1104
      2 C2         -2.9943   -4.9066    0.0054 C.ar      1 <0>        -0.1189
      3 C3         -2.4527   -3.6566    0.0069 C.ar      1 <0>        -0.1071
      4 C4         -1.0582   -3.5035   -0.0061 C.ar      1 <0>        -0.0505
      5 C5         -0.2312   -4.6522   -0.0197 C.ar      1 <0>        -0.0210
      6 C6         -0.8248   -5.9253   -0.0204 C.ar      1 <0>        -0.1066
      7 C7          1.1699   -4.5058   -0.0320 C.ar      1 <0>        -0.1408
      8 C8          1.7268   -3.2687   -0.0307 C.ar      1 <0>        -0.0523
      9 C9          0.9244   -2.1163   -0.0181 C.ar      1 <0>        -0.1155
     10 C10        -0.4659   -2.2201   -0.0054 C.ar      1 <0>         0.1446
     11 N1         -1.0039   -0.9509    0.0065 N.pl3     1 <0>        -0.5984
     12 H1         -1.9530   -0.7512    0.0163 H         1 <0>         0.4167
     13 C11         0.0021   -0.0041    0.0020 C.ar      1 <0>         0.1263
     14 C12         1.2348   -0.6752   -0.0133 C.ar      1 <0>        -0.0965
     15 C13         2.4238    0.0508   -0.0208 C.ar      1 <0>        -0.0648
     16 C14         2.3842    1.4282   -0.0130 C.ar      1 <0>        -0.1460
     17 C15         1.1672    2.0926    0.0022 C.ar      1 <0>        -0.0873
     18 C16        -0.0168    1.3873    0.0097 C.ar      1 <0>        -0.1374
     19 H2         -2.6349   -7.0180   -0.0082 H         1 <0>         0.1255
     20 H3         -4.0681   -5.0220    0.0150 H         1 <0>         0.1244
     21 H4         -3.0939   -2.7875    0.0176 H         1 <0>         0.1187
     22 H5         -0.2075   -6.8115   -0.0303 H         1 <0>         0.1316
     23 H6          1.8025   -5.3810   -0.0428 H         1 <0>         0.1320
     24 H7          2.8021   -3.1689   -0.0405 H         1 <0>         0.1264
     25 H8          3.3731   -0.4641   -0.0322 H         1 <0>         0.1261
     26 H9          3.3049    1.9927   -0.0191 H         1 <0>         0.1276
     27 H10         1.1470    3.1724    0.0081 H         1 <0>         0.1296
     28 H11        -0.9593    1.9145    0.0170 H         1 <0>         0.1239
@<TRIPOS>BOND
     1    1    6 ar
     2    1    2 ar
     3    1   19 1
     4    2    3 ar
     5    2   20 1
     6    3    4 ar
     7    3   21 1
     8    4   10 ar
     9    4    5 ar
    10    5    6 ar
    11    5    7 ar
    12    6   22 1
    13    7    8 ar
    14    7   23 1
    15    8    9 ar
    16    8   24 1
    17    9   14 1
    18    9   10 ar
    19   10   11 1
    20   11   12 1
    21   11   13 1
    22   13   18 ar
    23   13   14 ar
    24   14   15 ar
    25   15   16 ar
    26   15   25 1
    27   16   17 ar
    28   16   26 1
    29   17   18 ar
    30   17   27 1
    31   18   28 1
@<TRIPOS>MOLECULE
ZINC22003756
   34    36     0     0     0
SMALL
USER_CHARGES
2-tert-butyl-9H-carbazole
@<TRIPOS>ATOM
      1 C1          2.9688    9.2904   -1.2309 C.3       1 <0>        -0.1407
      2 C2          2.1099    9.1352    0.0257 C.3       1 <0>        -0.0285
      3 C3          1.0287   10.2177    0.0413 C.3       1 <0>        -0.1467
      4 C4          2.9923    9.2778    1.2674 C.3       1 <0>        -0.1407
      5 C5          1.4596    7.7757    0.0250 C.ar      1 <0>        -0.0329
      6 C6          0.0767    7.6752    0.0380 C.ar      1 <0>        -0.1527
      7 C7         -0.5294    6.4375    0.0379 C.ar      1 <0>        -0.0586
      8 C8          0.2518    5.2842    0.0252 C.ar      1 <0>        -0.1129
      9 C9         -0.0647    3.8441    0.0219 C.ar      1 <0>        -0.1084
     10 C10        -1.2573    3.1245    0.0303 C.ar      1 <0>        -0.0624
     11 C11        -1.2260    1.7468    0.0174 C.ar      1 <0>        -0.1532
     12 C12        -0.0126    1.0758    0.0080 C.ar      1 <0>        -0.0846
     13 C13         1.1748    1.7752    0.0004 C.ar      1 <0>        -0.1457
     14 C14         1.1636    3.1669    0.0070 C.ar      1 <0>         0.1350
     15 N1          2.1795    4.1059    0.0013 N.pl3     1 <0>        -0.6303
     16 H1          3.2299    3.7797   -0.0103 H         1 <0>         0.4417
     17 C15         1.6508    5.3842    0.0121 C.ar      1 <0>         0.1574
     18 C16         2.2444    6.6430    0.0119 C.ar      1 <0>        -0.1423
     19 H2          3.7461    8.5122   -1.2421 H         1 <0>         0.0561
     20 H3          3.4434   10.2827   -1.2303 H         1 <0>         0.0602
     21 H4          2.3343    9.1879   -2.1236 H         1 <0>         0.0579
     22 H5          0.4112   10.1061    0.9447 H         1 <0>         0.0607
     23 H6          0.3943   10.1152   -0.8515 H         1 <0>         0.0607
     24 H7          1.5034   11.2100    0.0418 H         1 <0>         0.0596
     25 H8          2.3748    9.1662    2.1708 H         1 <0>         0.0579
     26 H9          3.4669   10.2701    1.2679 H         1 <0>         0.0602
     27 H10         3.7696    8.4996    1.2561 H         1 <0>         0.0561
     28 H11        -0.5277    8.5702    0.0485 H         1 <0>         0.1311
     29 H12        -1.6067    6.3619    0.0477 H         1 <0>         0.1242
     30 H13        -2.2037    3.6447    0.0418 H         1 <0>         0.1235
     31 H14        -2.1499    1.1876    0.0187 H         1 <0>         0.1259
     32 H15         0.0021   -0.0041    0.0020 H         1 <0>         0.1279
     33 H16         2.1145    1.2431   -0.0111 H         1 <0>         0.1228
     34 H17         3.3206    6.7322    0.0019 H         1 <0>         0.1216
@<TRIPOS>BOND
     1    1    2 1
     2    1   19 1
     3    1   20 1
     4    1   21 1
     5    2    3 1
     6    2    4 1
     7    2    5 1
     8    3   22 1
     9    3   23 1
    10    3   24 1
    11    4   25 1
    12    4   26 1
    13    4   27 1
    14    5   18 ar
    15    5    6 ar
    16    6    7 ar
    17    6   28 1
    18    7    8 ar
    19    7   29 1
    20    8   17 ar
    21    8    9 1
    22    9   14 ar
    23    9   10 ar
    24   10   11 ar
    25   10   30 1
    26   11   12 ar
    27   11   31 1
    28   12   13 ar
    29   12   32 1
    30   13   14 ar
    31   13   33 1
    32   14   15 1
    33   15   16 1
    34   15   17 1
    35   17   18 ar
    36   18   34 1
@<TRIPOS>MOLECULE
ZINC22003772
   25    27     0     0     0
SMALL
USER_CHARGES
2-(trifluoromethyl)-9H-carbazole
@<TRIPOS>ATOM
      1 C1         -1.2260    1.7468    0.0174 C.ar      1 <0>        -0.1515
      2 C2         -0.0126    1.0758    0.0080 C.ar      1 <0>        -0.0765
      3 C3          1.1748    1.7752    0.0004 C.ar      1 <0>        -0.1451
      4 C4          1.1636    3.1669    0.0070 C.ar      1 <0>         0.1425
      5 C5         -0.0647    3.8441    0.0219 C.ar      1 <0>        -0.1170
      6 C6         -1.2573    3.1245    0.0303 C.ar      1 <0>        -0.0554
      7 C7          0.2518    5.2842    0.0252 C.ar      1 <0>        -0.0778
      8 C8         -0.5294    6.4375    0.0379 C.ar      1 <0>        -0.0591
      9 C9          0.0767    7.6752    0.0380 C.ar      1 <0>        -0.1083
     10 C10         1.4596    7.7757    0.0250 C.ar      1 <0>        -0.1486
     11 C11         2.2444    6.6430    0.0119 C.ar      1 <0>        -0.0916
     12 C12         1.6508    5.3842    0.0121 C.ar      1 <0>         0.1509
     13 N1          2.1795    4.1059    0.0013 N.pl3     1 <0>        -0.6253
     14 H1          3.2299    3.7797   -0.0103 H         1 <0>         0.4476
     15 C13         2.1099    9.1352    0.0257 C.3       1 <0>         0.5110
     16 F1          2.2987    9.5625   -1.2930 F         1 <0>        -0.1748
     17 F2          1.2869   10.0454    0.6976 F         1 <0>        -0.1740
     18 F3          3.3477    9.0597    0.6732 F         1 <0>        -0.1772
     19 H2         -2.1499    1.1876    0.0187 H         1 <0>         0.1291
     20 H3          0.0021   -0.0041    0.0020 H         1 <0>         0.1311
     21 H4          2.1145    1.2431   -0.0111 H         1 <0>         0.1263
     22 H5         -2.2037    3.6447    0.0418 H         1 <0>         0.1271
     23 H6         -1.6067    6.3619    0.0477 H         1 <0>         0.1384
     24 H7         -0.5277    8.5702    0.0485 H         1 <0>         0.1407
     25 H8          3.3206    6.7322    0.0019 H         1 <0>         0.1377
@<TRIPOS>BOND
     1    1    6 ar
     2    1    2 ar
     3    1   19 1
     4    2    3 ar
     5    2   20 1
     6    3    4 ar
     7    3   21 1
     8    4   13 1
     9    4    5 ar
    10    5    6 ar
    11    5    7 1
    12    6   22 1
    13    7   12 ar
    14    7    8 ar
    15    8    9 ar
    16    8   23 1
    17    9   10 ar
    18    9   24 1
    19   10   11 ar
    20   10   15 1
    21   11   12 ar
    22   11   25 1
    23   12   13 1
    24   13   14 1
    25   15   16 1
    26   15   17 1
    27   15   18 1
@<TRIPOS>MOLECULE
ZINC02601603
   33    35     0     0     0
SMALL
USER_CHARGES
(4S)-4-(3-hydroxyphenyl)-2-thioxo-1,3,4,6,7,8-hexahydroquinazolin-5-one
@<TRIPOS>ATOM
      1 C1         -2.4832    4.0023    3.6212 C.ar      1 <0>        -0.0822
      2 C2         -1.7969    3.6124    2.4856 C.ar      1 <0>        -0.1443
      3 C3         -2.0655    4.2162    1.2714 C.ar      1 <0>        -0.0670
      4 C4         -3.0287    5.2032    1.1874 C.ar      1 <0>        -0.1124
      5 C5         -3.7225    5.5921    2.3239 C.ar      1 <0>         0.1540
      6 C6         -3.4471    4.9885    3.5425 C.ar      1 <0>        -0.2057
      7 O1         -4.6701    6.5630    2.2440 O.3       1 <0>        -0.5079
      8 C7         -1.3114    3.7932    0.0371 C.3       1 <0>         0.2400
      9 H1         -1.8482    4.0617   -0.8848 H         1 <0>         0.1017
     10 C8          0.0366    4.4660    0.0325 C.2       1 <0>        -0.2928
     11 C9          1.1764    3.7451    0.0128 C.2       1 <0>         0.2211
     12 C10         2.5247    4.4236   -0.0040 C.3       1 <0>        -0.1004
     13 C11         2.4391    5.7557    0.7441 C.3       1 <0>        -0.1134
     14 C12         1.3729    6.6235    0.0673 C.3       1 <0>        -0.1679
     15 C13         0.0699    5.8728    0.0503 C.2       1 <0>         0.4053
     16 O2         -0.9748    6.4932    0.0520 O.2       1 <0>        -0.4542
     17 N1          1.1400    2.3766    0.0039 N.pl3     1 <0>        -0.6217
     18 C14        -0.0211    1.7077    0.0114 C.2       1 <0>         0.5636
     19 S1          0.0021   -0.0041    0.0020 S.2       1 <0>        -0.6144
     20 N2         -1.1989    2.3441    0.0206 N.pl3     1 <0>        -0.6618
     21 H2         -2.2687    3.5319    4.5694 H         1 <0>         0.1248
     22 H3         -1.0470    2.8378    2.5483 H         1 <0>         0.1128
     23 H4         -3.2411    5.6718    0.2378 H         1 <0>         0.1343
     24 H5         -3.9861    5.2893    4.4287 H         1 <0>         0.1272
     25 H6         -5.2197    6.8707    3.1458 H         1 <0>         0.4336
     26 H7          3.2670    3.7764    0.4862 H         1 <0>         0.0994
     27 H8          2.8294    4.6081   -1.0447 H         1 <0>         0.1094
     28 H9          2.1631    5.5703    1.7926 H         1 <0>         0.0766
     29 H10         3.4153    6.2612    0.7058 H         1 <0>         0.0930
     30 H11         1.2533    7.5618    0.6287 H         1 <0>         0.1022
     31 H12         1.6843    6.8499   -0.9631 H         1 <0>         0.1052
     32 H13         2.0776    1.8015   -0.0097 H         1 <0>         0.4731
     33 H14        -2.1061    1.7220    0.0152 H         1 <0>         0.4686
@<TRIPOS>BOND
     1    1    6 ar
     2    1    2 ar
     3    1   21 1
     4    2    3 ar
     5    2   22 1
     6    3    4 ar
     7    3    8 1
     8    4    5 ar
     9    4   23 1
    10    5    6 ar
    11    5    7 1
    12    6   24 1
    13    7   25 1
    14    8    9 1
    15    8   20 1
    16    8   10 1
    17   10   15 1
    18   10   11 2
    19   11   12 1
    20   11   17 1
    21   12   13 1
    22   12   26 1
    23   12   27 1
    24   13   14 1
    25   13   28 1
    26   13   29 1
    27   14   15 1
    28   14   30 1
    29   14   31 1
    30   15   16 2
    31   17   18 1
    32   17   32 1
    33   18   19 2
    34   18   20 1
    35   20   33 1
@<TRIPOS>MOLECULE
ZINC22309237
   39    41     0     0     0
SMALL
USER_CHARGES
(4S)-4-(3-hydroxyphenyl)-7,7-dimethyl-2-thioxo-3,4,6,8-tetrahydro-1H-quinazolin-5-one
@<TRIPOS>ATOM
      1 C1         -0.0178    1.0320    2.5079 C.3       1 <0>        -0.1449
      2 C2         -0.7280    1.5788    1.2679 C.3       1 <0>        -0.0519
      3 C3         -0.0127    1.0858    0.0080 C.3       1 <0>        -0.0923
      4 C4         -0.7413    1.5851   -1.2150 C.2       1 <0>         0.2283
      5 C5         -2.0785    1.7863   -1.1800 C.2       1 <0>        -0.2912
      6 C6         -2.7603    2.2837   -2.4380 C.3       1 <0>         0.2237
      7 H1         -3.1429    3.2871   -2.1997 H         1 <0>         0.0948
      8 N1         -1.9024    2.5148   -3.6128 N.pl3     1 <0>        -0.6618
      9 C7         -0.5820    2.2718   -3.4951 C.2       1 <0>         0.5620
     10 S1          0.4301    2.5368   -4.8502 S.2       1 <0>        -0.6126
     11 N2         -0.0342    1.8307   -2.3577 N.pl3     1 <0>        -0.6193
     12 C8         -3.8153    1.2789   -2.8231 C.ar      1 <0>        -0.0659
     13 C9         -3.4836    0.2016   -3.6243 C.ar      1 <0>        -0.1472
     14 C10        -4.4479   -0.7250   -3.9747 C.ar      1 <0>        -0.0810
     15 C11        -5.7483   -0.5707   -3.5341 C.ar      1 <0>        -0.1550
     16 C12        -6.0848    0.5121   -2.7350 C.ar      1 <0>         0.1540
     17 C13        -5.1139    1.4376   -2.3801 C.ar      1 <0>        -0.1634
     18 O1         -7.3632    0.6663   -2.3008 O.3       1 <0>        -0.5098
     19 C14        -2.8341    1.5527   -0.0259 C.2       1 <0>         0.4164
     20 O2         -4.0352    1.7355   -0.0470 O.2       1 <0>        -0.4604
     21 C15        -2.1752    1.0766    1.2429 C.3       1 <0>        -0.1585
     22 C16        -0.7156    3.1085    1.2992 C.3       1 <0>        -0.1551
     23 H2          1.0210    1.3933    2.5246 H         1 <0>         0.0647
     24 H3         -0.0232   -0.0676    2.4785 H         1 <0>         0.0631
     25 H4         -0.5407    1.3772    3.4120 H         1 <0>         0.0672
     26 H5          1.0193    1.4664   -0.0003 H         1 <0>         0.1003
     27 H6          0.0020   -0.0141    0.0013 H         1 <0>         0.1101
     28 H7         -2.3435    2.8762   -4.5534 H         1 <0>         0.4775
     29 H8          1.0532    1.6661   -2.3777 H         1 <0>         0.4709
     30 H9         -2.4687    0.0818   -3.9736 H         1 <0>         0.1134
     31 H10        -4.1856   -1.5676   -4.5971 H         1 <0>         0.1288
     32 H11        -6.5023   -1.2922   -3.8120 H         1 <0>         0.1283
     33 H12        -5.3734    2.2817   -1.7583 H         1 <0>         0.1352
     34 H13        -7.6290    1.5253   -1.6672 H         1 <0>         0.4352
     35 H14        -2.1824   -0.0229    1.2761 H         1 <0>         0.1046
     36 H15        -2.7161    1.4733    2.1147 H         1 <0>         0.1035
     37 H16        -1.2269    3.4976    0.4064 H         1 <0>         0.0567
     38 H17         0.3244    3.4666    1.3114 H         1 <0>         0.0646
     39 H18        -1.2354    3.4610    2.2023 H         1 <0>         0.0670
@<TRIPOS>BOND
     1    1    2 1
     2    1   23 1
     3    1   24 1
     4    1   25 1
     5    2   21 1
     6    2    3 1
     7    2   22 1
     8    3    4 1
     9    3   26 1
    10    3   27 1
    11    4   11 1
    12    4    5 2
    13    5    6 1
    14    5   19 1
    15    6    7 1
    16    6    8 1
    17    6   12 1
    18    8    9 1
    19    8   28 1
    20    9   10 2
    21    9   11 1
    22   11   29 1
    23   12   17 ar
    24   12   13 ar
    25   13   14 ar
    26   13   30 1
    27   14   15 ar
    28   14   31 1
    29   15   16 ar
    30   15   32 1
    31   16   17 ar
    32   16   18 1
    33   17   33 1
    34   18   34 1
    35   19   20 2
    36   19   21 1
    37   21   35 1
    38   21   36 1
    39   22   37 1
    40   22   38 1
    41   22   39 1
@<TRIPOS>MOLECULE
ZINC16951200
   57    60     0     0     0
SMALL
USER_CHARGES
(2R)-2-amino-3-[diphenyl-(4-phenylphenyl)methyl]sulfanyl-propanoic acid
@<TRIPOS>ATOM
      1 C1         -5.4237    6.7234    6.2497 C.ar      1 <0>        -0.1147
      2 C2         -5.3109    5.4604    6.8024 C.ar      1 <0>        -0.1168
      3 C3         -4.4208    4.5490    6.2714 C.ar      1 <0>        -0.1074
      4 C4         -3.6350    4.9031    5.1766 C.ar      1 <0>        -0.0528
      5 C5         -3.7489    6.1785    4.6272 C.ar      1 <0>        -0.1084
      6 C6         -4.6460    7.0803    5.1629 C.ar      1 <0>        -0.1182
      7 C7         -2.6759    3.9276    4.6018 C.ar      1 <0>        -0.0284
      8 C8         -1.8901    4.2817    3.5070 C.ar      1 <0>        -0.1130
      9 C9         -1.0000    3.3702    2.9760 C.ar      1 <0>        -0.0890
     10 C10        -0.8872    2.1073    3.5287 C.ar      1 <0>        -0.0948
     11 C11        -1.6687    1.7486    4.6123 C.ar      1 <0>        -0.0993
     12 C12        -2.5582    2.6539    5.1545 C.ar      1 <0>        -0.1082
     13 C13         0.0861    1.1162    2.9443 C.3       1 <0>         0.1271
     14 C14         0.0931   -0.1355    3.7834 C.ar      1 <0>        -0.0867
     15 C15         0.4852   -0.0776    5.1077 C.ar      1 <0>        -0.0982
     16 C16         0.4870   -1.2250    5.8788 C.ar      1 <0>        -0.1185
     17 C17         0.1064   -2.4320    5.3228 C.ar      1 <0>        -0.1109
     18 C18        -0.2802   -2.4909    3.9969 C.ar      1 <0>        -0.1107
     19 C19        -0.2870   -1.3426    3.2273 C.ar      1 <0>        -0.1194
     20 C20         1.4675    1.7183    2.9286 C.ar      1 <0>        -0.0634
     21 C21         1.8133    2.6790    3.8605 C.ar      1 <0>        -0.0962
     22 C22         3.0821    3.2277    3.8491 C.ar      1 <0>        -0.1165
     23 C23         4.0017    2.8231    2.8997 C.ar      1 <0>        -0.1112
     24 C24         3.6539    1.8665    1.9643 C.ar      1 <0>        -0.1162
     25 C25         2.3869    1.3140    1.9789 C.ar      1 <0>        -0.1024
     26 S1         -0.4137    0.7053    1.2496 S.3       1 <0>        -0.2455
     27 C26        -2.1464    0.1944    1.4147 C.3       1 <0>        -0.1123
     28 C27        -2.6599   -0.3111    0.0650 C.3       1 <0>         0.0041
     29 H1         -2.0593   -1.1619   -0.2567 H         1 <0>         0.1464
     30 C28        -4.0994   -0.7355    0.2022 C.2       1 <0>         0.4593
     31 O1         -4.9842    0.0032   -0.1603 O.co2     1 <0>        -0.6083
     32 H2         -6.1212    7.4337    6.6686 H         1 <0>         0.1243
     33 H3         -5.9203    5.1872    7.6512 H         1 <0>         0.1259
     34 H4         -4.3334    3.5632    6.7039 H         1 <0>         0.1256
     35 H5         -3.1393    6.4595    3.7812 H         1 <0>         0.1246
     36 H6         -4.7381    8.0677    4.7353 H         1 <0>         0.1252
     37 H7         -1.9771    5.2677    3.0749 H         1 <0>         0.1288
     38 H8         -0.3901    3.6438    2.1277 H         1 <0>         0.1283
     39 H9         -1.5796    0.7598    5.0373 H         1 <0>         0.1340
     40 H10        -3.1652    2.3742    6.0029 H         1 <0>         0.1292
     41 H11         0.7864    0.8646    5.5410 H         1 <0>         0.1223
     42 H12         0.7894   -1.1791    6.9146 H         1 <0>         0.1254
     43 H13         0.1115   -3.3291    5.9241 H         1 <0>         0.1251
     44 H14        -0.5772   -3.4340    3.5624 H         1 <0>         0.1281
     45 H15        -0.5891   -1.3886    2.1914 H         1 <0>         0.1382
     46 H16         1.0936    2.9981    4.5997 H         1 <0>         0.1245
     47 H17         3.3536    3.9753    4.5797 H         1 <0>         0.1255
     48 H18         4.9917    3.2545    2.8885 H         1 <0>         0.1245
     49 H19         4.3723    1.5507    1.2222 H         1 <0>         0.1252
     50 H20         2.1153    0.5666    1.2481 H         1 <0>         0.1285
     51 H21        -2.7470    1.0452    1.7364 H         1 <0>         0.1046
     52 H22        -2.2212   -0.6033    2.1538 H         1 <0>         0.1337
     53 H23        -3.1077    1.5648   -0.6555 H         1 <0>         0.4359
     54 H24        -1.5965    1.0220   -1.0885 H         1 <0>         0.4229
     55 O2         -4.3986   -1.9341    0.7270 O.co2     1 <0>        -0.6929
     56 N1         -2.5691    0.7522   -0.9511 N.4       1 <0>        -0.6255
     57 H25        -2.9488    0.4037   -1.8392 H         1 <0>         0.4387
@<TRIPOS>BOND
     1    1    6 ar
     2    1    2 ar
     3    1   32 1
     4    2    3 ar
     5    2   33 1
     6    3    4 ar
     7    3   34 1
     8    4    5 ar
     9    4    7 1
    10    5    6 ar
    11    5   35 1
    12    6   36 1
    13    7   12 ar
    14    7    8 ar
    15    8    9 ar
    16    8   37 1
    17    9   10 ar
    18    9   38 1
    19   10   11 ar
    20   10   13 1
    21   11   12 ar
    22   11   39 1
    23   12   40 1
    24   13   14 1
    25   13   20 1
    26   13   26 1
    27   14   19 ar
    28   14   15 ar
    29   15   16 ar
    30   15   41 1
    31   16   17 ar
    32   16   42 1
    33   17   18 ar
    34   17   43 1
    35   18   19 ar
    36   18   44 1
    37   19   45 1
    38   20   25 ar
    39   20   21 ar
    40   21   22 ar
    41   21   46 1
    42   22   23 ar
    43   22   47 1
    44   23   24 ar
    45   23   48 1
    46   24   25 ar
    47   24   49 1
    48   25   50 1
    49   26   27 1
    50   27   28 1
    51   27   51 1
    52   27   52 1
    53   28   29 1
    54   28   30 1
    55   28   56 1
    56   30   31 2
    57   30   55 1
    58   53   56 1
    59   54   56 1
    60   56   57 1
@<TRIPOS>MOLECULE
ZINC32254083
   24    25     0     0     0
SMALL
USER_CHARGES
4-[4-(trifluoromethyl)phenyl]pyridine
@<TRIPOS>ATOM
      1 C1         -0.0126    1.0758    0.0080 C.ar      1 <0>        -0.1052
      2 C2         -1.2163    1.7509    0.0173 C.ar      1 <0>        -0.0666
      3 C3         -1.2365    3.1339    0.0297 C.ar      1 <0>        -0.1772
      4 C4         -0.0519    3.8481    0.0223 C.ar      1 <0>        -0.0667
      5 C5          1.1575    3.1834    0.0076 C.ar      1 <0>        -0.1052
      6 C6          1.1838    1.7902    0.0004 C.ar      1 <0>        -0.0207
      7 C7          2.4810    1.0701   -0.0149 C.ar      1 <0>        -0.0103
      8 C8          2.5265   -0.3268   -0.0160 C.ar      1 <0>        -0.1610
      9 C9          3.7541   -0.9565   -0.0361 C.ar      1 <0>         0.1045
     10 N1          4.8733   -0.2581   -0.0431 N.ar      1 <0>        -0.4825
     11 C10         4.8742    1.0611   -0.0369 C.ar      1 <0>         0.1046
     12 C11         3.6906    1.7701   -0.0227 C.ar      1 <0>        -0.1610
     13 C12        -2.5540    3.8654    0.0457 C.3       1 <0>         0.5078
     14 F1         -2.9740    4.0983   -1.2683 F         1 <0>        -0.1747
     15 F2         -3.5100    3.0897    0.7103 F         1 <0>        -0.1754
     16 F3         -2.4011    5.0871    0.7100 F         1 <0>        -0.1754
     17 H1          0.0021   -0.0041    0.0020 H         1 <0>         0.1403
     18 H2         -2.1442    1.1982    0.0191 H         1 <0>         0.1417
     19 H3         -0.0735    4.9279    0.0282 H         1 <0>         0.1417
     20 H4          2.0818    3.7421    0.0014 H         1 <0>         0.1403
     21 H5          1.6143   -0.9049   -0.0058 H         1 <0>         0.1398
     22 H6          3.7994   -2.0355   -0.0420 H         1 <0>         0.1608
     23 H7          5.8140    1.5933   -0.0426 H         1 <0>         0.1608
     24 H8          3.6988    2.8501   -0.0180 H         1 <0>         0.1398
@<TRIPOS>BOND
     1    1    6 ar
     2    1    2 ar
     3    1   17 1
     4    2    3 ar
     5    2   18 1
     6    3    4 ar
     7    3   13 1
     8    4    5 ar
     9    4   19 1
    10    5    6 ar
    11    5   20 1
    12    6    7 1
    13    7   12 ar
    14    7    8 ar
    15    8    9 ar
    16    8   21 1
    17    9   10 ar
    18    9   22 1
    19   10   11 ar
    20   11   12 ar
    21   11   23 1
    22   12   24 1
    23   13   14 1
    24   13   15 1
    25   13   16 1
@<TRIPOS>MOLECULE
ZINC06484227
   51    53     0     0     0
SMALL
USER_CHARGES
2-amino-3-[(4-methoxyphenyl)-diphenyl-methyl]sulfanyl-propanoic acid
@<TRIPOS>ATOM
      1 C1         -2.1620   11.5706    4.1896 C.3       1 <0>         0.0254
      2 O1         -0.8988   11.2811    3.5875 O.3       1 <0>        -0.3157
      3 C2         -0.5533    9.9713    3.4778 C.ar      1 <0>         0.1375
      4 C3          0.6591    9.6183    2.9032 C.ar      1 <0>        -0.1488
      5 C4          1.0078    8.2862    2.7924 C.ar      1 <0>        -0.0609
      6 C5          0.1499    7.3051    3.2541 C.ar      1 <0>        -0.1019
      7 C6         -1.0615    7.6541    3.8220 C.ar      1 <0>        -0.0535
      8 C7         -1.4126    8.9850    3.9398 C.ar      1 <0>        -0.2048
      9 C8          0.5330    5.8527    3.1324 C.3       1 <0>         0.1289
     10 C9         -0.7134    5.0086    3.0617 C.ar      1 <0>        -0.0982
     11 C10        -0.9833    4.0897    4.0585 C.ar      1 <0>        -0.1098
     12 C11        -2.1290    3.3188    3.9962 C.ar      1 <0>        -0.1183
     13 C12        -2.9998    3.4598    2.9319 C.ar      1 <0>        -0.1052
     14 C13        -2.7271    4.3747    1.9322 C.ar      1 <0>        -0.1170
     15 C14        -1.5840    5.1493    1.9972 C.ar      1 <0>        -0.0898
     16 C15         1.3478    5.4459    4.3331 C.ar      1 <0>        -0.0775
     17 C16         0.8419    5.6299    5.6063 C.ar      1 <0>        -0.0969
     18 C17         1.5873    5.2523    6.7075 C.ar      1 <0>        -0.1152
     19 C18         2.8427    4.6998    6.5359 C.ar      1 <0>        -0.1123
     20 C19         3.3510    4.5210    5.2629 C.ar      1 <0>        -0.1148
     21 C20         2.6035    4.8938    4.1615 C.ar      1 <0>        -0.1253
     22 S1          1.5138    5.6102    1.6258 S.3       1 <0>        -0.2412
     23 C21         1.7020    3.8097    1.5097 C.3       1 <0>        -0.1130
     24 C22         2.4405    3.4564    0.2172 C.3       1 <0>         0.0039
     25 H1          1.9162    3.8943   -0.6322 H         1 <0>         0.1476
     26 C23         2.4890    1.9585    0.0598 C.2       1 <0>         0.4596
     27 O2          3.4909    1.3519    0.3569 O.co2     1 <0>        -0.6098
     28 H2         -2.3135   12.6497    4.2152 H         1 <0>         0.1027
     29 H3         -2.9573   11.1057    3.6070 H         1 <0>         0.0575
     30 H4         -2.1786   11.1772    5.2060 H         1 <0>         0.0570
     31 H5          1.3296   10.3843    2.5425 H         1 <0>         0.1340
     32 H6          1.9516    8.0109    2.3452 H         1 <0>         0.1330
     33 H7         -1.7320    6.8857    4.1775 H         1 <0>         0.1282
     34 H8         -2.3568    9.2573    4.3878 H         1 <0>         0.1319
     35 H9         -0.3008    3.9766    4.8880 H         1 <0>         0.1309
     36 H10        -2.3420    2.6037    4.7770 H         1 <0>         0.1251
     37 H11        -3.8931    2.8549    2.8812 H         1 <0>         0.1252
     38 H12        -3.4072    4.4846    1.1005 H         1 <0>         0.1266
     39 H13        -1.3709    5.8641    1.2162 H         1 <0>         0.1286
     40 H14        -0.1373    6.0653    5.7406 H         1 <0>         0.1243
     41 H15         1.1903    5.3923    7.7021 H         1 <0>         0.1266
     42 H16         3.4266    4.4082    7.3964 H         1 <0>         0.1254
     43 H17         4.3320    4.0897    5.1288 H         1 <0>         0.1257
     44 H18         3.0006    4.7541    3.1669 H         1 <0>         0.1280
     45 H19         0.7179    3.3411    1.5056 H         1 <0>         0.1310
     46 H20         2.2730    3.4482    2.3649 H         1 <0>         0.1070
     47 H21         3.8044    4.9955    0.3152 H         1 <0>         0.4231
     48 H22         4.3163    3.5963    1.0542 H         1 <0>         0.4343
     49 O3          1.4192    1.2981   -0.4106 O.co2     1 <0>        -0.6920
     50 N1          3.8180    3.9789    0.2523 N.4       1 <0>        -0.6268
     51 H23         4.3057    3.7029   -0.6080 H         1 <0>         0.4398
@<TRIPOS>BOND
     1    1    2 1
     2    1   28 1
     3    1   29 1
     4    1   30 1
     5    2    3 1
     6    3    8 ar
     7    3    4 ar
     8    4    5 ar
     9    4   31 1
    10    5    6 ar
    11    5   32 1
    12    6    7 ar
    13    6    9 1
    14    7    8 ar
    15    7   33 1
    16    8   34 1
    17    9   10 1
    18    9   16 1
    19    9   22 1
    20   10   15 ar
    21   10   11 ar
    22   11   12 ar
    23   11   35 1
    24   12   13 ar
    25   12   36 1
    26   13   14 ar
    27   13   37 1
    28   14   15 ar
    29   14   38 1
    30   15   39 1
    31   16   21 ar
    32   16   17 ar
    33   17   18 ar
    34   17   40 1
    35   18   19 ar
    36   18   41 1
    37   19   20 ar
    38   19   42 1
    39   20   21 ar
    40   20   43 1
    41   21   44 1
    42   22   23 1
    43   23   24 1
    44   23   45 1
    45   23   46 1
    46   24   25 1
    47   24   26 1
    48   24   50 1
    49   26   27 2
    50   26   49 1
    51   47   50 1
    52   48   50 1
    53   50   51 1
@<TRIPOS>MOLECULE
ZINC39160105
   49    51     0     0     0
SMALL
USER_CHARGES

@<TRIPOS>ATOM
      1 C1          0.6727    1.9762    0.4501 C.ar      1 <0>        -0.1029
      2 C2          2.0079    2.3324    0.4140 C.ar      1 <0>        -0.1173
      3 C3          2.9776    1.3624    0.2414 C.ar      1 <0>        -0.0902
      4 C4          2.6120    0.0362    0.1054 C.ar      1 <0>        -0.1026
      5 C5          1.2769   -0.3200    0.1424 C.ar      1 <0>        -0.1104
      6 C6          0.3072    0.6501    0.3135 C.ar      1 <0>        -0.1178
      7 C7          3.6691   -1.0211   -0.0838 C.3       1 <0>         0.1285
      8 C8          3.0140   -2.3749   -0.1792 C.ar      1 <0>        -0.0807
      9 C9          2.1403   -2.6486   -1.2149 C.ar      1 <0>        -0.0932
     10 C10         1.5394   -3.8904   -1.3024 C.ar      1 <0>        -0.1073
     11 C11         1.8125   -4.8587   -0.3545 C.ar      1 <0>        -0.1076
     12 C12         2.6869   -4.5854    0.6808 C.ar      1 <0>        -0.1168
     13 C13         3.2911   -3.3450    0.7659 C.ar      1 <0>        -0.1344
     14 C14         4.4360   -0.7437   -1.3510 C.ar      1 <0>        -0.0737
     15 C15         3.8270   -0.0718   -2.3944 C.ar      1 <0>        -0.0945
     16 C16         4.5304    0.1827   -3.5568 C.ar      1 <0>        -0.1123
     17 C17         5.8430   -0.2344   -3.6758 C.ar      1 <0>        -0.1046
     18 C18         6.4523   -0.9055   -2.6321 C.ar      1 <0>        -0.1138
     19 C19         5.7502   -1.1562   -1.4680 C.ar      1 <0>        -0.1049
     20 S1          4.8069   -0.9981    1.3288 S.3       1 <0>        -0.2129
     21 C20         3.7182   -1.1502    2.7718 C.3       1 <0>        -0.1551
     22 C21         4.5659   -1.2805    4.0388 C.3       1 <0>         0.0577
     23 H1          5.1933   -0.3960    4.1487 H         1 <0>         0.1586
     24 C22         3.6476   -1.4088    5.2559 C.3       1 <0>         0.0553
     25 O1          4.4350   -1.4134    6.4483 O.3       1 <0>        -0.5775
     26 N1          5.4158   -2.4745    3.9387 N.4       1 <0>        -0.6347
     27 H2         -0.0846    2.7335    0.5894 H         1 <0>         0.1281
     28 H3          2.2935    3.3685    0.5203 H         1 <0>         0.1289
     29 H4          4.0207    1.6408    0.2125 H         1 <0>         0.1287
     30 H5          0.9913   -1.3561    0.0354 H         1 <0>         0.1316
     31 H6         -0.7360    0.3718    0.3420 H         1 <0>         0.1276
     32 H7          1.9270   -1.8920   -1.9555 H         1 <0>         0.1279
     33 H8          0.8563   -4.1039   -2.1112 H         1 <0>         0.1317
     34 H9          1.3425   -5.8287   -0.4224 H         1 <0>         0.1295
     35 H10         2.9000   -5.3418    1.4216 H         1 <0>         0.1258
     36 H11         3.9771   -3.1327    1.5725 H         1 <0>         0.1174
     37 H12         2.8015    0.2541   -2.3015 H         1 <0>         0.1251
     38 H13         4.0545    0.7070   -4.3723 H         1 <0>         0.1296
     39 H14         6.3924   -0.0362   -4.5843 H         1 <0>         0.1290
     40 H15         7.4776   -1.2317   -2.7252 H         1 <0>         0.1280
     41 H16         6.2273   -1.6773   -0.6512 H         1 <0>         0.1229
     42 H17         3.0875   -0.2643    2.8461 H         1 <0>         0.1344
     43 H18         3.0907   -2.0347    2.6619 H         1 <0>         0.1168
     44 H19         2.9565   -0.5662    5.2800 H         1 <0>         0.0984
     45 H20         3.0838   -2.3393    5.1891 H         1 <0>         0.0766
     46 H21         3.9173   -1.4922    7.2612 H         1 <0>         0.4132
     47 H22         6.0214   -2.3899    3.1361 H         1 <0>         0.4376
     48 H23         5.9748   -2.5604    4.7742 H         1 <0>         0.4451
     49 H24         4.8350   -3.2932    3.8369 H         1 <0>         0.4310
@<TRIPOS>BOND
     1    1    6 ar
     2    1    2 ar
     3    1   27 1
     4    2    3 ar
     5    2   28 1
     6    3    4 ar
     7    3   29 1
     8    4    5 ar
     9    4    7 1
    10    5    6 ar
    11    5   30 1
    12    6   31 1
    13    7    8 1
    14    7   14 1
    15    7   20 1
    16    8   13 ar
    17    8    9 ar
    18    9   10 ar
    19    9   32 1
    20   10   11 ar
    21   10   33 1
    22   11   12 ar
    23   11   34 1
    24   12   13 ar
    25   12   35 1
    26   13   36 1
    27   14   19 ar
    28   14   15 ar
    29   15   16 ar
    30   15   37 1
    31   16   17 ar
    32   16   38 1
    33   17   18 ar
    34   17   39 1
    35   18   19 ar
    36   18   40 1
    37   19   41 1
    38   20   21 1
    39   21   22 1
    40   21   42 1
    41   21   43 1
    42   22   23 1
    43   22   24 1
    44   22   26 1
    45   24   25 1
    46   24   44 1
    47   24   45 1
    48   25   46 1
    49   26   47 1
    50   26   48 1
    51   26   49 1
@<TRIPOS>MOLECULE
ZINC03842421
   70    73     0     0     0
SMALL
USER_CHARGES
N-(3-aminopropyl)-N-[1-(4-benzyl-7-methyl-5-oxo-9-thia-2,4,8-triazabicyclo[4.3.0]nona-2,7,10-trien-3-yl)-2-methyl-propyl]-4-methyl-benzamide
@<TRIPOS>ATOM
      1 C1          4.9103    1.7665   -5.5036 C.3       1 <0>        -0.1282
      2 C2          4.0868    2.6020   -4.5577 C.ar      1 <0>        -0.0432
      3 C3          3.5486    3.8016   -4.9886 C.ar      1 <0>        -0.1186
      4 C4          2.7937    4.5713   -4.1278 C.ar      1 <0>        -0.0469
      5 C5          2.5730    4.1371   -2.8198 C.ar      1 <0>        -0.1499
      6 C6          3.1228    2.9284   -2.3900 C.ar      1 <0>        -0.1334
      7 C7          3.8718    2.1660   -3.2624 C.ar      1 <0>        -0.1248
      8 C8          1.7654    4.9571   -1.8917 C.2       1 <0>         0.5722
      9 O1          1.0469    5.8363   -2.3255 O.2       1 <0>        -0.5132
     10 N1          1.8259    4.7296   -0.5646 N.am      1 <0>        -0.5820
     11 C9          0.9079    5.4256    0.3405 C.3       1 <0>         0.1022
     12 C10        -0.4459    4.7128    0.3409 C.3       1 <0>        -0.2012
     13 C11        -1.4373    5.5015    1.1987 C.3       1 <0>        -0.0047
     14 C12         2.8097    3.7865   -0.0272 C.3       1 <0>         0.1611
     15 H1          3.6147    3.6503   -0.7493 H         1 <0>         0.1513
     16 C13         2.1427    2.4612    0.2374 C.2       1 <0>         0.4272
     17 N2          0.8442    2.4205    0.3632 N.2       1 <0>        -0.4900
     18 C14         0.2068    1.2809    0.5961 C.2       1 <0>         0.1174
     19 C15         0.8966    0.0545    0.7195 C.2       1 <0>        -0.2879
     20 C16         0.0597   -1.0398    0.9627 C.2       1 <0>         0.1911
     21 N3         -1.2295   -0.8883    1.0578 N.2       1 <0>        -0.4087
     22 S1         -1.4808    0.7878    0.8258 S.3       1 <0>         0.2123
     23 C17         0.6594   -2.4137    1.1163 C.3       1 <0>        -0.1059
     24 C18         2.3627    0.1368    0.5719 C.2       1 <0>         0.5687
     25 O2          3.0583   -0.8597    0.6594 O.2       1 <0>        -0.4720
     26 N4          2.9105    1.3469    0.3370 N.am      1 <0>        -0.5132
     27 C19         4.3633    1.4602    0.1859 C.3       1 <0>         0.1199
     28 C20         5.0242    1.2695    1.5267 C.ar      1 <0>        -0.1268
     29 C21         5.8668    2.2445    2.0269 C.ar      1 <0>        -0.1071
     30 C22         6.4692    2.0717    3.2590 C.ar      1 <0>        -0.1188
     31 C23         6.2373    0.9192    3.9862 C.ar      1 <0>        -0.1029
     32 C24         5.3988   -0.0581    3.4837 C.ar      1 <0>        -0.1184
     33 C25         4.7922    0.1170    2.2539 C.ar      1 <0>        -0.1257
     34 C26         3.3843    4.3380    1.2792 C.3       1 <0>        -0.1153
     35 C27         3.6215    5.8428    1.1369 C.3       1 <0>        -0.1592
     36 C28         2.3958    4.0831    2.4189 C.3       1 <0>        -0.1771
     37 H2          5.9583    2.0561   -5.4257 H         1 <0>         0.0827
     38 H3          4.8042    0.7131   -5.2444 H         1 <0>         0.0732
     39 H4          4.5642    1.9261   -6.5248 H         1 <0>         0.0759
     40 H5          3.7201    4.1364   -6.0010 H         1 <0>         0.1380
     41 H6          2.3741    5.5074   -4.4654 H         1 <0>         0.1407
     42 H7          2.9595    2.5890   -1.3778 H         1 <0>         0.1290
     43 H8          4.2947    1.2286   -2.9322 H         1 <0>         0.1299
     44 H9          1.3204    5.4225    1.3494 H         1 <0>         0.1177
     45 H10         0.7768    6.4542    0.0046 H         1 <0>         0.0944
     46 H11        -0.8217    4.6461   -0.6801 H         1 <0>         0.0903
     47 H12        -0.3283    3.7098    0.7510 H         1 <0>         0.1333
     48 H13        -1.0615    5.5682    2.2197 H         1 <0>         0.1306
     49 H14        -1.5549    6.5046    0.7886 H         1 <0>         0.1361
     50 H15        -3.4098    5.3189    1.7593 H         1 <0>         0.4405
     51 H16        -3.0767    4.6854    0.2581 H         1 <0>         0.4385
     52 H17         0.7110   -2.8987    0.1416 H         1 <0>         0.0946
     53 H18         1.6630   -2.3276    1.5328 H         1 <0>         0.0997
     54 H19         0.0381   -3.0086    1.7858 H         1 <0>         0.0869
     55 H20         4.7173    0.6957   -0.5057 H         1 <0>         0.1197
     56 H21         4.6121    2.4469   -0.2048 H         1 <0>         0.1083
     57 H22         6.0515    3.1429    1.4567 H         1 <0>         0.1254
     58 H23         7.1246    2.8352    3.6514 H         1 <0>         0.1284
     59 H24         6.7115    0.7823    4.9468 H         1 <0>         0.1263
     60 H25         5.2179   -0.9587    4.0517 H         1 <0>         0.1256
     61 H26         4.1374   -0.6468    1.8612 H         1 <0>         0.1679
     62 H27         4.3288    3.8404    1.4994 H         1 <0>         0.1062
     63 H28         4.3696    6.0211    0.3644 H         1 <0>         0.0656
     64 H29         2.6885    6.3330    0.8591 H         1 <0>         0.0719
     65 H30         3.9756    6.2461    2.0856 H         1 <0>         0.0735
     66 H31         2.5570    3.0837    2.8230 H         1 <0>         0.0586
     67 H32         2.5495    4.8221    3.2052 H         1 <0>         0.0771
     68 H33         1.3767    4.1619    2.0403 H         1 <0>         0.0763
     69 N5         -2.7305    4.7952    1.2098 N.4       1 <0>        -0.6467
     70 H34        -2.6044    3.8667    1.6296 H         1 <0>         0.4358
@<TRIPOS>BOND
     1    1    2 1
     2    1   37 1
     3    1   38 1
     4    1   39 1
     5    2    7 ar
     6    2    3 ar
     7    3    4 ar
     8    3   40 1
     9    4    5 ar
    10    4   41 1
    11    5    6 ar
    12    5    8 1
    13    6    7 ar
    14    6   42 1
    15    7   43 1
    16    8    9 2
    17    8   10 am
    18   10   11 1
    19   10   14 1
    20   11   12 1
    21   11   44 1
    22   11   45 1
    23   12   13 1
    24   12   46 1
    25   12   47 1
    26   13   48 1
    27   13   49 1
    28   13   69 1
    29   14   15 1
    30   14   16 1
    31   14   34 1
    32   16   26 1
    33   16   17 2
    34   17   18 1
    35   18   22 1
    36   18   19 2
    37   19   20 1
    38   19   24 1
    39   20   21 2
    40   20   23 1
    41   21   22 1
    42   23   52 1
    43   23   53 1
    44   23   54 1
    45   24   25 2
    46   24   26 am
    47   26   27 1
    48   27   28 1
    49   27   55 1
    50   27   56 1
    51   28   33 ar
    52   28   29 ar
    53   29   30 ar
    54   29   57 1
    55   30   31 ar
    56   30   58 1
    57   31   32 ar
    58   31   59 1
    59   32   33 ar
    60   32   60 1
    61   33   61 1
    62   34   35 1
    63   34   36 1
    64   34   62 1
    65   35   63 1
    66   35   64 1
    67   35   65 1
    68   36   66 1
    69   36   67 1
    70   36   68 1
    71   50   69 1
    72   51   69 1
    73   69   70 1
@<TRIPOS>MOLECULE
ZINC14191768
   70    73     0     0     0
SMALL
USER_CHARGES
N-(3-aminopropyl)-N-[(1R)-1-(5-benzyl-3-methyl-4-oxo-isothiazolo[5,4-d]pyrimidin-6-yl)-2-methyl-propyl]-4-methyl-benzamide
@<TRIPOS>ATOM
      1 C1         -3.8627    2.9019    6.5326 C.3       1 <0>        -0.1281
      2 C2         -4.0862    2.6734    5.0599 C.ar      1 <0>        -0.0454
      3 C3         -5.1343    1.8748    4.6381 C.ar      1 <0>        -0.1254
      4 C4         -5.3445    1.6616    3.2914 C.ar      1 <0>        -0.0430
      5 C5         -4.4971    2.2540    2.3536 C.ar      1 <0>        -0.1449
      6 C6         -3.4387    3.0545    2.7861 C.ar      1 <0>        -0.1754
      7 C7         -3.2426    3.2636    4.1355 C.ar      1 <0>        -0.1444
      8 C8         -4.7161    2.0294    0.9088 C.2       1 <0>         0.5667
      9 O1         -5.6564    1.3565    0.5340 O.2       1 <0>        -0.5092
     10 N1         -3.8731    2.5708    0.0074 N.am      1 <0>        -0.5930
     11 C9         -2.6485    3.2372    0.4576 C.3       1 <0>         0.1078
     12 C10        -2.9894    4.6369    0.9728 C.3       1 <0>        -0.2267
     13 C11        -1.6969    5.4095    1.2436 C.3       1 <0>        -0.0063
     14 C12        -4.1813    2.4930   -1.4227 C.3       1 <0>         0.1810
     15 H1         -5.1720    2.0591   -1.5578 H         1 <0>         0.1416
     16 C13        -4.1534    3.8769   -2.0186 C.2       1 <0>         0.4378
     17 N2         -3.2494    4.7242   -1.6083 N.2       1 <0>        -0.5036
     18 C14        -3.1804    5.9545   -2.0994 C.2       1 <0>         0.1197
     19 C15        -4.0783    6.4119   -3.0892 C.2       1 <0>        -0.2905
     20 C16        -3.8530    7.7346   -3.4851 C.2       1 <0>         0.1959
     21 N3         -2.8912    8.4362   -2.9590 N.2       1 <0>        -0.4098
     22 S1         -2.1527    7.3757   -1.8382 S.3       1 <0>         0.1884
     23 C17        -4.7366    8.3560   -4.5359 C.3       1 <0>        -0.1069
     24 C18        -5.0839    5.4272   -3.5333 C.2       1 <0>         0.5680
     25 O2         -5.9060    5.7122   -4.3861 O.2       1 <0>        -0.4790
     26 N4         -5.0692    4.2039   -2.9650 N.am      1 <0>        -0.5061
     27 C19        -6.0579    3.2067   -3.3822 C.3       1 <0>         0.1141
     28 C20        -7.3472    3.4350   -2.6362 C.ar      1 <0>        -0.1371
     29 C21        -7.6282    2.6990   -1.5003 C.ar      1 <0>        -0.1034
     30 C22        -8.8132    2.9051   -0.8188 C.ar      1 <0>        -0.1170
     31 C23        -9.7123    3.8544   -1.2672 C.ar      1 <0>        -0.1013
     32 C24        -9.4289    4.5941   -2.4001 C.ar      1 <0>        -0.1225
     33 C25        -8.2464    4.3844   -3.0846 C.ar      1 <0>        -0.0899
     34 C26        -3.1407    1.6157   -2.1217 C.3       1 <0>        -0.0993
     35 C27        -3.0874    0.2467   -1.4405 C.3       1 <0>        -0.1455
     36 C28        -3.5269    1.4392   -3.5916 C.3       1 <0>        -0.1654
     37 H2         -3.1952    2.1333    6.9223 H         1 <0>         0.0812
     38 H3         -3.4140    3.8836    6.6840 H         1 <0>         0.0701
     39 H4         -4.8172    2.8540    7.0567 H         1 <0>         0.0744
     40 H5         -5.7892    1.4171    5.3647 H         1 <0>         0.1346
     41 H6         -6.1630    1.0380    2.9634 H         1 <0>         0.1398
     42 H7         -2.7768    3.5121    2.0657 H         1 <0>         0.1978
     43 H8         -2.4262    3.8858    4.4713 H         1 <0>         0.1255
     44 H9         -2.1923    2.6561    1.2590 H         1 <0>         0.1092
     45 H10        -1.9507    3.3168   -0.3760 H         1 <0>         0.1136
     46 H11        -3.5790    5.1660    0.2241 H         1 <0>         0.1122
     47 H12        -3.5636    4.5545    1.8956 H         1 <0>         0.1249
     48 H13        -1.0677    4.8373    1.9253 H         1 <0>         0.1439
     49 H14        -1.1653    5.5685    0.3054 H         1 <0>         0.1370
     50 H15        -2.5696    6.5894    2.6874 H         1 <0>         0.4379
     51 H16        -1.1827    7.2379    2.0380 H         1 <0>         0.4440
     52 H17        -4.3086    8.1776   -5.5224 H         1 <0>         0.0955
     53 H18        -5.7302    7.9106   -4.4849 H         1 <0>         0.1003
     54 H19        -4.8101    9.4292   -4.3604 H         1 <0>         0.0866
     55 H20        -5.6821    2.2077   -3.1608 H         1 <0>         0.1167
     56 H21        -6.2368    3.2984   -4.4535 H         1 <0>         0.1218
     57 H22        -6.9237    1.9604   -1.1474 H         1 <0>         0.1356
     58 H23        -9.0344    2.3274    0.0665 H         1 <0>         0.1272
     59 H24       -10.6360    4.0186   -0.7322 H         1 <0>         0.1268
     60 H25       -10.1313    5.3361   -2.7503 H         1 <0>         0.1274
     61 H26        -8.0248    4.9625   -3.9695 H         1 <0>         0.1351
     62 H27        -2.1622    2.0917   -2.0577 H         1 <0>         0.0907
     63 H28        -4.0659   -0.2292   -1.5044 H         1 <0>         0.0658
     64 H29        -2.3461   -0.3783   -1.9384 H         1 <0>         0.0710
     65 H30        -2.8123    0.3724   -0.3933 H         1 <0>         0.0598
     66 H31        -3.5018    2.4070   -4.0925 H         1 <0>         0.0531
     67 H32        -2.8219    0.7621   -4.0737 H         1 <0>         0.0822
     68 H33        -4.5323    1.0230   -3.6556 H         1 <0>         0.0686
     69 N5         -2.0340    6.7184    1.8306 N.4       1 <0>        -0.6481
     70 H34        -2.5982    7.2537    1.1602 H         1 <0>         0.4358
@<TRIPOS>BOND
     1    1    2 1
     2    1   37 1
     3    1   38 1
     4    1   39 1
     5    2    7 ar
     6    2    3 ar
     7    3    4 ar
     8    3   40 1
     9    4    5 ar
    10    4   41 1
    11    5    6 ar
    12    5    8 1
    13    6    7 ar
    14    6   42 1
    15    7   43 1
    16    8    9 2
    17    8   10 am
    18   10   11 1
    19   10   14 1
    20   11   12 1
    21   11   44 1
    22   11   45 1
    23   12   13 1
    24   12   46 1
    25   12   47 1
    26   13   48 1
    27   13   49 1
    28   13   69 1
    29   14   15 1
    30   14   16 1
    31   14   34 1
    32   16   26 1
    33   16   17 2
    34   17   18 1
    35   18   22 1
    36   18   19 2
    37   19   20 1
    38   19   24 1
    39   20   21 2
    40   20   23 1
    41   21   22 1
    42   23   52 1
    43   23   53 1
    44   23   54 1
    45   24   25 2
    46   24   26 am
    47   26   27 1
    48   27   28 1
    49   27   55 1
    50   27   56 1
    51   28   33 ar
    52   28   29 ar
    53   29   30 ar
    54   29   57 1
    55   30   31 ar
    56   30   58 1
    57   31   32 ar
    58   31   59 1
    59   32   33 ar
    60   32   60 1
    61   33   61 1
    62   34   35 1
    63   34   36 1
    64   34   62 1
    65   35   63 1
    66   35   64 1
    67   35   65 1
    68   36   66 1
    69   36   67 1
    70   36   68 1
    71   50   69 1
    72   51   69 1
    73   69   70 1
@<TRIPOS>MOLECULE
ZINC00953703
   46    48     0     0     0
SMALL
USER_CHARGES

@<TRIPOS>ATOM
      1 C1          0.0159    1.5713    0.1118 C.3       1 <0>        -0.1690
      2 C2         -0.0138    0.0481   -0.0290 C.3       1 <0>         0.1092
      3 N1         -1.4011   -0.4200    0.0203 N.am      1 <0>        -0.6068
      4 C3         -2.1795   -0.5358   -1.2153 C.3       1 <0>         0.1064
      5 C4         -1.9058   -1.8937   -1.8651 C.3       1 <0>        -0.1758
      6 C5         -1.9613   -0.7440    1.2026 C.2       1 <0>         0.5810
      7 O1         -1.3429   -0.5715    2.2366 O.2       1 <0>        -0.5290
      8 C6         -3.3154   -1.3041    1.2430 C.2       1 <0>        -0.2215
      9 C7         -3.5430   -2.7380    1.1965 C.2       1 <0>        -0.0599
     10 C8         -4.8452   -3.0925    1.2428 C.2       1 <0>        -0.2220
     11 S1         -5.7241   -1.5609    1.3453 S.3       1 <0>         0.2869
     12 C9         -4.4324   -0.4878    1.3331 C.2       1 <0>         0.0325
     13 N2         -4.4737    0.8953    1.3960 N.am      1 <0>        -0.6162
     14 C10        -5.6590    1.5310    1.4815 C.2       1 <0>         0.6049
     15 O2         -6.6933    0.8897    1.5034 O.2       1 <0>        -0.4868
     16 C11        -5.7027    2.9940    1.5481 C.2       1 <0>        -0.2719
     17 C12        -6.8034    3.8324    1.6440 C.2       1 <0>        -0.0486
     18 C13        -6.5268    5.1777    1.6882 C.2       1 <0>        -0.1871
     19 C14        -5.2351    5.5871    1.6368 C.2       1 <0>        -0.2082
     20 S2         -4.3544    4.1602    1.5347 S.3       1 <0>         0.2134
     21 C15        -5.4008   -4.4828    1.2116 C.3       1 <0>        -0.0345
     22 C16        -4.2918   -5.4347    0.7396 C.3       1 <0>        -0.1138
     23 C17        -3.0142   -5.1378    1.5299 C.3       1 <0>        -0.1193
     24 C18        -2.4416   -3.7838    1.1046 C.3       1 <0>        -0.0619
     25 H1          1.0481    1.9196    0.0750 H         1 <0>         0.0685
     26 H2         -0.5491    2.0227   -0.7038 H         1 <0>         0.0557
     27 H3         -0.4302    1.8569    1.0644 H         1 <0>         0.0586
     28 H4          0.4323   -0.2375   -0.9817 H         1 <0>         0.0786
     29 H5          0.5512   -0.4032    0.7865 H         1 <0>         0.0837
     30 H6         -3.2415   -0.4507   -0.9851 H         1 <0>         0.0776
     31 H7         -1.8917    0.2602   -1.9021 H         1 <0>         0.0778
     32 H8         -0.8320   -2.0209   -2.0025 H         1 <0>         0.0591
     33 H9         -2.2863   -2.6874   -1.2222 H         1 <0>         0.0658
     34 H10        -2.4040   -1.9402   -2.8334 H         1 <0>         0.0676
     35 H11        -3.6494    1.4064    1.3786 H         1 <0>         0.4166
     36 H12        -7.8136    3.4521    1.6813 H         1 <0>         0.1548
     37 H13        -7.3272    5.8990    1.7625 H         1 <0>         0.1446
     38 H14        -4.8583    6.5990    1.6609 H         1 <0>         0.1939
     39 H15        -5.7304   -4.7692    2.2103 H         1 <0>         0.0824
     40 H16        -6.2419   -4.5269    0.5198 H         1 <0>         0.0812
     41 H17        -4.5975   -6.4663    0.9140 H         1 <0>         0.0736
     42 H18        -4.1072   -5.2815   -0.3237 H         1 <0>         0.0676
     43 H19        -3.2444   -5.1151    2.5951 H         1 <0>         0.0673
     44 H20        -2.2789   -5.9188    1.3363 H         1 <0>         0.0697
     45 H21        -2.0806   -3.8455    0.0780 H         1 <0>         0.0792
     46 H22        -1.6208   -3.5095    1.7673 H         1 <0>         0.0744
@<TRIPOS>BOND
     1    1    2 1
     2    1   25 1
     3    1   26 1
     4    1   27 1
     5    2    3 1
     6    2   28 1
     7    2   29 1
     8    3    4 1
     9    3    6 am
    10    4    5 1
    11    4   30 1
    12    4   31 1
    13    5   32 1
    14    5   33 1
    15    5   34 1
    16    6    7 2
    17    6    8 1
    18    8   12 2
    19    8    9 1
    20    9   24 1
    21    9   10 2
    22   10   11 1
    23   10   21 1
    24   11   12 1
    25   12   13 1
    26   13   14 am
    27   13   35 1
    28   14   15 2
    29   14   16 1
    30   16   20 1
    31   16   17 2
    32   17   18 1
    33   17   36 1
    34   18   19 2
    35   18   37 1
    36   19   20 1
    37   19   38 1
    38   21   22 1
    39   21   39 1
    40   21   40 1
    41   22   23 1
    42   22   41 1
    43   22   42 1
    44   23   24 1
    45   23   43 1
    46   23   44 1
    47   24   45 1
    48   24   46 1
@<TRIPOS>MOLECULE
ZINC00316045
   43    45     0     0     0
SMALL
USER_CHARGES
N,N-diethyl-7-(2-thienylcarbonylamino)-6-thiabicyclo[3.3.0]octa-7,9-diene-8-carboxamide
@<TRIPOS>ATOM
      1 C1          1.2818   -0.2141    2.8744 C.3       1 <0>        -0.1757
      2 C2          2.7437   -0.2035    2.4232 C.3       1 <0>         0.1061
      3 N1          2.8680   -0.9227    1.1530 N.am      1 <0>        -0.6064
      4 C3          3.1329   -2.3635    1.1498 C.3       1 <0>         0.1081
      5 C4          4.6438   -2.6042    1.1398 C.3       1 <0>        -0.1672
      6 C5          2.7386   -0.2587   -0.0128 C.2       1 <0>         0.5788
      7 O1          2.8418   -0.8562   -1.0681 O.2       1 <0>        -0.5289
      8 C6          2.4735    1.1830   -0.0096 C.2       1 <0>        -0.2014
      9 C7          3.5666    2.1548   -0.0202 C.2       1 <0>        -0.0943
     10 C8          3.1845    3.4443   -0.0100 C.2       1 <0>        -0.2311
     11 S1          1.4093    3.3900    0.0074 S.3       1 <0>         0.2655
     12 C9          1.1790    1.6747   -0.0002 C.2       1 <0>         0.0670
     13 N2         -0.0111    0.9658    0.0074 N.am      1 <0>        -0.6140
     14 C10        -1.1873    1.6238    0.0165 C.2       1 <0>         0.6052
     15 O2         -1.2038    2.8408    0.0232 O.2       1 <0>        -0.4856
     16 C11        -2.4461    0.8740    0.0184 C.2       1 <0>        -0.2545
     17 C12        -3.7478    1.3515    0.0272 C.2       1 <0>        -0.0509
     18 C13        -4.7553    0.4195    0.0261 C.2       1 <0>        -0.1808
     19 C14        -4.4371   -0.9016    0.0167 C.2       1 <0>        -0.1665
     20 S2         -2.7036   -0.8913    0.0021 S.3       1 <0>         0.1473
     21 C15         4.3617    4.3816   -0.0190 C.3       1 <0>        -0.0315
     22 C16         5.5515    3.5075   -0.4734 C.3       1 <0>        -0.1161
     23 C17         5.0949    2.1023   -0.0334 C.3       1 <0>        -0.0598
     24 H1          1.1893    0.3210    3.8195 H         1 <0>         0.0710
     25 H2          0.6650    0.2732    2.1192 H         1 <0>         0.0536
     26 H3          0.9495   -1.2438    3.0058 H         1 <0>         0.0607
     27 H4          3.3605   -0.6908    3.1784 H         1 <0>         0.0818
     28 H5          3.0760    0.8262    2.2918 H         1 <0>         0.0819
     29 H6          2.6990   -2.8147    2.0421 H         1 <0>         0.0783
     30 H7          2.6875   -2.8129    0.2622 H         1 <0>         0.0840
     31 H8          5.0777   -2.1531    0.2474 H         1 <0>         0.0593
     32 H9          5.0892   -2.1549    2.0274 H         1 <0>         0.0559
     33 H10         4.8409   -3.6763    1.1374 H         1 <0>         0.0674
     34 H11         0.0021   -0.0041    0.0020 H         1 <0>         0.4181
     35 H12        -3.9596    2.4105    0.0342 H         1 <0>         0.1528
     36 H13        -5.7890    0.7325    0.0323 H         1 <0>         0.1469
     37 H14        -5.1030   -1.7520    0.0146 H         1 <0>         0.1957
     38 H15         4.1952    5.1943   -0.7260 H         1 <0>         0.0799
     39 H16         4.5405    4.7770    0.9809 H         1 <0>         0.0855
     40 H17         5.6800    3.5552   -1.5547 H         1 <0>         0.0773
     41 H18         6.4680    3.7990    0.0396 H         1 <0>         0.0844
     42 H19         5.4405    1.3532   -0.7458 H         1 <0>         0.0731
     43 H20         5.4745    1.8773    0.9633 H         1 <0>         0.0792
@<TRIPOS>BOND
     1    1    2 1
     2    1   24 1
     3    1   25 1
     4    1   26 1
     5    2    3 1
     6    2   27 1
     7    2   28 1
     8    3    4 1
     9    3    6 am
    10    4    5 1
    11    4   29 1
    12    4   30 1
    13    5   31 1
    14    5   32 1
    15    5   33 1
    16    6    7 2
    17    6    8 1
    18    8   12 2
    19    8    9 1
    20    9   23 1
    21    9   10 2
    22   10   11 1
    23   10   21 1
    24   11   12 1
    25   12   13 1
    26   13   14 am
    27   13   34 1
    28   14   15 2
    29   14   16 1
    30   16   20 1
    31   16   17 2
    32   17   18 1
    33   17   35 1
    34   18   19 2
    35   18   36 1
    36   19   20 1
    37   19   37 1
    38   21   22 1
    39   21   38 1
    40   21   39 1
    41   22   23 1
    42   22   40 1
    43   22   41 1
    44   23   42 1
    45   23   43 1
@<TRIPOS>MOLECULE
ZINC00972540
   45    48     0     0     0
SMALL
USER_CHARGES
N-(3-morpholinocarbonyl-4,5,6,7-tetrahydrobenzothiophen-2-yl)thiophene-2-carboxamide
@<TRIPOS>ATOM
      1 C1         -4.7553    0.4195    0.0269 C.2       1 <0>        -0.1807
      2 C2         -3.7478    1.3515    0.0272 C.2       1 <0>        -0.0501
      3 C3         -2.4461    0.8740    0.0184 C.2       1 <0>        -0.2552
      4 S1         -2.7036   -0.8913    0.0021 S.3       1 <0>         0.1445
      5 C4         -4.4371   -0.9016    0.0182 C.2       1 <0>        -0.1650
      6 C5         -1.1873    1.6238    0.0165 C.2       1 <0>         0.6049
      7 O1         -1.2038    2.8408    0.0232 O.2       1 <0>        -0.4843
      8 N1         -0.0111    0.9658    0.0074 N.am      1 <0>        -0.6160
      9 C6          1.1790    1.6747   -0.0002 C.2       1 <0>         0.0684
     10 C7          2.4766    1.1817   -0.0096 C.2       1 <0>        -0.2173
     11 C8          3.5618    2.1479   -0.0195 C.2       1 <0>        -0.0658
     12 C9          3.1789    3.4431   -0.0084 C.2       1 <0>        -0.2040
     13 S2          1.4093    3.3919    0.0074 S.3       1 <0>         0.2344
     14 C10         4.0684    4.6480   -0.0094 C.3       1 <0>        -0.0363
     15 C11         5.4915    4.1989    0.3528 C.3       1 <0>        -0.1139
     16 C12         5.8534    2.9756   -0.4943 C.3       1 <0>        -0.1192
     17 C13         5.0368    1.7658   -0.0364 C.3       1 <0>        -0.0597
     18 C14         2.7422   -0.2600   -0.0128 C.2       1 <0>         0.5835
     19 O2          2.8457   -0.8574   -1.0682 O.2       1 <0>        -0.5271
     20 N2          2.8717   -0.9240    1.1529 N.am      1 <0>        -0.6099
     21 C15         2.7568   -0.2222    2.4412 C.3       1 <0>         0.0746
     22 C16         1.7566   -0.9921    3.3185 C.3       1 <0>         0.0477
     23 O3          2.1455   -2.3666    3.3773 O.3       1 <0>        -0.3751
     24 C17         2.1251   -3.0352    2.1139 C.3       1 <0>         0.0475
     25 C18         3.1385   -2.3709    1.1748 C.3       1 <0>         0.0739
     26 H1         -5.7890    0.7325    0.0331 H         1 <0>         0.1473
     27 H2         -3.9596    2.4106    0.0336 H         1 <0>         0.1530
     28 H3         -5.1029   -1.7520    0.0163 H         1 <0>         0.1960
     29 H4          0.0021   -0.0041    0.0020 H         1 <0>         0.4168
     30 H5          4.0680    5.1038   -0.9995 H         1 <0>         0.0836
     31 H6          3.7116    5.3685    0.7266 H         1 <0>         0.0823
     32 H7          6.1933    5.0070    0.1462 H         1 <0>         0.0745
     33 H8          5.5345    3.9392    1.4105 H         1 <0>         0.0683
     34 H9          5.6362    3.1835   -1.5420 H         1 <0>         0.0677
     35 H10         6.9154    2.7579   -0.3809 H         1 <0>         0.0705
     36 H11         5.1917    0.9375   -0.7277 H         1 <0>         0.0744
     37 H12         5.3514    1.4703    0.9645 H         1 <0>         0.0758
     38 H13         3.7303   -0.1910    2.9303 H         1 <0>         0.0823
     39 H14         2.3959    0.7929    2.2754 H         1 <0>         0.0951
     40 H15         0.7574   -0.9145    2.8900 H         1 <0>         0.0536
     41 H16         1.7554   -0.5708    4.3238 H         1 <0>         0.1093
     42 H17         1.1272   -2.9650    1.6809 H         1 <0>         0.0555
     43 H18         2.3892   -4.0837    2.2516 H         1 <0>         0.1103
     44 H19         3.0305   -2.7794    0.1701 H         1 <0>         0.1036
     45 H20         4.1500   -2.5523    1.5380 H         1 <0>         0.0801
@<TRIPOS>BOND
     1    1    5 2
     2    1    2 1
     3    1   26 1
     4    2    3 2
     5    2   27 1
     6    3    4 1
     7    3    6 1
     8    4    5 1
     9    5   28 1
    10    6    7 2
    11    6    8 am
    12    8    9 1
    13    8   29 1
    14    9   13 1
    15    9   10 2
    16   10   11 1
    17   10   18 1
    18   11   17 1
    19   11   12 2
    20   12   13 1
    21   12   14 1
    22   14   15 1
    23   14   30 1
    24   14   31 1
    25   15   16 1
    26   15   32 1
    27   15   33 1
    28   16   17 1
    29   16   34 1
    30   16   35 1
    31   17   36 1
    32   17   37 1
    33   18   19 2
    34   18   20 am
    35   20   25 1
    36   20   21 1
    37   21   22 1
    38   21   38 1
    39   21   39 1
    40   22   23 1
    41   22   40 1
    42   22   41 1
    43   23   24 1
    44   24   25 1
    45   24   42 1
    46   24   43 1
    47   25   44 1
    48   25   45 1
@<TRIPOS>MOLECULE
ZINC00316035
   40    42     0     0     0
SMALL
USER_CHARGES
N,N-dimethyl-2-(2-thienylcarbonylamino)-4,5,6,7-tetrahydrobenzothiophene-3-carboxamide
@<TRIPOS>ATOM
      1 C1          3.1373   -2.3645    1.1503 C.3       1 <0>         0.0817
      2 N1          2.8719   -0.9237    1.1532 N.am      1 <0>        -0.6151
      3 C2          2.7474   -0.2044    2.4234 C.3       1 <0>         0.0790
      4 C3          2.7422   -0.2600   -0.0126 C.2       1 <0>         0.5777
      5 O1          2.8456   -0.8576   -1.0679 O.2       1 <0>        -0.5287
      6 C4          2.4766    1.1817   -0.0096 C.2       1 <0>        -0.2160
      7 C5          3.5618    2.1480   -0.0209 C.2       1 <0>        -0.0668
      8 C6          3.1789    3.4431   -0.0095 C.2       1 <0>        -0.2048
      9 S1          1.4093    3.3919    0.0074 S.3       1 <0>         0.2312
     10 C7          1.1790    1.6747   -0.0002 C.2       1 <0>         0.0703
     11 N2         -0.0111    0.9658    0.0074 N.am      1 <0>        -0.6153
     12 C8         -1.1873    1.6238    0.0165 C.2       1 <0>         0.6047
     13 O2         -1.2038    2.8408    0.0232 O.2       1 <0>        -0.4855
     14 C9         -2.4461    0.8740    0.0184 C.2       1 <0>        -0.2542
     15 C10        -3.7478    1.3515    0.0272 C.2       1 <0>        -0.0514
     16 C11        -4.7553    0.4195    0.0261 C.2       1 <0>        -0.1808
     17 C12        -4.4371   -0.9016    0.0167 C.2       1 <0>        -0.1668
     18 S2         -2.7036   -0.8913    0.0021 S.3       1 <0>         0.1470
     19 C13         4.0684    4.6480   -0.0110 C.3       1 <0>        -0.0361
     20 C14         5.4917    4.1989    0.3503 C.3       1 <0>        -0.1139
     21 C15         5.8531    2.9756   -0.4971 C.3       1 <0>        -0.1192
     22 C16         5.0367    1.7659   -0.0388 C.3       1 <0>        -0.0600
     23 H1          4.2137   -2.5356    1.1431 H         1 <0>         0.0580
     24 H2          2.7036   -2.8156    2.0427 H         1 <0>         0.0723
     25 H3          2.6920   -2.8141    0.2628 H         1 <0>         0.0778
     26 H4          1.7059   -0.2122    2.7449 H         1 <0>         0.0546
     27 H5          3.3644   -0.6913    3.1786 H         1 <0>         0.0754
     28 H6          3.0793    0.8254    2.2918 H         1 <0>         0.0762
     29 H7          0.0021   -0.0041    0.0020 H         1 <0>         0.4177
     30 H8         -3.9596    2.4105    0.0342 H         1 <0>         0.1527
     31 H9         -5.7890    0.7325    0.0323 H         1 <0>         0.1469
     32 H10        -5.1030   -1.7520    0.0146 H         1 <0>         0.1957
     33 H11         4.0674    5.1039   -1.0010 H         1 <0>         0.0833
     34 H12         3.7120    5.3684    0.7253 H         1 <0>         0.0819
     35 H13         6.1934    5.0070    0.1433 H         1 <0>         0.0742
     36 H14         5.5354    3.9391    1.4080 H         1 <0>         0.0681
     37 H15         5.6352    3.1836   -1.5447 H         1 <0>         0.0678
     38 H16         6.9152    2.7580   -0.3844 H         1 <0>         0.0702
     39 H17         5.1913    0.9375   -0.7303 H         1 <0>         0.0747
     40 H18         5.3520    1.4702    0.9619 H         1 <0>         0.0756
@<TRIPOS>BOND
     1    1    2 1
     2    1   23 1
     3    1   24 1
     4    1   25 1
     5    2    3 1
     6    2    4 am
     7    3   26 1
     8    3   27 1
     9    3   28 1
    10    4    5 2
    11    4    6 1
    12    6   10 2
    13    6    7 1
    14    7   22 1
    15    7    8 2
    16    8    9 1
    17    8   19 1
    18    9   10 1
    19   10   11 1
    20   11   12 am
    21   11   29 1
    22   12   13 2
    23   12   14 1
    24   14   18 1
    25   14   15 2
    26   15   16 1
    27   15   30 1
    28   16   17 2
    29   16   31 1
    30   17   18 1
    31   17   32 1
    32   19   20 1
    33   19   33 1
    34   19   34 1
    35   20   21 1
    36   20   35 1
    37   20   36 1
    38   21   22 1
    39   21   37 1
    40   21   38 1
    41   22   39 1
    42   22   40 1
@<TRIPOS>MOLECULE
ZINC01081630
   49    51     0     0     0
SMALL
USER_CHARGES
N,N-diethyl-6-methyl-2-(2-thienylcarbonylamino)-4,5,6,7-tetrahydrobenzothiophene-3-carboxamide
@<TRIPOS>ATOM
      1 C1          0.5633    5.7193   -2.8569 C.3       1 <0>        -0.1756
      2 C2          0.5478    7.1830   -2.4114 C.3       1 <0>         0.1057
      3 N1         -0.1679    7.2984   -1.1384 N.am      1 <0>        -0.6066
      4 C3         -1.6135    7.5357   -1.1296 C.3       1 <0>         0.1081
      5 C4         -1.8831    9.0417   -1.1243 C.3       1 <0>        -0.1675
      6 C5          0.5037    7.1864    0.0248 C.2       1 <0>         0.5799
      7 O1         -0.0909    7.2823    1.0825 O.2       1 <0>        -0.5285
      8 C6          1.9502    6.9490    0.0160 C.2       1 <0>        -0.2135
      9 C7          2.8951    8.0529    0.0175 C.2       1 <0>        -0.0665
     10 C8          4.1975    7.6953    0.0026 C.2       1 <0>        -0.2047
     11 S1          4.1808    5.9250   -0.0067 S.3       1 <0>         0.2298
     12 C9          2.4684    5.6612    0.0094 C.2       1 <0>         0.0702
     13 N2          1.7829    4.4575    0.0095 N.am      1 <0>        -0.6148
     14 C10         2.4636    3.2944   -0.0038 C.2       1 <0>         0.6041
     15 O2          3.6807    3.3016   -0.0158 O.2       1 <0>        -0.4851
     16 C11         1.7385    2.0212   -0.0037 C.2       1 <0>        -0.2540
     17 C12         2.2413    0.7291   -0.0154 C.2       1 <0>        -0.0515
     18 C13         1.3291   -0.2965   -0.0122 C.2       1 <0>        -0.1805
     19 C14         0.0021   -0.0041    0.0020 C.2       1 <0>        -0.1668
     20 S2         -0.0214    1.7294    0.0116 S.3       1 <0>         0.1466
     21 C15         5.3848    8.6081   -0.0031 C.3       1 <0>        -0.0302
     22 C16         4.9140   10.0164    0.3882 C.3       1 <0>        -0.0871
     23 H1          4.6680   10.0397    1.4499 H         1 <0>         0.0765
     24 C17         3.6710   10.3672   -0.4346 C.3       1 <0>        -0.1125
     25 C18         2.4844    9.5202    0.0284 C.3       1 <0>        -0.0591
     26 C19         6.0243   11.0278    0.0967 C.3       1 <0>        -0.1474
     27 H2          1.0657    5.1150   -2.1015 H         1 <0>         0.0536
     28 H3         -0.4605    5.3669   -2.9823 H         1 <0>         0.0604
     29 H4          1.0958    5.6334   -3.8041 H         1 <0>         0.0707
     30 H5          0.0454    7.7873   -3.1668 H         1 <0>         0.0817
     31 H6          1.5716    7.5355   -2.2860 H         1 <0>         0.0828
     32 H7         -2.0603    7.0897   -2.0182 H         1 <0>         0.0781
     33 H8         -2.0502    7.0853   -0.2383 H         1 <0>         0.0839
     34 H9         -2.9587    9.2183   -1.1178 H         1 <0>         0.0674
     35 H10        -1.4364    9.4877   -0.2357 H         1 <0>         0.0595
     36 H11        -1.4464    9.4922   -2.0157 H         1 <0>         0.0559
     37 H12         0.8130    4.4518    0.0191 H         1 <0>         0.4176
     38 H13         3.3042    0.5380   -0.0269 H         1 <0>         0.1526
     39 H14         1.6621   -1.3238   -0.0213 H         1 <0>         0.1468
     40 H15        -0.8351   -0.6863    0.0063 H         1 <0>         0.1956
     41 H16         6.1233    8.2545    0.7164 H         1 <0>         0.0812
     42 H17         5.8248    8.6320   -1.0000 H         1 <0>         0.0837
     43 H18         3.8670   10.1704   -1.4886 H         1 <0>         0.0667
     44 H19         3.4355   11.4233   -0.3024 H         1 <0>         0.0703
     45 H20         1.6430    9.6691   -0.6483 H         1 <0>         0.0713
     46 H21         2.1968    9.8116    1.0386 H         1 <0>         0.0785
     47 H22         5.6837   12.0283    0.3636 H         1 <0>         0.0582
     48 H23         6.9080   10.7764    0.6832 H         1 <0>         0.0577
     49 H24         6.2723   10.9995   -0.9643 H         1 <0>         0.0569
@<TRIPOS>BOND
     1    1    2 1
     2    1   27 1
     3    1   28 1
     4    1   29 1
     5    2    3 1
     6    2   30 1
     7    2   31 1
     8    3    4 1
     9    3    6 am
    10    4    5 1
    11    4   32 1
    12    4   33 1
    13    5   34 1
    14    5   35 1
    15    5   36 1
    16    6    7 2
    17    6    8 1
    18    8   12 2
    19    8    9 1
    20    9   25 1
    21    9   10 2
    22   10   11 1
    23   10   21 1
    24   11   12 1
    25   12   13 1
    26   13   14 am
    27   13   37 1
    28   14   15 2
    29   14   16 1
    30   16   20 1
    31   16   17 2
    32   17   18 1
    33   17   38 1
    34   18   19 2
    35   18   39 1
    36   19   20 1
    37   19   40 1
    38   21   22 1
    39   21   41 1
    40   21   42 1
    41   22   23 1
    42   22   24 1
    43   22   26 1
    44   24   25 1
    45   24   43 1
    46   24   44 1
    47   25   45 1
    48   25   46 1
    49   26   47 1
    50   26   48 1
    51   26   49 1
@<TRIPOS>MOLECULE
ZINC01081631
   49    51     0     0     0
SMALL
USER_CHARGES
N,N-diethyl-6-methyl-2-(2-thienylcarbonylamino)-4,5,6,7-tetrahydrobenzothiophene-3-carboxamide
@<TRIPOS>ATOM
      1 C1         -0.5642   -1.2980    6.4616 C.3       1 <0>        -0.1672
      2 C2          0.9563   -1.1774    6.5811 C.3       1 <0>         0.1081
      3 N1          1.5214   -0.8155    5.2788 N.am      1 <0>        -0.6062
      4 C3          1.9241   -1.8639    4.3381 C.3       1 <0>         0.1059
      5 C4          3.3881   -2.2343    4.5835 C.3       1 <0>        -0.1756
      6 C5          1.6707    0.4820    4.9461 C.2       1 <0>         0.5800
      7 O1          1.3361    1.3531    5.7277 O.2       1 <0>        -0.5290
      8 C6          2.2360    0.8442    3.6430 C.2       1 <0>        -0.2133
      9 C7          1.3866    1.0341    2.4795 C.2       1 <0>        -0.0669
     10 C8          2.0350    1.3648    1.3417 C.2       1 <0>        -0.2044
     11 S1          3.7449    1.4261    1.7965 S.3       1 <0>         0.2297
     12 C9          3.6029    1.0181    3.4745 C.2       1 <0>         0.0701
     13 N2          4.6091    0.8948    4.4184 N.am      1 <0>        -0.6149
     14 C10         5.8931    1.1038    4.0659 C.2       1 <0>         0.6041
     15 O2          6.1684    1.4008    2.9182 O.2       1 <0>        -0.4851
     16 C11         6.9574    0.9735    5.0644 C.2       1 <0>        -0.2540
     17 C12         8.3249    1.1437    4.9114 C.2       1 <0>        -0.0515
     18 C13         9.1060    0.9590    6.0248 C.2       1 <0>        -0.1805
     19 C14         8.5151    0.6246    7.2019 C.2       1 <0>        -0.1668
     20 S2          6.8309    0.5620    6.7958 S.3       1 <0>         0.1466
     21 C15         1.4269    1.6202   -0.0029 C.3       1 <0>        -0.0309
     22 C16        -0.0127    1.0858    0.0080 C.3       1 <0>        -0.0854
     23 H1          0.0021   -0.0041    0.0020 H         1 <0>         0.0756
     24 C17        -0.7138    1.5827    1.2756 C.3       1 <0>        -0.1140
     25 C18        -0.1292    0.8806    2.5026 C.3       1 <0>        -0.0590
     26 C19        -0.7582    1.5954   -1.2271 C.3       1 <0>        -0.1479
     27 H2         -0.9846   -1.5673    7.4305 H         1 <0>         0.0673
     28 H3         -0.9800   -0.3439    6.1377 H         1 <0>         0.0594
     29 H4         -0.8113   -2.0686    5.7315 H         1 <0>         0.0560
     30 H5          1.3721   -2.1315    6.9050 H         1 <0>         0.0781
     31 H6          1.2035   -0.4068    7.3112 H         1 <0>         0.0839
     32 H7          1.2973   -2.7436    4.4844 H         1 <0>         0.0817
     33 H8          1.8075   -1.5003    3.3172 H         1 <0>         0.0825
     34 H9          4.0149   -1.3546    4.4373 H         1 <0>         0.0536
     35 H10         3.5047   -2.5979    5.6044 H         1 <0>         0.0604
     36 H11         3.6878   -3.0144    3.8836 H         1 <0>         0.0707
     37 H12         4.3897    0.6582    5.3331 H         1 <0>         0.4176
     38 H13         8.7565    1.4103    3.9580 H         1 <0>         0.1526
     39 H14        10.1779    1.0778    5.9659 H         1 <0>         0.1468
     40 H15         8.9813    0.4452    8.1595 H         1 <0>         0.1956
     41 H16         2.0040    1.1050   -0.7707 H         1 <0>         0.0813
     42 H17         1.4195    2.6911   -0.2058 H         1 <0>         0.0836
     43 H18        -0.5694    2.6589    1.3711 H         1 <0>         0.0675
     44 H19        -1.7800    1.3662    1.2083 H         1 <0>         0.0704
     45 H20        -0.3898   -0.1775    2.4769 H         1 <0>         0.0754
     46 H21        -0.5288    1.3356    3.4089 H         1 <0>         0.0748
     47 H22        -0.2527    1.2448   -2.1269 H         1 <0>         0.0578
     48 H23        -1.7811    1.2191   -1.2150 H         1 <0>         0.0582
     49 H24        -0.7719    2.6853   -1.2193 H         1 <0>         0.0572
@<TRIPOS>BOND
     1    1    2 1
     2    1   27 1
     3    1   28 1
     4    1   29 1
     5    2    3 1
     6    2   30 1
     7    2   31 1
     8    3    4 1
     9    3    6 am
    10    4    5 1
    11    4   32 1
    12    4   33 1
    13    5   34 1
    14    5   35 1
    15    5   36 1
    16    6    7 2
    17    6    8 1
    18    8   12 2
    19    8    9 1
    20    9   25 1
    21    9   10 2
    22   10   11 1
    23   10   21 1
    24   11   12 1
    25   12   13 1
    26   13   14 am
    27   13   37 1
    28   14   15 2
    29   14   16 1
    30   16   20 1
    31   16   17 2
    32   17   18 1
    33   17   38 1
    34   18   19 2
    35   18   39 1
    36   19   20 1
    37   19   40 1
    38   21   22 1
    39   21   41 1
    40   21   42 1
    41   22   23 1
    42   22   24 1
    43   22   26 1
    44   24   25 1
    45   24   43 1
    46   24   44 1
    47   25   45 1
    48   25   46 1
    49   26   47 1
    50   26   48 1
    51   26   49 1
@<TRIPOS>MOLECULE
ZINC04425504
   36    37     0     0     0
SMALL
USER_CHARGES

@<TRIPOS>ATOM
      1 C1         -0.0052    1.3891    1.0695 C.3       1 <0>        -0.1519
      2 C2          0.0016   -0.1277    0.8697 C.3       1 <0>         0.0634
      3 O1         -1.3345   -0.5855    0.6523 O.3       1 <0>        -0.3402
      4 C3         -1.5043   -1.9100    0.4572 C.2       1 <0>         0.5337
      5 O2         -0.5425   -2.6553    0.4716 O.2       1 <0>        -0.5084
      6 C4         -2.7999   -2.4318    0.2360 C.2       1 <0>        -0.2588
      7 C5         -2.9843   -3.7311   -0.0846 C.2       1 <0>         0.2341
      8 N1         -4.2351   -4.2334   -0.2977 N.pl3     1 <0>        -0.5993
      9 C6         -5.3538   -3.5031   -0.2095 C.2       1 <0>         0.5544
     10 N2         -5.3318   -2.1919    0.1016 N.pl3     1 <0>        -0.6432
     11 C7         -4.0292   -1.5541    0.3568 C.3       1 <0>         0.2183
     12 H1         -4.0467   -1.1370    1.3637 H         1 <0>         0.1040
     13 C8         -3.8800   -0.4096   -0.6122 C.ar      1 <0>        -0.0993
     14 C9         -4.1699   -0.5961   -1.9515 C.ar      1 <0>        -0.1077
     15 C10        -4.0341    0.4517   -2.8429 C.ar      1 <0>        -0.1037
     16 C11        -3.6077    1.6882   -2.3977 C.ar      1 <0>        -0.1345
     17 C12        -3.3162    1.8778   -1.0549 C.ar      1 <0>         0.1052
     18 C13        -3.4592    0.8262   -0.1611 C.ar      1 <0>        -0.0976
     19 O3         -2.8966    3.0931   -0.6145 O.3       1 <0>        -0.4963
     20 S1         -6.8616   -4.2594   -0.5021 S.2       1 <0>        -0.5845
     21 C14        -1.7892   -4.6406   -0.2094 C.3       1 <0>        -0.1385
     22 H2          1.0140    1.7383    1.2354 H         1 <0>         0.0782
     23 H3         -0.4142    1.8708    0.1814 H         1 <0>         0.0715
     24 H4         -0.6201    1.6390    1.9341 H         1 <0>         0.0649
     25 H5          0.6165   -0.3776    0.0051 H         1 <0>         0.0668
     26 H6          0.4106   -0.6094    1.7579 H         1 <0>         0.0675
     27 H7         -4.5027   -1.5621   -2.3016 H         1 <0>         0.1152
     28 H8         -4.2611    0.3036   -3.8884 H         1 <0>         0.1287
     29 H9         -3.5010    2.5063   -3.0946 H         1 <0>         0.1301
     30 H10        -3.2375    0.9726    0.8857 H         1 <0>         0.1342
     31 H11        -3.6135    3.6804   -0.3383 H         1 <0>         0.3915
     32 H12        -1.5121   -5.0138    0.7765 H         1 <0>         0.1054
     33 H13        -2.0375   -5.4799   -0.8590 H         1 <0>         0.0773
     34 H14        -0.9534   -4.0859   -0.6360 H         1 <0>         0.1261
     35 H15        -4.3184   -5.1724   -0.5263 H         1 <0>         0.4449
     36 H16        -6.1545   -1.6814    0.1596 H         1 <0>         0.4485
@<TRIPOS>BOND
     1    1    2 1
     2    1   22 1
     3    1   23 1
     4    1   24 1
     5    2    3 1
     6    2   25 1
     7    2   26 1
     8    3    4 1
     9    4    5 2
    10    4    6 1
    11    6   11 1
    12    6    7 2
    13    7    8 1
    14    7   21 1
    15    8    9 1
    16    8   35 1
    17    9   10 1
    18    9   20 2
    19   10   11 1
    20   10   36 1
    21   11   12 1
    22   11   13 1
    23   13   18 ar
    24   13   14 ar
    25   14   15 ar
    26   14   27 1
    27   15   16 ar
    28   15   28 1
    29   16   17 ar
    30   16   29 1
    31   17   18 ar
    32   17   19 1
    33   18   30 1
    34   19   31 1
    35   21   32 1
    36   21   33 1
    37   21   34 1
@<TRIPOS>MOLECULE
ZINC04425506
   36    37     0     0     0
SMALL
USER_CHARGES

@<TRIPOS>ATOM
      1 C1         -0.0004    1.3981    1.0127 C.3       1 <0>        -0.1519
      2 C2          0.0043   -0.1216    0.8353 C.3       1 <0>         0.0620
      3 O1         -1.3321   -0.5805    0.6223 O.3       1 <0>        -0.3444
      4 C3         -1.5035   -1.9075    0.4465 C.2       1 <0>         0.5365
      5 O2         -0.5428   -2.6539    0.4736 O.2       1 <0>        -0.5076
      6 C4         -2.7995   -2.4306    0.2308 C.2       1 <0>        -0.2601
      7 C5         -2.9843   -3.7311   -0.0846 C.2       1 <0>         0.2354
      8 N1         -4.2355   -4.2346   -0.2924 N.pl3     1 <0>        -0.5994
      9 C6         -5.3542   -3.5044   -0.2038 C.2       1 <0>         0.5538
     10 N2         -5.3319   -2.1921    0.1025 N.pl3     1 <0>        -0.6428
     11 C7         -4.0288   -1.5529    0.3518 C.3       1 <0>         0.2181
     12 H1         -3.9232   -0.7276   -0.3524 H         1 <0>         0.1056
     13 C8         -4.0495   -0.9712    1.7419 C.ar      1 <0>        -0.1010
     14 C9         -4.5015   -1.7338    2.8032 C.ar      1 <0>        -0.1070
     15 C10        -4.5217   -1.2031    4.0796 C.ar      1 <0>        -0.1029
     16 C11        -4.0904    0.0912    4.2977 C.ar      1 <0>        -0.1338
     17 C12        -3.6365    0.8582    3.2348 C.ar      1 <0>         0.1042
     18 C13        -3.6115    0.3212    1.9557 C.ar      1 <0>        -0.1036
     19 O3         -3.2118    2.1316    3.4468 O.3       1 <0>        -0.4956
     20 S1         -6.8625   -4.2623   -0.4895 S.2       1 <0>        -0.5831
     21 C14        -1.7892   -4.6406   -0.2094 C.3       1 <0>        -0.1384
     22 H2          1.0190    1.7482    1.1751 H         1 <0>         0.0814
     23 H3         -0.4072    1.8672    0.1168 H         1 <0>         0.0680
     24 H4         -0.6164    1.6616    1.8724 H         1 <0>         0.0634
     25 H5          0.6204   -0.3851   -0.0245 H         1 <0>         0.0693
     26 H6          0.4111   -0.5907    1.7312 H         1 <0>         0.0679
     27 H7         -4.8397   -2.7455    2.6346 H         1 <0>         0.1159
     28 H8         -4.8752   -1.8007    4.9068 H         1 <0>         0.1296
     29 H9         -4.1070    0.5056    5.2949 H         1 <0>         0.1310
     30 H10        -3.2541    0.9147    1.1272 H         1 <0>         0.1365
     31 H11        -2.2680    2.2036    3.6448 H         1 <0>         0.3901
     32 H12        -1.5121   -5.0138    0.7765 H         1 <0>         0.1049
     33 H13        -2.0375   -5.4799   -0.8590 H         1 <0>         0.0778
     34 H14        -0.9534   -4.0859   -0.6360 H         1 <0>         0.1260
     35 H15        -4.3190   -5.1745   -0.5174 H         1 <0>         0.4450
     36 H16        -6.1546   -1.6817    0.1609 H         1 <0>         0.4490
@<TRIPOS>BOND
     1    1    2 1
     2    1   22 1
     3    1   23 1
     4    1   24 1
     5    2    3 1
     6    2   25 1
     7    2   26 1
     8    3    4 1
     9    4    5 2
    10    4    6 1
    11    6   11 1
    12    6    7 2
    13    7    8 1
    14    7   21 1
    15    8    9 1
    16    8   35 1
    17    9   10 1
    18    9   20 2
    19   10   11 1
    20   10   36 1
    21   11   12 1
    22   11   13 1
    23   13   18 ar
    24   13   14 ar
    25   14   15 ar
    26   14   27 1
    27   15   16 ar
    28   15   28 1
    29   16   17 ar
    30   16   29 1
    31   17   18 ar
    32   17   19 1
    33   18   30 1
    34   19   31 1
    35   21   32 1
    36   21   33 1
    37   21   34 1
@<TRIPOS>MOLECULE
ZINC02574122
   27    28     0     0     0
SMALL
USER_CHARGES
4-[4-(trifluoromethyl)phenyl]aniline
@<TRIPOS>ATOM
      1 C1          2.5039   -0.3263   -0.0189 C.ar      1 <0>        -0.1246
      2 C2          3.7119   -0.9933   -0.0399 C.ar      1 <0>        -0.0621
      3 C3          4.8979   -0.2815   -0.0479 C.ar      1 <0>        -0.1949
      4 C4          4.8805    1.1017   -0.0397 C.ar      1 <0>        -0.0621
      5 C5          3.6782    1.7791   -0.0240 C.ar      1 <0>        -0.1246
      6 C6          2.4802    1.0671   -0.0164 C.ar      1 <0>         0.0105
      7 C7          1.1848    1.7897    0.0004 C.ar      1 <0>        -0.1246
      8 C8         -0.0126    1.0758    0.0080 C.ar      1 <0>        -0.0495
      9 C9         -1.2154    1.7493    0.0173 C.ar      1 <0>        -0.1994
     10 C10        -1.2347    3.1393    0.0313 C.ar      1 <0>         0.2284
     11 C11        -0.0418    3.8531    0.0232 C.ar      1 <0>        -0.1994
     12 C12         1.1631    3.1835    0.0081 C.ar      1 <0>        -0.0495
     13 N1         -2.4535    3.8191    0.0471 N.pl3     1 <0>        -0.8739
     14 C13         6.2139   -1.0155   -0.0650 C.3       1 <0>         0.5084
     15 F1          6.6341   -1.2503    1.2486 F         1 <0>        -0.1770
     16 F2          6.0583   -2.2365   -0.7300 F         1 <0>        -0.1776
     17 F3          7.1712   -0.2413   -0.7294 F         1 <0>        -0.1776
     18 H1          1.5785   -0.8831   -0.0085 H         1 <0>         0.1363
     19 H2          3.7314   -2.0731   -0.0456 H         1 <0>         0.1366
     20 H3          5.8095    1.6524   -0.0460 H         1 <0>         0.1366
     21 H4          3.6658    2.8590   -0.0173 H         1 <0>         0.1363
     22 H5          0.0021   -0.0041    0.0020 H         1 <0>         0.1270
     23 H6         -2.1433    1.1966    0.0183 H         1 <0>         0.1244
     24 H7         -0.0591    4.9329    0.0292 H         1 <0>         0.1244
     25 H8          2.0896    3.7385    0.0019 H         1 <0>         0.1270
     26 H9         -2.4678    4.7890    0.0524 H         1 <0>         0.4004
     27 H10        -3.2862    3.3217    0.0527 H         1 <0>         0.4004
@<TRIPOS>BOND
     1    1    6 ar
     2    1    2 ar
     3    1   18 1
     4    2    3 ar
     5    2   19 1
     6    3    4 ar
     7    3   14 1
     8    4    5 ar
     9    4   20 1
    10    5    6 ar
    11    5   21 1
    12    6    7 1
    13    7   12 ar
    14    7    8 ar
    15    8    9 ar
    16    8   22 1
    17    9   10 ar
    18    9   23 1
    19   10   11 ar
    20   10   13 1
    21   11   12 ar
    22   11   24 1
    23   12   25 1
    24   13   26 1
    25   13   27 1
    26   14   15 1
    27   14   16 1
    28   14   17 1
@<TRIPOS>MOLECULE
ZINC28711886
   30    31     0     0     0
SMALL
USER_CHARGES

@<TRIPOS>ATOM
      1 C1         -0.0168    1.3892    0.0097 C.ar      1 <0>        -0.1039
      2 C2          1.1704    2.0929    0.0021 C.ar      1 <0>        -0.0671
      3 C3          2.3775    1.4176   -0.0135 C.ar      1 <0>        -0.1748
      4 C4          2.4021    0.0347   -0.0212 C.ar      1 <0>        -0.0671
      5 C5          1.2209   -0.6791   -0.0133 C.ar      1 <0>        -0.1039
      6 C6          0.0021   -0.0041    0.0020 C.ar      1 <0>        -0.0294
      7 C7         -1.2712   -0.7661    0.0106 C.ar      1 <0>         0.0068
      8 C8         -2.4901   -0.0910    0.0205 C.ar      1 <0>        -0.1284
      9 C9         -3.6713   -0.8048    0.0279 C.ar      1 <0>        -0.0174
     10 C10        -3.6467   -2.1878    0.0256 C.ar      1 <0>        -0.6749
     11 C11        -2.4395   -2.8631    0.0162 C.ar      1 <0>        -0.0123
     12 C12        -1.2523   -2.1593    0.0029 C.ar      1 <0>        -0.1287
     13 S1         -5.1585   -3.0927    0.0351 S.o2      1 <0>         2.7018
     14 O1         -4.8635   -4.3707    0.5818 O.2       1 <0>        -0.9604
     15 O2         -6.1425   -2.2335    0.5945 O.2       1 <0>        -0.9583
     16 N1         -5.5901   -3.3416   -1.5441 N.pl3     1 <0>        -1.2475
     17 C13         3.6706    2.1916   -0.0227 C.3       1 <0>         0.5075
     18 F1          4.0841    2.4244    1.2934 F         1 <0>        -0.1742
     19 F2          4.6506    1.4542   -0.6958 F         1 <0>        -0.1752
     20 F3          3.4775    3.4145   -0.6741 F         1 <0>        -0.1752
     21 H1         -0.9587    1.9173    0.0260 H         1 <0>         0.1414
     22 H2          1.1570    3.1728    0.0081 H         1 <0>         0.1423
     23 H3          3.3474   -0.4875   -0.0337 H         1 <0>         0.1423
     24 H4          1.2412   -1.7589   -0.0192 H         1 <0>         0.1414
     25 H5         -2.5104    0.9888    0.0227 H         1 <0>         0.1396
     26 H6         -4.6166   -0.2826    0.0360 H         1 <0>         0.1478
     27 H7         -2.4260   -3.9430    0.0148 H         1 <0>         0.1477
     28 H8         -0.3104   -2.6876   -0.0089 H         1 <0>         0.1396
     29 H9         -6.0956   -4.1322   -1.7899 H         1 <0>         0.4229
     30 H10        -5.3375   -2.6969   -2.2234 H         1 <0>         0.4175
@<TRIPOS>BOND
     1    1    6 ar
     2    1    2 ar
     3    1   21 1
     4    2    3 ar
     5    2   22 1
     6    3    4 ar
     7    3   17 1
     8    4    5 ar
     9    4   23 1
    10    5    6 ar
    11    5   24 1
    12    6    7 1
    13    7   12 ar
    14    7    8 ar
    15    8    9 ar
    16    8   25 1
    17    9   10 ar
    18    9   26 1
    19   10   11 ar
    20   10   13 1
    21   11   12 ar
    22   11   27 1
    23   12   28 1
    24   13   14 2
    25   13   15 2
    26   13   16 1
    27   16   29 1
    28   16   30 1
    29   17   18 1
    30   17   19 1
    31   17   20 1
@<TRIPOS>MOLECULE
ZINC02529931
   25    26     0     0     0
SMALL
USER_CHARGES

@<TRIPOS>ATOM
      1 C1         -0.0167    1.3790    0.0096 C.ar      1 <0>        -0.1108
      2 C2          1.1687    2.0919    0.0021 C.ar      1 <0>        -0.1184
      3 C3          2.3774    1.4258   -0.0129 C.ar      1 <0>        -0.1039
      4 C4          2.4022    0.0327   -0.0206 C.ar      1 <0>        -0.0601
      5 C5          1.2051   -0.6804   -0.0130 C.ar      1 <0>        -0.1039
      6 C6          0.0021   -0.0041    0.0020 C.ar      1 <0>        -0.1184
      7 C7          3.6987   -0.6889   -0.0373 C.ar      1 <0>        -0.0084
      8 C8          4.8958    0.0241   -0.0395 C.ar      1 <0>        -0.1149
      9 C9          6.0988   -0.6522   -0.0546 C.ar      1 <0>        -0.0649
     10 C10         6.1176   -2.0352   -0.0680 C.ar      1 <0>        -0.1858
     11 C11         4.9322   -2.7481   -0.0663 C.ar      1 <0>        -0.0649
     12 C12         3.7235   -2.0821   -0.0450 C.ar      1 <0>        -0.1149
     13 C13         7.4343   -2.7680   -0.0849 C.3       1 <0>         0.5082
     14 F1          7.8517   -3.0074    1.2288 F         1 <0>        -0.1758
     15 F2          7.2812   -3.9866   -0.7549 F         1 <0>        -0.1765
     16 F3          8.3923   -1.9905   -0.7442 F         1 <0>        -0.1765
     17 H1         -0.9603    1.9042    0.0260 H         1 <0>         0.1256
     18 H2          1.1483    3.1717    0.0077 H         1 <0>         0.1272
     19 H3          3.3023    1.9834   -0.0191 H         1 <0>         0.1274
     20 H4          1.2186   -1.7603   -0.0193 H         1 <0>         0.1274
     21 H5         -0.9264   -0.5558    0.0082 H         1 <0>         0.1272
     22 H6          4.8823    1.1040   -0.0299 H         1 <0>         0.1384
     23 H7          7.0273   -0.1005   -0.0564 H         1 <0>         0.1392
     24 H8          4.9525   -3.8278   -0.0771 H         1 <0>         0.1392
     25 H9          2.7986   -2.6396   -0.0392 H         1 <0>         0.1384
@<TRIPOS>BOND
     1    1    6 ar
     2    1    2 ar
     3    1   17 1
     4    2    3 ar
     5    2   18 1
     6    3    4 ar
     7    3   19 1
     8    4    5 ar
     9    4    7 1
    10    5    6 ar
    11    5   20 1
    12    6   21 1
    13    7   12 ar
    14    7    8 ar
    15    8    9 ar
    16    8   22 1
    17    9   10 ar
    18    9   23 1
    19   10   11 ar
    20   10   13 1
    21   11   12 ar
    22   11   24 1
    23   12   25 1
    24   13   14 1
    25   13   15 1
    26   13   16 1
@<TRIPOS>MOLECULE
ZINC13840578
   26    27     0     0     0
SMALL
USER_CHARGES
4-[4-(trifluoromethyl)phenyl]phenol
@<TRIPOS>ATOM
      1 C1          2.5047   -0.3256   -0.0178 C.ar      1 <0>        -0.1150
      2 C2          3.7131   -0.9921   -0.0383 C.ar      1 <0>        -0.0644
      3 C3          4.8988   -0.2796   -0.0462 C.ar      1 <0>        -0.1855
      4 C4          4.8806    1.1035   -0.0386 C.ar      1 <0>        -0.0644
      5 C5          3.6779    1.7803   -0.0235 C.ar      1 <0>        -0.1150
      6 C6          2.4804    1.0677   -0.0159 C.ar      1 <0>        -0.0076
      7 C7          1.1845    1.7898    0.0004 C.ar      1 <0>        -0.0685
      8 C8         -0.0126    1.0758    0.0080 C.ar      1 <0>        -0.0861
      9 C9         -1.2157    1.7497    0.0173 C.ar      1 <0>        -0.1439
     10 C10        -1.2353    3.1379    0.0302 C.ar      1 <0>         0.1155
     11 C11        -0.0446    3.8517    0.0222 C.ar      1 <0>        -0.1437
     12 C12         1.1616    3.1833    0.0076 C.ar      1 <0>        -0.0861
     13 O1         -2.4222    3.7991    0.0446 O.3       1 <0>        -0.4988
     14 C13         6.2151   -1.0130   -0.0628 C.3       1 <0>         0.5081
     15 F1          6.6351   -1.2471    1.2510 F         1 <0>        -0.1757
     16 F2          6.0602   -2.2343   -0.7274 F         1 <0>        -0.1764
     17 F3          7.1721   -0.2386   -0.7273 F         1 <0>        -0.1764
     18 H1          1.5796   -0.8828   -0.0074 H         1 <0>         0.1386
     19 H2          3.7331   -2.0719   -0.0436 H         1 <0>         0.1394
     20 H3          5.8093    1.6547   -0.0449 H         1 <0>         0.1394
     21 H4          3.6649    2.8602   -0.0172 H         1 <0>         0.1386
     22 H5          0.0021   -0.0041    0.0020 H         1 <0>         0.1328
     23 H6         -2.1436    1.1971    0.0191 H         1 <0>         0.1340
     24 H7         -0.0629    4.9316    0.0278 H         1 <0>         0.1340
     25 H8          2.0876    3.7392    0.0014 H         1 <0>         0.1328
     26 H9         -2.7741    3.9947   -0.8346 H         1 <0>         0.3943
@<TRIPOS>BOND
     1    1    6 ar
     2    1    2 ar
     3    1   18 1
     4    2    3 ar
     5    2   19 1
     6    3    4 ar
     7    3   14 1
     8    4    5 ar
     9    4   20 1
    10    5    6 ar
    11    5   21 1
    12    6    7 1
    13    7   12 ar
    14    7    8 ar
    15    8    9 ar
    16    8   22 1
    17    9   10 ar
    18    9   23 1
    19   10   11 ar
    20   10   13 1
    21   11   12 ar
    22   11   24 1
    23   12   25 1
    24   13   26 1
    25   14   15 1
    26   14   16 1
    27   14   17 1
@<TRIPOS>MOLECULE
ZINC01661610
   52    56     0     0     0
SMALL
USER_CHARGES
butyl-(3-hydroxyphenyl)-BLAHdione
@<TRIPOS>ATOM
      1 C1         -2.0333    0.2499    3.1763 C.3       1 <0>        -0.1527
      2 C2         -1.1385   -0.0598    1.9745 C.3       1 <0>        -0.1201
      3 C3         -1.6494    0.7002    0.7488 C.3       1 <0>        -0.1365
      4 C4         -0.7546    0.3904   -0.4529 C.3       1 <0>         0.1178
      5 N1         -1.2438    1.1181   -1.6265 N.am      1 <0>        -0.5753
      6 C5         -2.1466    0.6270   -2.4999 C.2       1 <0>         0.5299
      7 O1         -2.6734   -0.4645   -2.4704 O.2       1 <0>        -0.4574
      8 C6         -2.3687    1.7214   -3.5243 C.3       1 <0>         0.0847
      9 H1         -3.3957    2.0863   -3.5356 H         1 <0>         0.1387
     10 C7         -1.9313    1.2228   -4.9068 C.3       1 <0>        -0.0404
     11 C8         -1.5486    2.4027   -5.7647 C.2       1 <0>        -0.1495
     12 C9         -1.4519    2.4464   -7.2123 C.ar      1 <0>        -0.1004
     13 C10        -1.6753    1.4860   -8.2035 C.ar      1 <0>        -0.0644
     14 C11        -1.4847    1.8821   -9.5044 C.ar      1 <0>        -0.1467
     15 C12        -1.0893    3.1690   -9.8314 C.ar      1 <0>        -0.0944
     16 C13        -0.8602    4.1384   -8.8704 C.ar      1 <0>        -0.1304
     17 C14        -1.0468    3.7649   -7.5409 C.ar      1 <0>         0.1076
     18 N2         -0.9131    4.4521   -6.3691 N.pl3     1 <0>        -0.5730
     19 H2         -0.6428    5.3806   -6.2939 H         1 <0>         0.4184
     20 C15        -1.2184    3.6320   -5.3158 C.2       1 <0>         0.0624
     21 C16        -1.2011    4.0138   -3.8488 C.3       1 <0>         0.2955
     22 H3         -0.2357    4.4464   -3.5861 H         1 <0>         0.1228
     23 N3         -1.4182    2.7717   -3.0969 N.am      1 <0>        -0.6110
     24 C17        -0.8450    2.3519   -1.9675 C.2       1 <0>         0.7132
     25 O2         -0.0530    3.0112   -1.3231 O.2       1 <0>        -0.5329
     26 C18        -2.3050    4.9965   -3.5545 C.ar      1 <0>        -0.0924
     27 C19        -3.6266    4.6055   -3.6686 C.ar      1 <0>        -0.1073
     28 C20        -4.6416    5.5029   -3.3938 C.ar      1 <0>        -0.0997
     29 C21        -4.3378    6.7966   -3.0153 C.ar      1 <0>        -0.1340
     30 C22        -3.0130    7.1929   -2.9057 C.ar      1 <0>         0.1098
     31 C23        -1.9961    6.2886   -3.1765 C.ar      1 <0>        -0.1260
     32 O3         -2.7116    8.4649   -2.5341 O.3       1 <0>        -0.4960
     33 H4         -2.0127    1.3209    3.3782 H         1 <0>         0.0547
     34 H5         -3.0555   -0.0590    2.9573 H         1 <0>         0.0545
     35 H6         -1.6693   -0.2915    4.0494 H         1 <0>         0.0574
     36 H7         -1.1590   -1.1307    1.7726 H         1 <0>         0.0661
     37 H8         -0.1163    0.2491    2.1935 H         1 <0>         0.0666
     38 H9         -1.6289    1.7711    0.9507 H         1 <0>         0.0709
     39 H10        -2.6716    0.3913    0.5299 H         1 <0>         0.0680
     40 H11        -0.7752   -0.6805   -0.6548 H         1 <0>         0.0972
     41 H12         0.2676    0.6993   -0.2340 H         1 <0>         0.0979
     42 H13        -2.7544    0.6837   -5.3760 H         1 <0>         0.1017
     43 H14        -1.0746    0.5575   -4.8001 H         1 <0>         0.0851
     44 H15        -1.9834    0.4805   -7.9577 H         1 <0>         0.1312
     45 H16        -1.6477    1.1677  -10.2978 H         1 <0>         0.1204
     46 H17        -0.9549    3.4245  -10.8721 H         1 <0>         0.1229
     47 H18        -0.5512    5.1379   -9.1385 H         1 <0>         0.1293
     48 H19        -3.8661    3.5961   -3.9689 H         1 <0>         0.1252
     49 H20        -5.6729    5.1938   -3.4790 H         1 <0>         0.1322
     50 H21        -5.1311    7.4987   -2.8054 H         1 <0>         0.1326
     51 H22        -0.9639    6.5948   -3.0922 H         1 <0>         0.1330
     52 H23        -2.6289    9.0817   -3.2742 H         1 <0>         0.3927
@<TRIPOS>BOND
     1    1    2 1
     2    1   33 1
     3    1   34 1
     4    1   35 1
     5    2    3 1
     6    2   36 1
     7    2   37 1
     8    3    4 1
     9    3   38 1
    10    3   39 1
    11    4    5 1
    12    4   40 1
    13    4   41 1
    14    5   24 am
    15    5    6 am
    16    6    7 2
    17    6    8 1
    18    8    9 1
    19    8   23 1
    20    8   10 1
    21   10   11 1
    22   10   42 1
    23   10   43 1
    24   11   20 2
    25   11   12 1
    26   12   17 ar
    27   12   13 ar
    28   13   14 ar
    29   13   44 1
    30   14   15 ar
    31   14   45 1
    32   15   16 ar
    33   15   46 1
    34   16   17 ar
    35   16   47 1
    36   17   18 1
    37   18   19 1
    38   18   20 1
    39   20   21 1
    40   21   22 1
    41   21   23 1
    42   21   26 1
    43   23   24 am
    44   24   25 2
    45   26   31 ar
    46   26   27 ar
    47   27   28 ar
    48   27   48 1
    49   28   29 ar
    50   28   49 1
    51   29   30 ar
    52   29   50 1
    53   30   31 ar
    54   30   32 1
    55   31   51 1
    56   32   52 1
@<TRIPOS>MOLECULE
ZINC01188809
   49    51     0     0     0
SMALL
USER_CHARGES
N,N-diethyl-9-(2-thienylcarbonylamino)-8-thiabicyclo[5.3.0]deca-9,11-diene-10-carboxamide
@<TRIPOS>ATOM
      1 C1          1.2853   -0.2041    2.8801 C.3       1 <0>        -0.1756
      2 C2          2.7468   -0.1965    2.4272 C.3       1 <0>         0.1058
      3 N1          2.8688   -0.9197    1.1590 N.am      1 <0>        -0.6066
      4 C3          3.1322   -2.3608    1.1600 C.3       1 <0>         0.1081
      5 C4          4.6428   -2.6032    1.1490 C.3       1 <0>        -0.1675
      6 C5          2.7387   -0.2592   -0.0086 C.2       1 <0>         0.5795
      7 O1          2.8401   -0.8601   -1.0622 O.2       1 <0>        -0.5288
      8 C6          2.4751    1.1828   -0.0096 C.2       1 <0>        -0.2159
      9 C7          3.5661    2.1480   -0.0245 C.2       1 <0>        -0.0630
     10 C8          3.1812    3.4422   -0.0090 C.2       1 <0>        -0.2006
     11 S1          1.4099    3.3910    0.0074 S.3       1 <0>         0.2271
     12 C9          1.1790    1.6747   -0.0002 C.2       1 <0>         0.0704
     13 N2         -0.0111    0.9658    0.0074 N.am      1 <0>        -0.6152
     14 C10        -1.1873    1.6238    0.0165 C.2       1 <0>         0.6042
     15 O2         -1.2038    2.8408    0.0232 O.2       1 <0>        -0.4851
     16 C11        -2.4461    0.8740    0.0184 C.2       1 <0>        -0.2541
     17 C12        -3.7478    1.3515    0.0272 C.2       1 <0>        -0.0515
     18 C13        -4.7553    0.4195    0.0261 C.2       1 <0>        -0.1806
     19 C14        -4.4371   -0.9016    0.0167 C.2       1 <0>        -0.1669
     20 S2         -2.7036   -0.8913    0.0021 S.3       1 <0>         0.1467
     21 C15         4.0558    4.6568    0.0069 C.3       1 <0>        -0.0377
     22 C16         5.1280    4.5235   -1.0828 C.3       1 <0>        -0.1155
     23 C17         6.3417    3.8218   -0.4816 C.3       1 <0>        -0.1216
     24 C18         5.8959    2.8137    0.5757 C.3       1 <0>        -0.1231
     25 C19         5.0305    1.7285   -0.0551 C.3       1 <0>        -0.0565
     26 H1          0.9521   -1.2331    3.0151 H         1 <0>         0.0603
     27 H2          1.1946    0.3340    3.8236 H         1 <0>         0.0706
     28 H3          0.6682    0.2814    2.1241 H         1 <0>         0.0537
     29 H4          3.3639   -0.6820    3.1832 H         1 <0>         0.0816
     30 H5          3.0800    0.8325    2.2922 H         1 <0>         0.0829
     31 H6          2.6989   -2.8088    2.0543 H         1 <0>         0.0781
     32 H7          2.6853   -2.8125    0.2744 H         1 <0>         0.0839
     33 H8          5.0762   -2.1552    0.2547 H         1 <0>         0.0594
     34 H9          5.0898   -2.1515    2.0347 H         1 <0>         0.0560
     35 H10         4.8388   -3.6754    1.1497 H         1 <0>         0.0674
     36 H11         0.0021   -0.0041    0.0020 H         1 <0>         0.4175
     37 H12        -3.9596    2.4105    0.0342 H         1 <0>         0.1526
     38 H13        -5.7890    0.7325    0.0323 H         1 <0>         0.1467
     39 H14        -5.1030   -1.7520    0.0146 H         1 <0>         0.1956
     40 H15         3.4510    5.5432   -0.1841 H         1 <0>         0.0751
     41 H16         4.5363    4.7464    0.9812 H         1 <0>         0.0901
     42 H17         4.7370    3.9344   -1.9123 H         1 <0>         0.0680
     43 H18         5.4150    5.5132   -1.4382 H         1 <0>         0.0711
     44 H19         6.8857    3.3017   -1.2700 H         1 <0>         0.0636
     45 H20         6.9962    4.5622   -0.0217 H         1 <0>         0.0647
     46 H21         6.7745    2.3555    1.0300 H         1 <0>         0.0655
     47 H22         5.3228    3.3293    1.3463 H         1 <0>         0.0739
     48 H23         5.3409    1.5731   -1.0883 H         1 <0>         0.0784
     49 H24         5.1511    0.7997    0.5026 H         1 <0>         0.0672
@<TRIPOS>BOND
     1    1    2 1
     2    1   26 1
     3    1   27 1
     4    1   28 1
     5    2    3 1
     6    2   29 1
     7    2   30 1
     8    3    4 1
     9    3    6 am
    10    4    5 1
    11    4   31 1
    12    4   32 1
    13    5   33 1
    14    5   34 1
    15    5   35 1
    16    6    7 2
    17    6    8 1
    18    8   12 2
    19    8    9 1
    20    9   25 1
    21    9   10 2
    22   10   11 1
    23   10   21 1
    24   11   12 1
    25   12   13 1
    26   13   14 am
    27   13   36 1
    28   14   15 2
    29   14   16 1
    30   16   20 1
    31   16   17 2
    32   17   18 1
    33   17   37 1
    34   18   19 2
    35   18   38 1
    36   19   20 1
    37   19   39 1
    38   21   22 1
    39   21   40 1
    40   21   41 1
    41   22   23 1
    42   22   42 1
    43   22   43 1
    44   23   24 1
    45   23   44 1
    46   23   45 1
    47   24   25 1
    48   24   46 1
    49   24   47 1
    50   25   48 1
    51   25   49 1
@<TRIPOS>MOLECULE
ZINC00953700
   47    50     0     0     0
SMALL
USER_CHARGES
N-[3-(1-piperidylcarbonyl)-4,5,6,7-tetrahydrobenzothiophen-2-yl]thiophene-2-carboxamide
@<TRIPOS>ATOM
      1 C1         -4.7553    0.4195    0.0269 C.2       1 <0>        -0.1806
      2 C2         -3.7478    1.3515    0.0272 C.2       1 <0>        -0.0516
      3 C3         -2.4461    0.8740    0.0184 C.2       1 <0>        -0.2538
      4 S1         -2.7036   -0.8913    0.0021 S.3       1 <0>         0.1468
      5 C4         -4.4371   -0.9016    0.0182 C.2       1 <0>        -0.1670
      6 C5         -1.1873    1.6238    0.0165 C.2       1 <0>         0.6044
      7 O1         -1.2038    2.8408    0.0232 O.2       1 <0>        -0.4855
      8 N1         -0.0111    0.9658    0.0074 N.am      1 <0>        -0.6146
      9 C6          1.1790    1.6747   -0.0002 C.2       1 <0>         0.0691
     10 C7          2.4766    1.1817   -0.0096 C.2       1 <0>        -0.2148
     11 C8          3.5618    2.1479   -0.0195 C.2       1 <0>        -0.0659
     12 C9          3.1789    3.4431   -0.0084 C.2       1 <0>        -0.2051
     13 S2          1.4093    3.3919    0.0074 S.3       1 <0>         0.2303
     14 C10         4.0684    4.6480   -0.0094 C.3       1 <0>        -0.0359
     15 C11         5.4915    4.1989    0.3528 C.3       1 <0>        -0.1138
     16 C12         5.8534    2.9756   -0.4943 C.3       1 <0>        -0.1191
     17 C13         5.0368    1.7658   -0.0364 C.3       1 <0>        -0.0594
     18 C14         2.7422   -0.2600   -0.0128 C.2       1 <0>         0.5808
     19 O2          2.8457   -0.8574   -1.0682 O.2       1 <0>        -0.5314
     20 N2          2.8717   -0.9240    1.1529 N.am      1 <0>        -0.6044
     21 C15         2.7555   -0.2156    2.4348 C.3       1 <0>         0.1081
     22 C16         1.6995   -0.9287    3.2930 C.3       1 <0>        -0.1350
     23 C17         2.0709   -2.4075    3.4240 C.3       1 <0>        -0.1207
     24 C18         2.0833   -3.0568    2.0382 C.3       1 <0>        -0.1346
     25 C19         3.1380   -2.3688    1.1658 C.3       1 <0>         0.1077
     26 H1         -5.7890    0.7325    0.0331 H         1 <0>         0.1468
     27 H2         -3.9596    2.4106    0.0336 H         1 <0>         0.1527
     28 H3         -5.1029   -1.7520    0.0163 H         1 <0>         0.1956
     29 H4          0.0021   -0.0041    0.0020 H         1 <0>         0.4176
     30 H5          4.0680    5.1038   -0.9995 H         1 <0>         0.0831
     31 H6          3.7116    5.3685    0.7266 H         1 <0>         0.0817
     32 H7          6.1933    5.0070    0.1462 H         1 <0>         0.0740
     33 H8          5.5345    3.9392    1.4105 H         1 <0>         0.0681
     34 H9          5.6362    3.1835   -1.5420 H         1 <0>         0.0676
     35 H10         6.9154    2.7579   -0.3809 H         1 <0>         0.0700
     36 H11         5.1917    0.9375   -0.7277 H         1 <0>         0.0746
     37 H12         5.3514    1.4703    0.9645 H         1 <0>         0.0755
     38 H13         3.7170   -0.2286    2.9480 H         1 <0>         0.0721
     39 H14         2.4482    0.8149    2.2563 H         1 <0>         0.0856
     40 H15         0.7218   -0.8397    2.8196 H         1 <0>         0.0636
     41 H16         1.6681   -0.4725    4.2825 H         1 <0>         0.0772
     42 H17         1.3384   -2.9114    4.0546 H         1 <0>         0.0673
     43 H18         3.0594   -2.4952    3.8749 H         1 <0>         0.0663
     44 H19         1.1019   -2.9477    1.5766 H         1 <0>         0.0654
     45 H20         2.3250   -4.1153    2.1345 H         1 <0>         0.0778
     46 H21         3.0832   -2.7596    0.1497 H         1 <0>         0.0937
     47 H22         4.1301   -2.5539    1.5776 H         1 <0>         0.0700
@<TRIPOS>BOND
     1    1    5 2
     2    1    2 1
     3    1   26 1
     4    2    3 2
     5    2   27 1
     6    3    4 1
     7    3    6 1
     8    4    5 1
     9    5   28 1
    10    6    7 2
    11    6    8 am
    12    8    9 1
    13    8   29 1
    14    9   13 1
    15    9   10 2
    16   10   11 1
    17   10   18 1
    18   11   17 1
    19   11   12 2
    20   12   13 1
    21   12   14 1
    22   14   15 1
    23   14   30 1
    24   14   31 1
    25   15   16 1
    26   15   32 1
    27   15   33 1
    28   16   17 1
    29   16   34 1
    30   16   35 1
    31   17   36 1
    32   17   37 1
    33   18   19 2
    34   18   20 am
    35   20   25 1
    36   20   21 1
    37   21   22 1
    38   21   38 1
    39   21   39 1
    40   22   23 1
    41   22   40 1
    42   22   41 1
    43   23   24 1
    44   23   42 1
    45   23   43 1
    46   24   25 1
    47   24   44 1
    48   24   45 1
    49   25   46 1
    50   25   47 1
@<TRIPOS>MOLECULE
ZINC05049530
   51    53     0     0     0
SMALL
USER_CHARGES
2-amino-3-[(4-methoxyphenyl)-diphenyl-methyl]sulfanyl-propanoic acid
@<TRIPOS>ATOM
      1 C1         -4.3002    4.4020    6.2668 C.3       1 <0>         0.0246
      2 O1         -3.5315    4.8323    5.1416 O.3       1 <0>        -0.3148
      3 C2         -2.6589    3.9356    4.6112 C.ar      1 <0>         0.1421
      4 C3         -1.8806    4.2866    3.5178 C.ar      1 <0>        -0.1535
      5 C4         -0.9940    3.3734    2.9807 C.ar      1 <0>        -0.0528
      6 C5         -0.8819    2.1104    3.5321 C.ar      1 <0>        -0.1354
      7 C6         -1.6605    1.7562    4.6184 C.ar      1 <0>        -0.0616
      8 C7         -2.5445    2.6677    5.1627 C.ar      1 <0>        -0.2063
      9 C8          0.0861    1.1162    2.9443 C.3       1 <0>         0.1328
     10 C9          0.0894   -0.1369    3.7814 C.ar      1 <0>        -0.0859
     11 C10         0.4841   -0.0827    5.1051 C.ar      1 <0>        -0.0992
     12 C11         0.4826   -1.2313    5.8744 C.ar      1 <0>        -0.1189
     13 C12         0.0960   -2.4358    5.3171 C.ar      1 <0>        -0.1115
     14 C13        -0.2933   -2.4910    3.9919 C.ar      1 <0>        -0.1109
     15 C14        -0.2968   -1.3415    3.2241 C.ar      1 <0>        -0.1193
     16 C15         1.4700    1.7125    2.9269 C.ar      1 <0>        -0.0633
     17 C16         1.8224    2.6687    3.8609 C.ar      1 <0>        -0.0962
     18 C17         3.0934    3.2121    3.8480 C.ar      1 <0>        -0.1168
     19 C18         4.0088    2.8066    2.8949 C.ar      1 <0>        -0.1115
     20 C19         3.6545    1.8545    1.9573 C.ar      1 <0>        -0.1164
     21 C20         2.3852    1.3073    1.9735 C.ar      1 <0>        -0.1027
     22 S1         -0.4187    0.7101    1.2499 S.3       1 <0>        -0.2483
     23 C21        -2.1552    0.2129    1.4165 C.3       1 <0>        -0.1113
     24 C22        -2.6739   -0.2884    0.0673 C.3       1 <0>         0.0041
     25 H1         -2.0803   -1.1439   -0.2551 H         1 <0>         0.1463
     26 C23        -4.1165   -0.7015    0.2057 C.2       1 <0>         0.4592
     27 O2         -4.9958    0.0441   -0.1559 O.co2     1 <0>        -0.6086
     28 H2         -3.6299    4.1285    7.0816 H         1 <0>         0.0575
     29 H3         -4.9545    5.2113    6.5907 H         1 <0>         0.1035
     30 H4         -4.9025    3.5379    5.9862 H         1 <0>         0.0588
     31 H5         -1.9681    5.2729    3.0865 H         1 <0>         0.1345
     32 H6         -0.3877    3.6464    2.1297 H         1 <0>         0.1330
     33 H7         -1.5745    0.7675    5.0444 H         1 <0>         0.1342
     34 H8         -3.1493    2.3920    6.0140 H         1 <0>         0.1321
     35 H9          0.7901    0.8576    5.5394 H         1 <0>         0.1223
     36 H10         0.7871   -1.1882    6.9097 H         1 <0>         0.1251
     37 H11         0.0983   -3.3338    5.9171 H         1 <0>         0.1249
     38 H12        -0.5950   -3.4321    3.5564 H         1 <0>         0.1280
     39 H13        -0.6009   -1.3846    2.1887 H         1 <0>         0.1385
     40 H14         1.1059    2.9885    4.6031 H         1 <0>         0.1245
     41 H15         3.3700    3.9562    4.5803 H         1 <0>         0.1254
     42 H16         5.0006    3.2339    2.8825 H         1 <0>         0.1243
     43 H17         4.3696    1.5380    1.2124 H         1 <0>         0.1250
     44 H18         2.1085    0.5635    1.2410 H         1 <0>         0.1284
     45 H19        -2.7488    1.0684    1.7389 H         1 <0>         0.1043
     46 H20        -2.2356   -0.5843    2.1556 H         1 <0>         0.1329
     47 H21        -3.1076    1.5910   -0.6526 H         1 <0>         0.4360
     48 H22        -1.6011    1.0363   -1.0871 H         1 <0>         0.4231
     49 O3         -4.4247   -1.8978    0.7307 O.co2     1 <0>        -0.6935
     50 N1         -2.5757    0.7742   -0.9488 N.4       1 <0>        -0.6254
     51 H23        -2.9589    0.4288   -1.8366 H         1 <0>         0.4386
@<TRIPOS>BOND
     1    1    2 1
     2    1   28 1
     3    1   29 1
     4    1   30 1
     5    2    3 1
     6    3    8 ar
     7    3    4 ar
     8    4    5 ar
     9    4   31 1
    10    5    6 ar
    11    5   32 1
    12    6    7 ar
    13    6    9 1
    14    7    8 ar
    15    7   33 1
    16    8   34 1
    17    9   10 1
    18    9   16 1
    19    9   22 1
    20   10   15 ar
    21   10   11 ar
    22   11   12 ar
    23   11   35 1
    24   12   13 ar
    25   12   36 1
    26   13   14 ar
    27   13   37 1
    28   14   15 ar
    29   14   38 1
    30   15   39 1
    31   16   21 ar
    32   16   17 ar
    33   17   18 ar
    34   17   40 1
    35   18   19 ar
    36   18   41 1
    37   19   20 ar
    38   19   42 1
    39   20   21 ar
    40   20   43 1
    41   21   44 1
    42   22   23 1
    43   23   24 1
    44   23   45 1
    45   23   46 1
    46   24   25 1
    47   24   26 1
    48   24   50 1
    49   26   27 2
    50   26   49 1
    51   47   50 1
    52   48   50 1
    53   50   51 1
@<TRIPOS>MOLECULE
ZINC03861261
   47    49     0     0     0
SMALL
USER_CHARGES

@<TRIPOS>ATOM
      1 C1         -3.2839   -0.5510    4.0839 C.ar      1 <0>        -0.1073
      2 C2         -4.0862   -0.1066    3.0496 C.ar      1 <0>        -0.1201
      3 C3         -4.1656    1.2444    2.7678 C.ar      1 <0>        -0.1002
      4 C4         -3.4423    2.1509    3.5200 C.ar      1 <0>        -0.0945
      5 C5         -2.6356    1.7061    4.5507 C.ar      1 <0>        -0.1064
      6 C6         -2.5603    0.3555    4.8358 C.ar      1 <0>        -0.1150
      7 C7         -3.5285    3.6237    3.2126 C.3       1 <0>         0.1254
      8 C8         -2.5858    4.3807    4.1122 C.ar      1 <0>        -0.0855
      9 C9         -2.7937    4.3915    5.4788 C.ar      1 <0>        -0.0998
     10 C10        -1.9262    5.0819    6.3045 C.ar      1 <0>        -0.1187
     11 C11        -0.8565    5.7697    5.7627 C.ar      1 <0>        -0.1107
     12 C12        -0.6519    5.7636    4.3955 C.ar      1 <0>        -0.1110
     13 C13        -1.5164    5.0689    3.5703 C.ar      1 <0>        -0.1196
     14 C14        -4.9381    4.1037    3.4444 C.ar      1 <0>        -0.0638
     15 C15        -5.7502    3.4501    4.3521 C.ar      1 <0>        -0.0964
     16 C16        -7.0417    3.8933    4.5683 C.ar      1 <0>        -0.1167
     17 C17        -7.5242    4.9839    3.8693 C.ar      1 <0>        -0.1110
     18 C18        -6.7139    5.6340    2.9574 C.ar      1 <0>        -0.1160
     19 C19        -5.4207    5.1940    2.7450 C.ar      1 <0>        -0.1024
     20 S1         -3.0701    3.9077    1.4805 S.3       1 <0>        -0.2431
     21 C20        -1.4601    3.0891    1.3128 C.3       1 <0>        -0.1178
     22 C21        -0.9924    3.1769   -0.1413 C.3       1 <0>         0.0055
     23 H1         -0.8996    4.2237   -0.4306 H         1 <0>         0.1462
     24 C22         0.3452    2.4968   -0.2807 C.2       1 <0>         0.4620
     25 O1          0.4088    1.3731   -0.7203 O.co2     1 <0>        -0.6077
     26 H2         -3.2222   -1.6065    4.3042 H         1 <0>         0.1256
     27 H3         -4.6513   -0.8149    2.4619 H         1 <0>         0.1260
     28 H4         -4.7924    1.5915    1.9597 H         1 <0>         0.1261
     29 H5         -2.0670    2.4140    5.1355 H         1 <0>         0.1340
     30 H6         -1.9332    0.0083    5.6436 H         1 <0>         0.1266
     31 H7         -3.6317    3.8575    5.9017 H         1 <0>         0.1228
     32 H8         -2.0863    5.0869    7.3725 H         1 <0>         0.1258
     33 H9         -0.1809    6.3122    6.4074 H         1 <0>         0.1255
     34 H10         0.1836    6.3013    3.9722 H         1 <0>         0.1284
     35 H11        -1.3565    5.0642    2.5023 H         1 <0>         0.1388
     36 H12        -5.3746    2.5955    4.8952 H         1 <0>         0.1241
     37 H13        -7.6749    3.3851    5.2805 H         1 <0>         0.1257
     38 H14        -8.5344    5.3279    4.0355 H         1 <0>         0.1248
     39 H15        -7.0910    6.4859    2.4110 H         1 <0>         0.1256
     40 H16        -4.7877    5.7019    2.0325 H         1 <0>         0.1289
     41 H17        -1.5528    2.0423    1.6020 H         1 <0>         0.1057
     42 H18        -0.7331    3.5815    1.9586 H         1 <0>         0.1341
     43 H19        -1.7189    2.6133   -1.9833 H         1 <0>         0.4354
     44 H20        -2.0762    1.5408   -0.7635 H         1 <0>         0.4354
     45 O2          1.4665    3.1414    0.0782 O.co2     1 <0>        -0.6932
     46 N1         -1.9928    2.5266   -1.0060 N.4       1 <0>        -0.6261
     47 H21        -2.9028    2.9828   -0.8715 H         1 <0>         0.4246
@<TRIPOS>BOND
     1    1    6 ar
     2    1    2 ar
     3    1   26 1
     4    2    3 ar
     5    2   27 1
     6    3    4 ar
     7    3   28 1
     8    4    5 ar
     9    4    7 1
    10    5    6 ar
    11    5   29 1
    12    6   30 1
    13    7    8 1
    14    7   14 1
    15    7   20 1
    16    8   13 ar
    17    8    9 ar
    18    9   10 ar
    19    9   31 1
    20   10   11 ar
    21   10   32 1
    22   11   12 ar
    23   11   33 1
    24   12   13 ar
    25   12   34 1
    26   13   35 1
    27   14   19 ar
    28   14   15 ar
    29   15   16 ar
    30   15   36 1
    31   16   17 ar
    32   16   37 1
    33   17   18 ar
    34   17   38 1
    35   18   19 ar
    36   18   39 1
    37   19   40 1
    38   20   21 1
    39   21   22 1
    40   21   41 1
    41   21   42 1
    42   22   23 1
    43   22   24 1
    44   22   46 1
    45   24   25 2
    46   24   45 1
    47   43   46 1
    48   44   46 1
    49   46   47 1
@<TRIPOS>MOLECULE
ZINC04528567
   47    49     0     0     0
SMALL
USER_CHARGES

@<TRIPOS>ATOM
      1 C1          0.6780    1.9825    0.4579 C.ar      1 <0>        -0.1082
      2 C2          2.0144    2.3345    0.4259 C.ar      1 <0>        -0.1207
      3 C3          2.9812    1.3622    0.2502 C.ar      1 <0>        -0.0966
      4 C4          2.6116    0.0379    0.1070 C.ar      1 <0>        -0.0932
      5 C5          1.2753   -0.3142    0.1400 C.ar      1 <0>        -0.1073
      6 C6          0.3084    0.6583    0.3143 C.ar      1 <0>        -0.1160
      7 C7          3.6655   -1.0220   -0.0856 C.3       1 <0>         0.1245
      8 C8          3.0067   -2.3739   -0.1819 C.ar      1 <0>        -0.0861
      9 C9          2.1313   -2.6439   -1.2171 C.ar      1 <0>        -0.0997
     10 C10         1.5269   -3.8840   -1.3055 C.ar      1 <0>        -0.1191
     11 C11         1.7984   -4.8542   -0.3590 C.ar      1 <0>        -0.1111
     12 C12         2.6745   -4.5845    0.6757 C.ar      1 <0>        -0.1106
     13 C13         3.2821   -3.3458    0.7617 C.ar      1 <0>        -0.1189
     14 C14         4.4310   -0.7446   -1.3537 C.ar      1 <0>        -0.0627
     15 C15         3.8208   -0.0731   -2.3966 C.ar      1 <0>        -0.0966
     16 C16         4.5229    0.1813   -3.5598 C.ar      1 <0>        -0.1167
     17 C17         5.8355   -0.2355   -3.6800 C.ar      1 <0>        -0.1117
     18 C18         6.4460   -0.9062   -2.6368 C.ar      1 <0>        -0.1162
     19 C19         5.7452   -1.1568   -1.4719 C.ar      1 <0>        -0.1027
     20 S1          4.8058   -1.0042    1.3252 S.3       1 <0>        -0.2456
     21 C20         3.7191   -1.1566    2.7697 C.3       1 <0>        -0.1127
     22 C21         4.5687   -1.2921    4.0349 C.3       1 <0>        -0.0292
     23 H1          5.2597   -2.1273    3.9208 H         1 <0>         0.1420
     24 C22         3.6703   -1.5415    5.2189 C.2       1 <0>         0.4959
     25 O1          3.0889   -2.6075    5.3291 O.co2     1 <0>        -0.6271
     26 O2          3.5249   -0.6774    6.0665 O.co2     1 <0>        -0.6644
     27 N1          5.3288   -0.0535    4.2493 N.4       1 <0>        -0.6126
     28 H2         -0.0770    2.7416    0.5997 H         1 <0>         0.1250
     29 H3          2.3032    3.3691    0.5378 H         1 <0>         0.1254
     30 H4          4.0253    1.6373    0.2244 H         1 <0>         0.1259
     31 H5          0.9865   -1.3488    0.0274 H         1 <0>         0.1337
     32 H6         -0.7357    0.3832    0.3396 H         1 <0>         0.1261
     33 H7          1.9192   -1.8859   -1.9566 H         1 <0>         0.1226
     34 H8          0.8424   -4.0947   -2.1139 H         1 <0>         0.1256
     35 H9          1.3257   -5.8228   -0.4277 H         1 <0>         0.1252
     36 H10         2.8863   -5.3424    1.4154 H         1 <0>         0.1281
     37 H11         3.9695   -3.1363    1.5679 H         1 <0>         0.1386
     38 H12         2.7953    0.2525   -2.3026 H         1 <0>         0.1237
     39 H13         4.0460    0.7053   -4.3748 H         1 <0>         0.1255
     40 H14         6.3838   -0.0374   -4.5891 H         1 <0>         0.1246
     41 H15         7.4713   -1.2322   -2.7309 H         1 <0>         0.1253
     42 H16         6.2233   -1.6776   -0.6555 H         1 <0>         0.1287
     43 H17         3.0911   -0.2691    2.8471 H         1 <0>         0.1019
     44 H18         3.0891   -2.0391    2.6588 H         1 <0>         0.1332
     45 H19         5.8891   -0.1429    5.0837 H         1 <0>         0.4344
     46 H20         5.9303    0.1135    3.4566 H         1 <0>         0.4171
     47 H21         4.6891    0.7197    4.3550 H         1 <0>         0.4327
@<TRIPOS>BOND
     1    1    6 ar
     2    1    2 ar
     3    1   28 1
     4    2    3 ar
     5    2   29 1
     6    3    4 ar
     7    3   30 1
     8    4    5 ar
     9    4    7 1
    10    5    6 ar
    11    5   31 1
    12    6   32 1
    13    7    8 1
    14    7   14 1
    15    7   20 1
    16    8   13 ar
    17    8    9 ar
    18    9   10 ar
    19    9   33 1
    20   10   11 ar
    21   10   34 1
    22   11   12 ar
    23   11   35 1
    24   12   13 ar
    25   12   36 1
    26   13   37 1
    27   14   19 ar
    28   14   15 ar
    29   15   16 ar
    30   15   38 1
    31   16   17 ar
    32   16   39 1
    33   17   18 ar
    34   17   40 1
    35   18   19 ar
    36   18   41 1
    37   19   42 1
    38   20   21 1
    39   21   22 1
    40   21   43 1
    41   21   44 1
    42   22   23 1
    43   22   24 1
    44   22   27 1
    45   24   25 2
    46   24   26 1
    47   27   45 1
    48   27   46 1
    49   27   47 1
@<TRIPOS>MOLECULE
ZINC04958385
   45    47     0     0     0
SMALL
USER_CHARGES
2-tritylsulfanylethanamine
@<TRIPOS>ATOM
      1 C1         -0.2584    0.5731   -0.8330 C.ar      1 <0>        -0.1067
      2 C2          0.7717    1.4941   -0.8725 C.ar      1 <0>        -0.1196
      3 C3          2.0690    1.0914   -0.6162 C.ar      1 <0>        -0.1121
      4 C4          2.3360   -0.2319   -0.3189 C.ar      1 <0>        -0.0965
      5 C5          1.3059   -1.1529   -0.2793 C.ar      1 <0>        -0.0908
      6 C6          0.0086   -0.7503   -0.5361 C.ar      1 <0>        -0.1183
      7 C7          3.7502   -0.6707   -0.0384 C.3       1 <0>         0.1110
      8 C8          4.6655    0.5257   -0.0825 C.ar      1 <0>        -0.0834
      9 C9          5.6929    0.5761   -1.0059 C.ar      1 <0>        -0.1314
     10 C10         6.5293    1.6759   -1.0500 C.ar      1 <0>        -0.1173
     11 C11         6.3448    2.7203   -0.1634 C.ar      1 <0>        -0.1096
     12 C12         5.3209    2.6673    0.7638 C.ar      1 <0>        -0.1123
     13 C13         4.4811    1.5701    0.8040 C.ar      1 <0>        -0.0951
     14 C14         3.8179   -1.3049    1.3271 C.ar      1 <0>        -0.0720
     15 C15         2.9311   -0.9170    2.3140 C.ar      1 <0>        -0.0965
     16 C16         2.9899   -1.5025    3.5649 C.ar      1 <0>        -0.1141
     17 C17         3.9424   -2.4680    3.8321 C.ar      1 <0>        -0.1059
     18 C18         4.8328   -2.8517    2.8468 C.ar      1 <0>        -0.1134
     19 C19         4.7704   -2.2704    1.5943 C.ar      1 <0>        -0.1043
     20 S1          4.2691   -1.8757   -1.2911 S.3       1 <0>        -0.1584
     21 C20         3.9498   -1.0357   -2.8668 C.3       1 <0>        -0.1698
     22 C21         4.2691   -1.9841   -4.0242 C.3       1 <0>         0.0160
     23 H1         -1.2713    0.8867   -1.0384 H         1 <0>         0.1268
     24 H2          0.5631    2.5280   -1.1048 H         1 <0>         0.1263
     25 H3          2.8739    1.8108   -0.6474 H         1 <0>         0.1311
     26 H4          1.5145   -2.1868   -0.0474 H         1 <0>         0.1283
     27 H5         -0.7962   -1.4698   -0.5052 H         1 <0>         0.1281
     28 H6          5.8398   -0.2419   -1.6957 H         1 <0>         0.1339
     29 H7          7.3290    1.7175   -1.7745 H         1 <0>         0.1251
     30 H8          7.0006    3.5779   -0.1953 H         1 <0>         0.1275
     31 H9          5.1768    3.4834    1.4564 H         1 <0>         0.1293
     32 H10         3.6811    1.5287    1.5284 H         1 <0>         0.1252
     33 H11         2.1898   -0.1595    2.1066 H         1 <0>         0.1235
     34 H12         2.2940   -1.2028    4.3346 H         1 <0>         0.1285
     35 H13         3.9907   -2.9227    4.8105 H         1 <0>         0.1284
     36 H14         5.5770   -3.6061    3.0556 H         1 <0>         0.1282
     37 H15         5.4661   -2.5702    0.8245 H         1 <0>         0.1261
     38 H16         2.9012   -0.7423   -2.9162 H         1 <0>         0.1080
     39 H17         4.5790   -0.1487   -2.9398 H         1 <0>         0.1110
     40 H18         5.3177   -2.2774   -3.9749 H         1 <0>         0.1442
     41 H19         3.6398   -2.8711   -3.9513 H         1 <0>         0.1420
     42 H20         4.5341   -0.4437   -5.3642 H         1 <0>         0.4379
     43 H21         4.2139   -1.9099   -6.0809 H         1 <0>         0.4442
     44 N1          3.9856   -1.2995   -5.2980 N.4       1 <0>        -0.6437
     45 H22         2.9875   -1.0617   -5.3385 H         1 <0>         0.4407
@<TRIPOS>BOND
     1    1    6 ar
     2    1    2 ar
     3    1   23 1
     4    2    3 ar
     5    2   24 1
     6    3    4 ar
     7    3   25 1
     8    4    5 ar
     9    4    7 1
    10    5    6 ar
    11    5   26 1
    12    6   27 1
    13    7    8 1
    14    7   14 1
    15    7   20 1
    16    8   13 ar
    17    8    9 ar
    18    9   10 ar
    19    9   28 1
    20   10   11 ar
    21   10   29 1
    22   11   12 ar
    23   11   30 1
    24   12   13 ar
    25   12   31 1
    26   13   32 1
    27   14   19 ar
    28   14   15 ar
    29   15   16 ar
    30   15   33 1
    31   16   17 ar
    32   16   34 1
    33   17   18 ar
    34   17   35 1
    35   18   19 ar
    36   18   36 1
    37   19   37 1
    38   20   21 1
    39   21   22 1
    40   21   38 1
    41   21   39 1
    42   22   40 1
    43   22   41 1
    44   22   44 1
    45   42   44 1
    46   43   44 1
    47   44   45 1
@<TRIPOS>MOLECULE
ZINC05081018
   47    49     0     0     0
SMALL
USER_CHARGES
2-amino-3-[(4-bromophenyl)-diphenyl-methyl]sulfanyl-propanoic acid
@<TRIPOS>ATOM
      1 C1         -0.2194    1.1409    1.0059 C.ar      1 <0>        -0.1100
      2 C2         -0.9180    2.0446    1.7844 C.ar      1 <0>        -0.1145
      3 C3         -0.8763    3.3932    1.4835 C.ar      1 <0>        -0.0956
      4 C4         -0.1446    3.8369    0.3978 C.ar      1 <0>        -0.0832
      5 C5          0.5497    2.9325   -0.3838 C.ar      1 <0>        -0.1228
      6 C6          0.5123    1.5845   -0.0798 C.ar      1 <0>        -0.1145
      7 C7         -0.1042    5.3063    0.0661 C.3       1 <0>         0.1239
      8 C8          0.4500    6.0713    1.2403 C.ar      1 <0>        -0.1014
      9 C9          0.9402    5.3910    2.3392 C.ar      1 <0>        -0.1058
     10 C10         1.4530    6.0926    3.4142 C.ar      1 <0>        -0.1167
     11 C11         1.4664    7.4748    3.3945 C.ar      1 <0>        -0.1026
     12 C12         0.9709    8.1552    2.2980 C.ar      1 <0>        -0.1176
     13 C13         0.4629    7.4535    1.2208 C.ar      1 <0>        -0.0877
     14 C14        -1.4985    5.7915   -0.2366 C.ar      1 <0>        -0.0472
     15 C15        -2.2880    6.3013    0.7772 C.ar      1 <0>        -0.0897
     16 C16        -3.5652    6.7508    0.4992 C.ar      1 <0>        -0.0862
     17 C17        -4.0571    6.6807   -0.7918 C.ar      1 <0>        -0.0833
     18 C18        -3.2686    6.1656   -1.8049 C.ar      1 <0>        -0.0865
     19 C19        -1.9897    5.7212   -1.5269 C.ar      1 <0>        -0.0967
     20 Br1        -5.8067    7.2895   -1.1716 Br        1 <0>        -0.0436
     21 S1          0.9556    5.5704   -1.3822 S.3       1 <0>        -0.2440
     22 C20         2.6139    5.1211   -0.8003 C.3       1 <0>        -0.1088
     23 C21         3.6347    5.3972   -1.9061 C.3       1 <0>         0.0042
     24 H1          3.6143    6.4563   -2.1631 H         1 <0>         0.1474
     25 C22         5.0123    5.0240   -1.4226 C.2       1 <0>         0.4594
     26 O1          5.5021    3.9689   -1.7496 O.co2     1 <0>        -0.6090
     27 H2         -0.2488    0.0877    1.2432 H         1 <0>         0.1262
     28 H3         -1.4932    1.6975    2.6300 H         1 <0>         0.1276
     29 H4         -1.4190    4.0997    2.0940 H         1 <0>         0.1246
     30 H5          1.1211    3.2791   -1.2323 H         1 <0>         0.1294
     31 H6          1.0545    0.8779   -0.6907 H         1 <0>         0.1267
     32 H7          0.9261    4.3112    2.3563 H         1 <0>         0.1298
     33 H8          1.8398    5.5610    4.2711 H         1 <0>         0.1263
     34 H9          1.8636    8.0230    4.2360 H         1 <0>         0.1262
     35 H10         0.9810    9.2351    2.2827 H         1 <0>         0.1272
     36 H11         0.0758    7.9851    0.3641 H         1 <0>         0.1262
     37 H12        -1.9054    6.3523    1.7858 H         1 <0>         0.1352
     38 H13        -4.1803    7.1533    1.2904 H         1 <0>         0.1375
     39 H14        -3.6522    6.1110   -2.8130 H         1 <0>         0.1364
     40 H15        -1.3739    5.3193   -2.3179 H         1 <0>         0.1360
     41 H16         2.8629    5.7135    0.0802 H         1 <0>         0.1311
     42 H17         2.6343    4.0620   -0.5433 H         1 <0>         0.1073
     43 H18         3.3112    3.6125   -2.8801 H         1 <0>         0.4346
     44 H19         2.4070    4.8756   -3.4743 H         1 <0>         0.4225
     45 O2          5.6954    5.8636   -0.6287 O.co2     1 <0>        -0.6916
     46 N1          3.3183    4.6054   -3.1079 N.4       1 <0>        -0.6266
     47 H20         4.0326    4.7796   -3.8246 H         1 <0>         0.4399
@<TRIPOS>BOND
     1    1    6 ar
     2    1    2 ar
     3    1   27 1
     4    2    3 ar
     5    2   28 1
     6    3    4 ar
     7    3   29 1
     8    4    5 ar
     9    4    7 1
    10    5    6 ar
    11    5   30 1
    12    6   31 1
    13    7    8 1
    14    7   14 1
    15    7   21 1
    16    8   13 ar
    17    8    9 ar
    18    9   10 ar
    19    9   32 1
    20   10   11 ar
    21   10   33 1
    22   11   12 ar
    23   11   34 1
    24   12   13 ar
    25   12   35 1
    26   13   36 1
    27   14   19 ar
    28   14   15 ar
    29   15   16 ar
    30   15   37 1
    31   16   17 ar
    32   16   38 1
    33   17   18 ar
    34   17   20 1
    35   18   19 ar
    36   18   39 1
    37   19   40 1
    38   21   22 1
    39   22   23 1
    40   22   41 1
    41   22   42 1
    42   23   24 1
    43   23   25 1
    44   23   46 1
    45   25   26 2
    46   25   45 1
    47   43   46 1
    48   44   46 1
    49   46   47 1
@<TRIPOS>MOLECULE
ZINC06471957
   26    27     0     0     0
SMALL
USER_CHARGES
4-[4-(trifluoromethyl)phenyl]benzonitrile
@<TRIPOS>ATOM
      1 C1          4.8807    1.1228   -0.0386 C.ar      1 <0>        -0.0665
      2 C2          3.6764    1.7895   -0.0240 C.ar      1 <0>        -0.1061
      3 C3          2.4807    1.0710   -0.0164 C.ar      1 <0>        -0.0254
      4 C4          2.5035   -0.3238   -0.0188 C.ar      1 <0>        -0.1061
      5 C5          3.7063   -0.9931   -0.0393 C.ar      1 <0>        -0.0665
      6 C6          4.9050   -0.2745   -0.0464 C.ar      1 <0>        -0.0207
      7 C7          6.1570   -0.9694   -0.0612 C.1       1 <0>         0.2475
      8 N1          7.1502   -1.5206   -0.0729 N.1       1 <0>        -0.4069
      9 C8          1.1843    1.7905    0.0004 C.ar      1 <0>        -0.0200
     10 C9         -0.0126    1.0758    0.0080 C.ar      1 <0>        -0.1081
     11 C10        -1.2162    1.7508    0.0173 C.ar      1 <0>        -0.0664
     12 C11        -1.2364    3.1340    0.0308 C.ar      1 <0>        -0.1791
     13 C12        -0.0519    3.8485    0.0233 C.ar      1 <0>        -0.0664
     14 C13         1.1576    3.1843    0.0082 C.ar      1 <0>        -0.1081
     15 C14        -2.5540    3.8653    0.0468 C.3       1 <0>         0.5072
     16 F1         -2.9741    4.0982   -1.2671 F         1 <0>        -0.1751
     17 F2         -3.5098    3.0894    0.7114 F         1 <0>        -0.1759
     18 F3         -2.4012    5.0870    0.7111 F         1 <0>        -0.1758
     19 H1          5.8062    1.6793   -0.0445 H         1 <0>         0.1384
     20 H2          3.6573    2.8694   -0.0180 H         1 <0>         0.1394
     21 H3          1.5771   -0.8789   -0.0088 H         1 <0>         0.1394
     22 H4          3.7237   -2.0729   -0.0450 H         1 <0>         0.1384
     23 H5          0.0021   -0.0041    0.0020 H         1 <0>         0.1409
     24 H6         -2.1441    1.1982    0.0187 H         1 <0>         0.1406
     25 H7         -0.0738    4.9283    0.0297 H         1 <0>         0.1406
     26 H8          2.0818    3.7431    0.0020 H         1 <0>         0.1409
@<TRIPOS>BOND
     1    1    6 ar
     2    1    2 ar
     3    1   19 1
     4    2    3 ar
     5    2   20 1
     6    3    4 ar
     7    3    9 1
     8    4    5 ar
     9    4   21 1
    10    5    6 ar
    11    5   22 1
    12    6    7 1
    13    7    8 3
    14    9   14 ar
    15    9   10 ar
    16   10   11 ar
    17   10   23 1
    18   11   12 ar
    19   11   24 1
    20   12   13 ar
    21   12   15 1
    22   13   14 ar
    23   13   25 1
    24   14   26 1
    25   15   16 1
    26   15   17 1
    27   15   18 1
@<TRIPOS>MOLECULE
ZINC13281608
   33    34     0     0     0
SMALL
USER_CHARGES
4-(4-tert-butylphenyl)pyridine
@<TRIPOS>ATOM
      1 C1         -2.6615    4.7498   -1.1981 C.3       1 <0>        -0.1398
      2 C2         -2.5540    3.8654    0.0457 C.3       1 <0>        -0.0328
      3 C3         -3.7000    2.8517    0.0513 C.3       1 <0>        -0.1463
      4 C4         -2.6381    4.7372    1.3002 C.3       1 <0>        -0.1397
      5 C5         -1.2365    3.1339    0.0297 C.ar      1 <0>        -0.0581
      6 C6         -1.2163    1.7509    0.0173 C.ar      1 <0>        -0.1208
      7 C7         -0.0126    1.0758    0.0080 C.ar      1 <0>        -0.0981
      8 C8          1.1838    1.7902    0.0004 C.ar      1 <0>        -0.0643
      9 C9          1.1575    3.1834    0.0076 C.ar      1 <0>        -0.0981
     10 C10        -0.0519    3.8481    0.0223 C.ar      1 <0>        -0.1150
     11 C11         2.4810    1.0701   -0.0149 C.ar      1 <0>         0.0043
     12 C12         2.5265   -0.3268   -0.0160 C.ar      1 <0>        -0.1692
     13 C13         3.7541   -0.9565   -0.0361 C.ar      1 <0>         0.1038
     14 N1          4.8733   -0.2581   -0.0431 N.ar      1 <0>        -0.4890
     15 C14         4.8742    1.0611   -0.0369 C.ar      1 <0>         0.1038
     16 C15         3.6906    1.7701   -0.0227 C.ar      1 <0>        -0.1693
     17 H1         -2.6015    4.1286   -2.0919 H         1 <0>         0.0570
     18 H2         -3.6144    5.2788   -1.1866 H         1 <0>         0.0607
     19 H3         -1.8450    5.4719   -1.2021 H         1 <0>         0.0575
     20 H4         -3.6235    2.2217    0.9375 H         1 <0>         0.0594
     21 H5         -4.6530    3.3808    0.0629 H         1 <0>         0.0604
     22 H6         -3.6401    2.2306   -0.8424 H         1 <0>         0.0594
     23 H7         -1.8217    5.4593    1.2962 H         1 <0>         0.0575
     24 H8         -3.5910    5.2662    1.3118 H         1 <0>         0.0607
     25 H9         -2.5616    4.1071    2.1863 H         1 <0>         0.0570
     26 H10        -2.1442    1.1982    0.0191 H         1 <0>         0.1312
     27 H11         0.0021   -0.0041    0.0020 H         1 <0>         0.1262
     28 H12         2.0818    3.7421    0.0014 H         1 <0>         0.1262
     29 H13        -0.0735    4.9279    0.0282 H         1 <0>         0.1255
     30 H14         1.6143   -0.9049   -0.0058 H         1 <0>         0.1369
     31 H15         3.7994   -2.0355   -0.0420 H         1 <0>         0.1580
     32 H16         5.8140    1.5933   -0.0426 H         1 <0>         0.1580
     33 H17         3.6988    2.8501   -0.0180 H         1 <0>         0.1369
@<TRIPOS>BOND
     1    1    2 1
     2    1   17 1
     3    1   18 1
     4    1   19 1
     5    2    3 1
     6    2    4 1
     7    2    5 1
     8    3   20 1
     9    3   21 1
    10    3   22 1
    11    4   23 1
    12    4   24 1
    13    4   25 1
    14    5   10 ar
    15    5    6 ar
    16    6    7 ar
    17    6   26 1
    18    7    8 ar
    19    7   27 1
    20    8    9 ar
    21    8   11 1
    22    9   10 ar
    23    9   28 1
    24   10   29 1
    25   11   16 ar
    26   11   12 ar
    27   12   13 ar
    28   12   30 1
    29   13   14 ar
    30   13   31 1
    31   14   15 ar
    32   15   16 ar
    33   15   32 1
    34   16   33 1
@<TRIPOS>MOLECULE
ZINC16947784
   35    36     0     0     0
SMALL
USER_CHARGES
4-(4-tert-butylphenyl)benzonitrile
@<TRIPOS>ATOM
      1 C1         -0.0127    1.0858    0.0080 C.3       1 <0>        -0.1398
      2 C2         -0.7288    1.5792    1.2668 C.3       1 <0>        -0.0328
      3 C3          0.0111    1.0724    2.5063 C.3       1 <0>        -0.1398
      4 C4         -0.7496    3.1091    1.2752 C.3       1 <0>        -0.1463
      5 C5         -2.1426    1.0576    1.2775 C.ar      1 <0>        -0.0594
      6 C6         -3.2041    1.9445    1.2982 C.ar      1 <0>        -0.1207
      7 C7         -4.5009    1.4726    1.3032 C.ar      1 <0>        -0.1005
      8 C8         -4.7401    0.0993    1.2981 C.ar      1 <0>        -0.0642
      9 C9         -3.6664   -0.7897    1.2826 C.ar      1 <0>        -0.1004
     10 C10        -2.3739   -0.3063    1.2724 C.ar      1 <0>        -0.1148
     11 C11        -6.1311   -0.4139    1.3096 C.ar      1 <0>        -0.0087
     12 C12        -6.3667   -1.7889    1.2991 C.ar      1 <0>        -0.1154
     13 C13        -7.6576   -2.2668    1.3147 C.ar      1 <0>        -0.0644
     14 C14        -8.7325   -1.3737    1.3302 C.ar      1 <0>        -0.0320
     15 C15        -8.4951    0.0035    1.3353 C.ar      1 <0>        -0.0644
     16 C16        -7.2032    0.4786    1.3251 C.ar      1 <0>        -0.1153
     17 C17       -10.0760   -1.8694    1.3404 C.1       1 <0>         0.2507
     18 N1        -11.1417   -2.2626    1.3484 N.1       1 <0>        -0.4132
     19 H1          0.0021   -0.0041    0.0020 H         1 <0>         0.0575
     20 H2          1.0099    1.4631    0.0003 H         1 <0>         0.0601
     21 H3         -0.5399    1.4469   -0.8751 H         1 <0>         0.0570
     22 H4          1.0337    1.4497    2.4986 H         1 <0>         0.0601
     23 H5         -0.4990    1.4239    3.4031 H         1 <0>         0.0570
     24 H6          0.0259   -0.0175    2.5003 H         1 <0>         0.0575
     25 H7         -1.2768    3.4701    0.3922 H         1 <0>         0.0594
     26 H8         -1.2598    3.4606    2.1720 H         1 <0>         0.0594
     27 H9          0.2730    3.4864    1.2675 H         1 <0>         0.0599
     28 H10        -3.0176    3.0082    1.3062 H         1 <0>         0.1303
     29 H11        -5.3289    2.1660    1.3155 H         1 <0>         0.1269
     30 H12        -3.8458   -1.8547    1.2789 H         1 <0>         0.1269
     31 H13        -1.5413   -0.9940    1.2608 H         1 <0>         0.1245
     32 H14        -5.5360   -2.4788    1.2826 H         1 <0>         0.1367
     33 H15        -7.8397   -3.3313    1.3103 H         1 <0>         0.1356
     34 H16        -9.3248    0.6948    1.3477 H         1 <0>         0.1356
     35 H17        -7.0194    1.5429    1.3287 H         1 <0>         0.1368
@<TRIPOS>BOND
     1    1    2 1
     2    1   19 1
     3    1   20 1
     4    1   21 1
     5    2    3 1
     6    2    4 1
     7    2    5 1
     8    3   22 1
     9    3   23 1
    10    3   24 1
    11    4   25 1
    12    4   26 1
    13    4   27 1
    14    5   10 ar
    15    5    6 ar
    16    6    7 ar
    17    6   28 1
    18    7    8 ar
    19    7   29 1
    20    8    9 ar
    21    8   11 1
    22    9   10 ar
    23    9   30 1
    24   10   31 1
    25   11   16 ar
    26   11   12 ar
    27   12   13 ar
    28   12   32 1
    29   13   14 ar
    30   13   33 1
    31   14   15 ar
    32   14   17 1
    33   15   16 ar
    34   15   34 1
    35   16   35 1
    36   17   18 3
@<TRIPOS>MOLECULE
ZINC36479167
   42    44     0     0     0
SMALL
USER_CHARGES

@<TRIPOS>ATOM
      1 C1          0.2034    1.1606   -0.5329 C.3       1 <0>        -0.1314
      2 C2         -0.0052   -0.2705   -0.1093 C.2       1 <0>         0.1847
      3 C3         -1.2462   -0.6906    0.2282 C.2       1 <0>        -0.2734
      4 C4         -1.4104   -2.1374    0.6480 C.3       1 <0>         0.2230
      5 H1         -2.1343   -2.6016   -0.0218 H         1 <0>         0.1001
      6 N1         -0.1970   -2.9718    0.6538 N.pl3     1 <0>        -0.6492
      7 C5          0.9715   -2.4072    0.2905 C.2       1 <0>         0.5506
      8 S1          2.3899   -3.3660    0.2928 S.2       1 <0>        -0.5980
      9 N2          1.0590   -1.1229   -0.0776 N.pl3     1 <0>        -0.4934
     10 C6          2.3732   -0.6021   -0.4621 C.3       1 <0>         0.0503
     11 C7         -1.9920   -2.1547    2.0381 C.ar      1 <0>        -0.1037
     12 C8         -1.1988   -1.8289    3.1230 C.ar      1 <0>        -0.0975
     13 C9         -1.7293   -1.8438    4.3995 C.ar      1 <0>        -0.0981
     14 C10        -3.0539   -2.1849    4.5944 C.ar      1 <0>        -0.1323
     15 C11        -3.8517   -2.5122    3.5078 C.ar      1 <0>         0.1095
     16 C12        -3.3184   -2.4905    2.2270 C.ar      1 <0>        -0.1264
     17 O1         -5.1549   -2.8480    3.6969 O.3       1 <0>        -0.4965
     18 C13        -2.3520    0.1903    0.1909 C.2       1 <0>         0.4732
     19 O2         -2.4046    1.1344    0.9583 O.2       1 <0>        -0.4326
     20 C14        -3.4453   -0.0353   -0.7807 C.ar      1 <0>        -0.1662
     21 C15        -3.3397   -1.0520   -1.7309 C.ar      1 <0>        -0.0733
     22 C16        -4.3626   -1.2574   -2.6335 C.ar      1 <0>        -0.1301
     23 C17        -5.4912   -0.4577   -2.5983 C.ar      1 <0>        -0.0842
     24 C18        -5.6021    0.5519   -1.6588 C.ar      1 <0>        -0.1296
     25 C19        -4.5888    0.7640   -0.7469 C.ar      1 <0>        -0.0598
     26 H2          0.6750    1.1836   -1.5153 H         1 <0>         0.0924
     27 H3         -0.7592    1.6696   -0.5800 H         1 <0>         0.0911
     28 H4          0.8455    1.6636    0.1902 H         1 <0>         0.0968
     29 H5         -0.2378   -3.9055    0.9133 H         1 <0>         0.4470
     30 H6          2.8504   -0.1445    0.4045 H         1 <0>         0.0839
     31 H7          2.9943   -1.4189   -0.8298 H         1 <0>         0.1257
     32 H8          2.2527    0.1445   -1.2470 H         1 <0>         0.0896
     33 H9         -0.1629   -1.5626    2.9728 H         1 <0>         0.1167
     34 H10        -1.1077   -1.5889    5.2451 H         1 <0>         0.1314
     35 H11        -3.4677   -2.1971    5.5919 H         1 <0>         0.1330
     36 H12        -3.9388   -2.7403    1.3790 H         1 <0>         0.1310
     37 H13        -5.7631   -2.0969    3.6658 H         1 <0>         0.3930
     38 H14        -2.4589   -1.6764   -1.7598 H         1 <0>         0.1263
     39 H15        -4.2821   -2.0438   -3.3693 H         1 <0>         0.1306
     40 H16        -6.2889   -0.6222   -3.3076 H         1 <0>         0.1297
     41 H17        -6.4856    1.1726   -1.6366 H         1 <0>         0.1315
     42 H18        -4.6786    1.5495   -0.0111 H         1 <0>         0.1346
@<TRIPOS>BOND
     1    1    2 1
     2    1   26 1
     3    1   27 1
     4    1   28 1
     5    2    9 1
     6    2    3 2
     7    3    4 1
     8    3   18 1
     9    4    5 1
    10    4    6 1
    11    4   11 1
    12    6    7 1
    13    6   29 1
    14    7    8 2
    15    7    9 1
    16    9   10 1
    17   10   30 1
    18   10   31 1
    19   10   32 1
    20   11   16 ar
    21   11   12 ar
    22   12   13 ar
    23   12   33 1
    24   13   14 ar
    25   13   34 1
    26   14   15 ar
    27   14   35 1
    28   15   16 ar
    29   15   17 1
    30   16   36 1
    31   17   37 1
    32   18   19 2
    33   18   20 1
    34   20   25 ar
    35   20   21 ar
    36   21   22 ar
    37   21   38 1
    38   22   23 ar
    39   22   39 1
    40   23   24 ar
    41   23   40 1
    42   24   25 ar
    43   24   41 1
    44   25   42 1
@<TRIPOS>MOLECULE
ZINC34778317
   42    44     0     0     0
SMALL
USER_CHARGES

@<TRIPOS>ATOM
      1 C1          0.3727    1.4503    0.2327 C.3       1 <0>        -0.1301
      2 C2          0.1791   -0.0385    0.1031 C.2       1 <0>         0.1828
      3 C3         -1.0693   -0.5558    0.1699 C.2       1 <0>        -0.2710
      4 C4         -1.2178   -2.0578    0.0348 C.3       1 <0>         0.2237
      5 H1         -1.7107   -2.4290    0.9333 H         1 <0>         0.1004
      6 N1          0.0177   -2.8351   -0.1595 N.pl3     1 <0>        -0.6501
      7 C5          1.1912   -2.1740   -0.2050 C.2       1 <0>         0.5509
      8 S1          2.6353   -3.0655   -0.4304 S.2       1 <0>        -0.5989
      9 N2          1.2646   -0.8425   -0.0853 N.pl3     1 <0>        -0.4928
     10 C6          2.5862   -0.2142   -0.1545 C.3       1 <0>         0.0501
     11 C7         -2.1269   -2.3313   -1.1356 C.ar      1 <0>        -0.1013
     12 C8         -1.6120   -2.3586   -2.4187 C.ar      1 <0>        -0.1027
     13 C9         -2.4434   -2.6093   -3.4944 C.ar      1 <0>        -0.0970
     14 C10        -3.7914   -2.8328   -3.2899 C.ar      1 <0>        -0.1342
     15 C11        -4.3103   -2.8060   -2.0038 C.ar      1 <0>         0.1116
     16 C12        -3.4727   -2.5602   -0.9252 C.ar      1 <0>        -0.1280
     17 O1         -5.6359   -3.0256   -1.7999 O.3       1 <0>        -0.4960
     18 C13        -2.1968    0.2767    0.3599 C.2       1 <0>         0.4711
     19 O2         -2.5257    1.0639   -0.5090 O.2       1 <0>        -0.4292
     20 C14        -2.9768    0.1910    1.6146 C.ar      1 <0>        -0.1663
     21 C15        -2.5296   -0.6127    2.6643 C.ar      1 <0>        -0.0740
     22 C16        -3.2611   -0.6879    3.8315 C.ar      1 <0>        -0.1308
     23 C17        -4.4361    0.0310    3.9626 C.ar      1 <0>        -0.0846
     24 C18        -4.8849    0.8297    2.9257 C.ar      1 <0>        -0.1290
     25 C19        -4.1597    0.9181    1.7554 C.ar      1 <0>        -0.0581
     26 H2          0.4075    1.9000   -0.7597 H         1 <0>         0.0999
     27 H3         -0.4572    1.8770    0.7959 H         1 <0>         0.0890
     28 H4          1.3079    1.6510    0.7554 H         1 <0>         0.0904
     29 H5         -0.0123   -3.8002   -0.2522 H         1 <0>         0.4468
     30 H6          2.9803   -0.0850    0.8536 H         1 <0>         0.0843
     31 H7          3.2605   -0.8487   -0.7297 H         1 <0>         0.1264
     32 H8          2.5011    0.7586   -0.6387 H         1 <0>         0.0892
     33 H9         -0.5587   -2.1835   -2.5808 H         1 <0>         0.1184
     34 H10        -2.0389   -2.6301   -4.4956 H         1 <0>         0.1314
     35 H11        -4.4406   -3.0279   -4.1306 H         1 <0>         0.1329
     36 H12        -3.8735   -2.5434    0.0775 H         1 <0>         0.1303
     37 H13        -5.8637   -3.9549   -1.6600 H         1 <0>         0.3927
     38 H14        -1.6130   -1.1749    2.5629 H         1 <0>         0.1257
     39 H15        -2.9162   -1.3094    4.6445 H         1 <0>         0.1302
     40 H16        -5.0055   -0.0317    4.8781 H         1 <0>         0.1295
     41 H17        -5.8028    1.3884    3.0343 H         1 <0>         0.1316
     42 H18        -4.5087    1.5453    0.9485 H         1 <0>         0.1348
@<TRIPOS>BOND
     1    1    2 1
     2    1   26 1
     3    1   27 1
     4    1   28 1
     5    2    9 1
     6    2    3 2
     7    3    4 1
     8    3   18 1
     9    4    5 1
    10    4    6 1
    11    4   11 1
    12    6    7 1
    13    6   29 1
    14    7    8 2
    15    7    9 1
    16    9   10 1
    17   10   30 1
    18   10   31 1
    19   10   32 1
    20   11   16 ar
    21   11   12 ar
    22   12   13 ar
    23   12   33 1
    24   13   14 ar
    25   13   34 1
    26   14   15 ar
    27   14   35 1
    28   15   16 ar
    29   15   17 1
    30   16   36 1
    31   17   37 1
    32   18   19 2
    33   18   20 1
    34   20   25 ar
    35   20   21 ar
    36   21   22 ar
    37   21   38 1
    38   22   23 ar
    39   22   39 1
    40   23   24 ar
    41   23   40 1
    42   24   25 ar
    43   24   41 1
    44   25   42 1
@<TRIPOS>MOLECULE
ZINC43009243
   51    54     0     0     0
SMALL
USER_CHARGES

@<TRIPOS>ATOM
      1 C1          1.0546   -0.6126   -0.7725 C.3       1 <0>         0.0254
      2 O1         -0.0164    0.0497   -0.0969 O.3       1 <0>        -0.3102
      3 C2         -1.2168   -0.5896   -0.0667 C.ar      1 <0>         0.0778
      4 C3         -1.3567   -1.8301   -0.6700 C.ar      1 <0>        -0.1536
      5 C4         -2.5750   -2.4802   -0.6399 C.ar      1 <0>        -0.0960
      6 C5         -3.6611   -1.8918   -0.0053 C.ar      1 <0>         0.1642
      7 C6         -3.5220   -0.6496    0.5992 C.ar      1 <0>        -0.1519
      8 C7         -2.3004   -0.0021    0.5735 C.ar      1 <0>         0.0952
      9 F1         -2.1623    1.2040    1.1664 F         1 <0>        -0.1279
     10 N1         -4.8962   -2.5509    0.0246 N.pl3     1 <0>        -0.6377
     11 C8         -4.9468   -3.9260   -0.0740 C.2       1 <0>         0.5383
     12 N2         -3.9041   -4.7182   -0.0851 N.2       1 <0>        -0.5139
     13 C9         -4.3155   -6.0095   -0.1933 C.ar      1 <0>         0.0695
     14 C10        -3.6399   -7.2271   -0.2506 C.ar      1 <0>        -0.0037
     15 C11        -4.3658   -8.4096   -0.3652 C.ar      1 <0>        -0.1421
     16 C12        -5.7647   -8.3739   -0.4227 C.ar      1 <0>        -0.0797
     17 C13        -6.4291   -7.1823   -0.3668 C.ar      1 <0>        -0.1040
     18 C14        -5.7208   -5.9926   -0.2520 C.ar      1 <0>         0.0703
     19 N3         -6.0926   -4.6644   -0.1687 N.pl3     1 <0>        -0.5029
     20 C15        -7.4619   -4.1438   -0.1828 C.3       1 <0>         0.1352
     21 C16        -7.9224   -3.9799   -1.6083 C.ar      1 <0>        -0.0676
     22 C17        -7.0431   -4.2119   -2.6498 C.ar      1 <0>        -0.1041
     23 C18        -7.4654   -4.0615   -3.9572 C.ar      1 <0>        -0.0776
     24 C19        -8.7672   -3.6796   -4.2236 C.ar      1 <0>        -0.1124
     25 C20        -9.6464   -3.4485   -3.1825 C.ar      1 <0>        -0.0657
     26 C21        -9.2252   -3.6031   -1.8747 C.ar      1 <0>        -0.1742
     27 C22       -10.1853   -3.3563   -0.7397 C.3       1 <0>         0.5065
     28 F2        -11.4590   -3.0933   -1.2551 F         1 <0>        -0.1706
     29 F3        -10.2387   -4.4884    0.0805 F         1 <0>        -0.1751
     30 F4         -9.7495   -2.2580    0.0093 F         1 <0>        -0.1754
     31 C23        -3.6590   -9.7046   -0.4266 C.2       1 <0>         0.5677
     32 O2         -2.4447   -9.7373   -0.3771 O.2       1 <0>        -0.5381
     33 N4         -4.3600  -10.8503   -0.5375 N.am      1 <0>        -0.8512
     34 H1          1.9522    0.0037   -0.7224 H         1 <0>         0.1036
     35 H2          1.2464   -1.5734   -0.2950 H         1 <0>         0.0592
     36 H3          0.7820   -0.7733   -1.8156 H         1 <0>         0.0580
     37 H4         -0.5126   -2.2882   -1.1640 H         1 <0>         0.1434
     38 H5         -2.6831   -3.4463   -1.1105 H         1 <0>         0.1586
     39 H6         -4.3661   -0.1913    1.0929 H         1 <0>         0.1448
     40 H7         -5.7161   -2.0406    0.1147 H         1 <0>         0.4199
     41 H8         -2.5611   -7.2531   -0.2068 H         1 <0>         0.1461
     42 H9         -6.3216   -9.2949   -0.5124 H         1 <0>         0.1336
     43 H10        -7.5080   -7.1646   -0.4119 H         1 <0>         0.1278
     44 H11        -8.1211   -4.8413    0.3340 H         1 <0>         0.1208
     45 H12        -7.4885   -3.1776    0.3210 H         1 <0>         0.1102
     46 H13        -6.0263   -4.5102   -2.4417 H         1 <0>         0.1314
     47 H14        -6.7784   -4.2420   -4.7707 H         1 <0>         0.1367
     48 H15        -9.0970   -3.5614   -5.2452 H         1 <0>         0.1402
     49 H16       -10.6632   -3.1498   -3.3906 H         1 <0>         0.1441
     50 H17        -5.3289  -10.8242   -0.5770 H         1 <0>         0.4007
     51 H18        -3.8957  -11.7010   -0.5779 H         1 <0>         0.4065
@<TRIPOS>BOND
     1    1    2 1
     2    1   34 1
     3    1   35 1
     4    1   36 1
     5    2    3 1
     6    3    8 ar
     7    3    4 ar
     8    4    5 ar
     9    4   37 1
    10    5    6 ar
    11    5   38 1
    12    6    7 ar
    13    6   10 1
    14    7    8 ar
    15    7   39 1
    16    8    9 1
    17   10   11 1
    18   10   40 1
    19   11   19 1
    20   11   12 2
    21   12   13 1
    22   13   18 ar
    23   13   14 ar
    24   14   15 ar
    25   14   41 1
    26   15   16 ar
    27   15   31 1
    28   16   17 ar
    29   16   42 1
    30   17   18 ar
    31   17   43 1
    32   18   19 1
    33   19   20 1
    34   20   21 1
    35   20   44 1
    36   20   45 1
    37   21   26 ar
    38   21   22 ar
    39   22   23 ar
    40   22   46 1
    41   23   24 ar
    42   23   47 1
    43   24   25 ar
    44   24   48 1
    45   25   26 ar
    46   25   49 1
    47   26   27 1
    48   27   28 1
    49   27   29 1
    50   27   30 1
    51   31   32 2
    52   31   33 am
    53   33   50 1
    54   33   51 1
@<TRIPOS>MOLECULE
ZINC43120733
   51    54     0     0     0
SMALL
USER_CHARGES

@<TRIPOS>ATOM
      1 C1         -1.1761   -0.6351   -0.5199 C.3       1 <0>         0.0266
      2 O1         -0.0721    0.0549    0.0693 O.3       1 <0>        -0.3185
      3 C2          0.5685   -0.5671    1.0949 C.ar      1 <0>         0.1087
      4 C3          0.1451   -1.8179    1.5197 C.ar      1 <0>        -0.1812
      5 C4          0.7951   -2.4503    2.5612 C.ar      1 <0>        -0.0863
      6 C5          1.8728   -1.8338    3.1832 C.ar      1 <0>         0.1317
      7 C6          2.2960   -0.5816    2.7572 C.ar      1 <0>        -0.1118
      8 C7          1.6485    0.0469    1.7119 C.ar      1 <0>        -0.1271
      9 N1          2.5321   -2.4742    4.2396 N.pl3     1 <0>        -0.6391
     10 C8          2.5058   -3.8501    4.3363 C.2       1 <0>         0.5399
     11 N2          1.9945   -4.6574    3.4409 N.2       1 <0>        -0.5160
     12 C9          2.1382   -5.9445    3.8544 C.ar      1 <0>         0.0704
     13 C10         1.7814   -7.1727    3.3008 C.ar      1 <0>        -0.0050
     14 C11         2.0746   -8.3466    3.9894 C.ar      1 <0>        -0.1425
     15 C12         2.7230   -8.2918    5.2297 C.ar      1 <0>        -0.0813
     16 C13         3.0736   -7.0898    5.7744 C.ar      1 <0>        -0.1040
     17 C14         2.7893   -5.9084    5.1009 C.ar      1 <0>         0.0687
     18 N3          3.0145   -4.5736    5.3778 N.pl3     1 <0>        -0.5045
     19 C15         3.6735   -4.0336    6.5696 C.3       1 <0>         0.1358
     20 C16         2.6651   -3.8919    7.6805 C.ar      1 <0>        -0.0669
     21 C17         1.3299   -4.1577    7.4401 C.ar      1 <0>        -0.1037
     22 C18         0.4050   -4.0277    8.4589 C.ar      1 <0>        -0.0778
     23 C19         0.8152   -3.6324    9.7187 C.ar      1 <0>        -0.1128
     24 C20         2.1502   -3.3676    9.9593 C.ar      1 <0>        -0.0660
     25 C21         3.0760   -3.5017    8.9412 C.ar      1 <0>        -0.1746
     26 C22         4.5324   -3.2181    9.2049 C.3       1 <0>         0.5066
     27 F1          4.7159   -2.9472   10.5651 F         1 <0>        -0.1707
     28 F2          5.2973   -4.3325    8.8440 F         1 <0>        -0.1751
     29 F3          4.9360   -2.1113    8.4504 F         1 <0>        -0.1755
     30 C23         1.7006   -9.6528    3.4110 C.2       1 <0>         0.5678
     31 O2          1.1374   -9.7021    2.3347 O.2       1 <0>        -0.5385
     32 N4          1.9836  -10.7902    4.0762 N.am      1 <0>        -0.8513
     33 H1         -1.9396   -0.8127    0.2375 H         1 <0>         0.0554
     34 H2         -1.5956   -0.0300   -1.3237 H         1 <0>         0.1002
     35 H3         -0.8353   -1.5888   -0.9229 H         1 <0>         0.0567
     36 H4         -0.6933   -2.2971    1.0361 H         1 <0>         0.1319
     37 H5          0.4651   -3.4240    2.8921 H         1 <0>         0.1514
     38 H6          3.1338   -0.1013    3.2407 H         1 <0>         0.1313
     39 H7          1.9803    1.0188    1.3776 H         1 <0>         0.1354
     40 H8          3.0073   -1.9503    4.9034 H         1 <0>         0.4175
     41 H9          1.2809   -7.2135    2.3447 H         1 <0>         0.1453
     42 H10         2.9468   -9.2063    5.7589 H         1 <0>         0.1331
     43 H11         3.5733   -7.0574    6.7313 H         1 <0>         0.1271
     44 H12         4.4677   -4.7108    6.8840 H         1 <0>         0.1200
     45 H13         4.0991   -3.0571    6.3385 H         1 <0>         0.1097
     46 H14         1.0094   -4.4665    6.4560 H         1 <0>         0.1313
     47 H15        -0.6382   -4.2347    8.2709 H         1 <0>         0.1364
     48 H16         0.0924   -3.5302   10.5146 H         1 <0>         0.1401
     49 H17         2.4706   -3.0585   10.9432 H         1 <0>         0.1440
     50 H18         2.4330  -10.7509    4.9350 H         1 <0>         0.4007
     51 H19         1.7380  -11.6482    3.6963 H         1 <0>         0.4062
@<TRIPOS>BOND
     1    1    2 1
     2    1   33 1
     3    1   34 1
     4    1   35 1
     5    2    3 1
     6    3    8 ar
     7    3    4 ar
     8    4    5 ar
     9    4   36 1
    10    5    6 ar
    11    5   37 1
    12    6    7 ar
    13    6    9 1
    14    7    8 ar
    15    7   38 1
    16    8   39 1
    17    9   10 1
    18    9   40 1
    19   10   18 1
    20   10   11 2
    21   11   12 1
    22   12   17 ar
    23   12   13 ar
    24   13   14 ar
    25   13   41 1
    26   14   15 ar
    27   14   30 1
    28   15   16 ar
    29   15   42 1
    30   16   17 ar
    31   16   43 1
    32   17   18 1
    33   18   19 1
    34   19   20 1
    35   19   44 1
    36   19   45 1
    37   20   25 ar
    38   20   21 ar
    39   21   22 ar
    40   21   46 1
    41   22   23 ar
    42   22   47 1
    43   23   24 ar
    44   23   48 1
    45   24   25 ar
    46   24   49 1
    47   25   26 1
    48   26   27 1
    49   26   28 1
    50   26   29 1
    51   30   31 2
    52   30   32 am
    53   32   50 1
    54   32   51 1
@<TRIPOS>MOLECULE
ZINC43076136
   51    54     0     0     0
SMALL
USER_CHARGES

@<TRIPOS>ATOM
      1 C1         -1.2477   -1.3138   -0.1625 C.3       1 <0>        -0.1436
      2 S1         -0.0852    0.0606    0.0615 S.3       1 <0>        -0.1218
      3 C2          0.8120   -0.3725    1.5148 C.ar      1 <0>        -0.1026
      4 C3          0.5277   -1.5593    2.1790 C.ar      1 <0>        -0.1060
      5 C4          1.2311   -1.8985    3.3174 C.ar      1 <0>        -0.1075
      6 C5          2.2225   -1.0534    3.7990 C.ar      1 <0>         0.1668
      7 C6          2.5068    0.1329    3.1353 C.ar      1 <0>        -0.1335
      8 C7          1.8077    0.4700    1.9936 C.ar      1 <0>        -0.0734
      9 N1          2.9354   -1.3975    4.9547 N.pl3     1 <0>        -0.6401
     10 C8          3.0648   -2.7224    5.3165 C.2       1 <0>         0.5380
     11 N2          2.6619   -3.7409    4.5986 N.2       1 <0>        -0.5137
     12 C9          2.9461   -4.8986    5.2524 C.ar      1 <0>         0.0694
     13 C10         2.7401   -6.2433    4.9500 C.ar      1 <0>        -0.0041
     14 C11         3.1560   -7.2204    5.8505 C.ar      1 <0>        -0.1424
     15 C12         3.7763   -6.8526    7.0512 C.ar      1 <0>        -0.0803
     16 C13         3.9789   -5.5358    7.3501 C.ar      1 <0>        -0.1041
     17 C14         3.5711   -4.5476    6.4628 C.ar      1 <0>         0.0696
     18 N3          3.6375   -3.1675    6.4745 N.pl3     1 <0>        -0.5037
     19 C15         4.2130   -2.3351    7.5339 C.3       1 <0>         0.1356
     20 C16         3.1788   -2.0982    8.6041 C.ar      1 <0>        -0.0673
     21 C17         1.8863   -2.5571    8.4302 C.ar      1 <0>        -0.1040
     22 C18         0.9378   -2.3398    9.4117 C.ar      1 <0>        -0.0777
     23 C19         1.2817   -1.6639   10.5678 C.ar      1 <0>        -0.1125
     24 C20         2.5740   -1.2059   10.7421 C.ar      1 <0>        -0.0658
     25 C21         3.5239   -1.4270    9.7621 C.ar      1 <0>        -0.1745
     26 C22         4.9343   -0.9323    9.9544 C.3       1 <0>         0.5066
     27 F1          5.0657   -0.3843   11.2349 F         1 <0>        -0.1706
     28 F2          5.8267   -2.0000    9.8103 F         1 <0>        -0.1751
     29 F3          5.2198    0.0466    8.9966 F         1 <0>        -0.1755
     30 C23         2.9422   -8.6478    5.5391 C.2       1 <0>         0.5678
     31 O1          2.4036   -8.9687    4.4975 O.2       1 <0>        -0.5381
     32 N4          3.3441   -9.5950    6.4096 N.am      1 <0>        -0.8512
     33 H1         -1.8941   -1.3891    0.7120 H         1 <0>         0.0840
     34 H2         -1.8556   -1.1347   -1.0493 H         1 <0>         0.1094
     35 H3         -0.6920   -2.2435   -0.2847 H         1 <0>         0.0851
     36 H4         -0.2436   -2.2161    1.8050 H         1 <0>         0.1269
     37 H5          1.0103   -2.8210    3.8338 H         1 <0>         0.1520
     38 H6          3.2775    0.7900    3.5102 H         1 <0>         0.1302
     39 H7          2.0319    1.3904    1.4750 H         1 <0>         0.1328
     40 H8          3.3382   -0.7042    5.5006 H         1 <0>         0.4185
     41 H9          2.2611   -6.5255    4.0241 H         1 <0>         0.1457
     42 H10         4.0961   -7.6156    7.7454 H         1 <0>         0.1335
     43 H11         4.4574   -5.2617    8.2787 H         1 <0>         0.1276
     44 H12         5.0746   -2.8430    7.9673 H         1 <0>         0.1204
     45 H13         4.5275   -1.3794    7.1146 H         1 <0>         0.1098
     46 H14         1.6177   -3.0851    7.5271 H         1 <0>         0.1311
     47 H15        -0.0720   -2.6977    9.2755 H         1 <0>         0.1366
     48 H16         0.5404   -1.4935   11.3345 H         1 <0>         0.1402
     49 H17         2.8425   -0.6776   11.6450 H         1 <0>         0.1442
     50 H18         3.7739   -9.3390    7.2407 H         1 <0>         0.4007
     51 H19         3.2037  -10.5328    6.2050 H         1 <0>         0.4064
@<TRIPOS>BOND
     1    1    2 1
     2    1   33 1
     3    1   34 1
     4    1   35 1
     5    2    3 1
     6    3    8 ar
     7    3    4 ar
     8    4    5 ar
     9    4   36 1
    10    5    6 ar
    11    5   37 1
    12    6    7 ar
    13    6    9 1
    14    7    8 ar
    15    7   38 1
    16    8   39 1
    17    9   10 1
    18    9   40 1
    19   10   18 1
    20   10   11 2
    21   11   12 1
    22   12   17 ar
    23   12   13 ar
    24   13   14 ar
    25   13   41 1
    26   14   15 ar
    27   14   30 1
    28   15   16 ar
    29   15   42 1
    30   16   17 ar
    31   16   43 1
    32   17   18 1
    33   18   19 1
    34   19   20 1
    35   19   44 1
    36   19   45 1
    37   20   25 ar
    38   20   21 ar
    39   21   22 ar
    40   21   46 1
    41   22   23 ar
    42   22   47 1
    43   23   24 ar
    44   23   48 1
    45   24   25 ar
    46   24   49 1
    47   25   26 1
    48   26   27 1
    49   26   28 1
    50   26   29 1
    51   30   31 2
    52   30   32 am
    53   32   50 1
    54   32   51 1
@<TRIPOS>MOLECULE
ZINC00217276
   41    44     0     0     0
SMALL
USER_CHARGES
1-[(3-hydroxyphenyl)BLAHyl]ethanone
@<TRIPOS>ATOM
      1 C1          0.6780    6.3605   -2.5363 C.3       1 <0>        -0.1803
      2 C2         -0.7631    6.3665   -2.0955 C.2       1 <0>         0.5219
      3 O1         -1.6156    6.8415   -2.8156 O.2       1 <0>        -0.5345
      4 N1         -1.1046    5.8439   -0.9010 N.am      1 <0>        -0.6014
      5 C3         -2.5158    5.7303   -0.5032 C.3       1 <0>         0.1006
      6 C4         -2.7639    6.6286    0.7146 C.3       1 <0>        -0.0627
      7 C5         -1.6454    6.4310    1.7055 C.2       1 <0>        -0.1457
      8 C6         -1.6195    6.7814    3.1113 C.ar      1 <0>        -0.1034
      9 C7         -2.5624    7.3717    3.9584 C.ar      1 <0>        -0.0643
     10 C8         -2.1885    7.5623    5.2658 C.ar      1 <0>        -0.1492
     11 C9         -0.9394    7.1910    5.7358 C.ar      1 <0>        -0.0960
     12 C10         0.0125    6.6047    4.9198 C.ar      1 <0>        -0.1318
     13 C11        -0.3393    6.3987    3.5874 C.ar      1 <0>         0.1058
     14 N2          0.3408    5.8579    2.5344 N.pl3     1 <0>        -0.5761
     15 H1          1.2458    5.5110    2.5733 H         1 <0>         0.4165
     16 C12        -0.4474    5.8793    1.4148 C.2       1 <0>         0.0542
     17 C13        -0.0739    5.3724    0.0397 C.3       1 <0>         0.2485
     18 H2          0.9003    5.7675   -0.2484 H         1 <0>         0.1148
     19 C14        -0.0344    3.8659    0.0428 C.ar      1 <0>        -0.0901
     20 C15        -1.1383    3.1468    0.4629 C.ar      1 <0>        -0.1062
     21 C16        -1.1073    1.7647    0.4615 C.ar      1 <0>        -0.1003
     22 C17         0.0314    1.0985    0.0510 C.ar      1 <0>        -0.1361
     23 C18         1.1402    1.8176   -0.3705 C.ar      1 <0>         0.1079
     24 C19         1.1045    3.2046   -0.3736 C.ar      1 <0>        -0.1328
     25 O2          2.2597    1.1646   -0.7792 O.3       1 <0>        -0.4980
     26 H3          1.2782    5.8140   -1.8088 H         1 <0>         0.0761
     27 H4          0.7581    5.8771   -3.5100 H         1 <0>         0.0999
     28 H5          1.0400    7.3860   -2.6090 H         1 <0>         0.0988
     29 H6         -2.7399    4.6954   -0.2448 H         1 <0>         0.0799
     30 H7         -3.1540    6.0486   -1.3275 H         1 <0>         0.1022
     31 H8         -3.7134    6.3607    1.1780 H         1 <0>         0.0864
     32 H9         -2.7929    7.6719    0.4003 H         1 <0>         0.0789
     33 H10        -3.5388    7.6640    3.6012 H         1 <0>         0.1295
     34 H11        -2.8908    8.0158    5.9495 H         1 <0>         0.1192
     35 H12        -0.7000    7.3653    6.7745 H         1 <0>         0.1219
     36 H13         0.9832    6.3204    5.2983 H         1 <0>         0.1281
     37 H14        -2.0277    3.6657    0.7888 H         1 <0>         0.1317
     38 H15        -1.9723    1.2053    0.7859 H         1 <0>         0.1309
     39 H16         0.0566    0.0188    0.0539 H         1 <0>         0.1314
     40 H17         1.9664    3.7667   -0.7016 H         1 <0>         0.1306
     41 H18         2.2756    0.9655   -1.7254 H         1 <0>         0.3934
@<TRIPOS>BOND
     1    1    2 1
     2    1   26 1
     3    1   27 1
     4    1   28 1
     5    2    3 2
     6    2    4 am
     7    4   17 1
     8    4    5 1
     9    5    6 1
    10    5   29 1
    11    5   30 1
    12    6    7 1
    13    6   31 1
    14    6   32 1
    15    7   16 2
    16    7    8 1
    17    8   13 ar
    18    8    9 ar
    19    9   10 ar
    20    9   33 1
    21   10   11 ar
    22   10   34 1
    23   11   12 ar
    24   11   35 1
    25   12   13 ar
    26   12   36 1
    27   13   14 1
    28   14   15 1
    29   14   16 1
    30   16   17 1
    31   17   18 1
    32   17   19 1
    33   19   24 ar
    34   19   20 ar
    35   20   21 ar
    36   20   37 1
    37   21   22 ar
    38   21   38 1
    39   22   23 ar
    40   22   39 1
    41   23   24 ar
    42   23   25 1
    43   24   40 1
    44   25   41 1
@<TRIPOS>MOLECULE
ZINC00217279
   41    44     0     0     0
SMALL
USER_CHARGES
1-[(3-hydroxyphenyl)BLAHyl]ethanone
@<TRIPOS>ATOM
      1 C1          2.7339   -6.7186    1.6525 C.3       1 <0>        -0.1752
      2 C2          3.5040   -5.4833    1.2626 C.2       1 <0>         0.5203
      3 O1          4.5739   -5.2464    1.7823 O.2       1 <0>        -0.5404
      4 N1          3.0038   -4.6418    0.3363 N.am      1 <0>        -0.6019
      5 C3          1.7085   -4.9118   -0.3057 C.3       1 <0>         0.0932
      6 C4          0.7215   -3.8018    0.0770 C.3       1 <0>        -0.0627
      7 C5          1.4119   -2.4691   -0.0552 C.2       1 <0>        -0.1587
      8 C6          0.7951   -1.1483   -0.1411 C.ar      1 <0>        -0.0977
      9 C7         -0.5225   -0.6850   -0.1391 C.ar      1 <0>        -0.0704
     10 C8         -0.7720    0.6547   -0.2337 C.ar      1 <0>        -0.1442
     11 C9          0.2742    1.5619   -0.3324 C.ar      1 <0>        -0.0967
     12 C10         1.5814    1.1279   -0.3372 C.ar      1 <0>        -0.1285
     13 C11         1.8593   -0.2317   -0.2421 C.ar      1 <0>         0.1023
     14 N2          3.0290   -0.9598   -0.2213 N.pl3     1 <0>        -0.5795
     15 H1          3.9210   -0.5828   -0.2769 H         1 <0>         0.4158
     16 C12         2.7457   -2.2908   -0.1105 C.2       1 <0>         0.0716
     17 C13         3.7413   -3.4292   -0.0583 C.3       1 <0>         0.2519
     18 H2          4.5163   -3.2102    0.6761 H         1 <0>         0.1183
     19 C14         4.3641   -3.6276   -1.4162 C.ar      1 <0>        -0.0863
     20 C15         5.7401   -3.6181   -1.5532 C.ar      1 <0>        -0.1094
     21 C16         6.3145   -3.8008   -2.7973 C.ar      1 <0>        -0.1015
     22 C17         5.5146   -3.9924   -3.9074 C.ar      1 <0>        -0.1376
     23 C18         4.1341   -4.0019   -3.7727 C.ar      1 <0>         0.1047
     24 C19         3.5602   -3.8245   -2.5220 C.ar      1 <0>        -0.1261
     25 O2          3.3451   -4.1907   -4.8631 O.3       1 <0>        -0.4971
     26 H3          3.0251   -7.5472    1.0069 H         1 <0>         0.0969
     27 H4          2.9539   -6.9716    2.6897 H         1 <0>         0.0967
     28 H5          1.6659   -6.5306    1.5430 H         1 <0>         0.0859
     29 H6          1.8347   -4.9306   -1.3882 H         1 <0>         0.0821
     30 H7          1.3267   -5.8746    0.0338 H         1 <0>         0.1004
     31 H8         -0.1406   -3.8341   -0.5891 H         1 <0>         0.0874
     32 H9          0.3930   -3.9443    1.1065 H         1 <0>         0.0785
     33 H10        -1.3420   -1.3842   -0.0633 H         1 <0>         0.1215
     34 H11        -1.7916    1.0107   -0.2363 H         1 <0>         0.1233
     35 H12         0.0611    2.6181   -0.4061 H         1 <0>         0.1262
     36 H13         2.3885    1.8413   -0.4150 H         1 <0>         0.1204
     37 H14         6.3671   -3.4681   -0.6867 H         1 <0>         0.1287
     38 H15         7.3895   -3.7933   -2.9016 H         1 <0>         0.1313
     39 H16         5.9638   -4.1350   -4.8791 H         1 <0>         0.1308
     40 H17         2.4857   -3.8363   -2.4138 H         1 <0>         0.1342
     41 H18         3.1362   -5.1178   -5.0415 H         1 <0>         0.3914
@<TRIPOS>BOND
     1    1    2 1
     2    1   26 1
     3    1   27 1
     4    1   28 1
     5    2    3 2
     6    2    4 am
     7    4   17 1
     8    4    5 1
     9    5    6 1
    10    5   29 1
    11    5   30 1
    12    6    7 1
    13    6   31 1
    14    6   32 1
    15    7   16 2
    16    7    8 1
    17    8   13 ar
    18    8    9 ar
    19    9   10 ar
    20    9   33 1
    21   10   11 ar
    22   10   34 1
    23   11   12 ar
    24   11   35 1
    25   12   13 ar
    26   12   36 1
    27   13   14 1
    28   14   15 1
    29   14   16 1
    30   16   17 1
    31   17   18 1
    32   17   19 1
    33   19   24 ar
    34   19   20 ar
    35   20   21 ar
    36   20   37 1
    37   21   22 ar
    38   21   38 1
    39   22   23 ar
    40   22   39 1
    41   23   24 ar
    42   23   25 1
    43   24   40 1
    44   25   41 1
