@<TRIPOS>MOLECULE
ZINC00057195
   33    34     0     0     0
SMALL
USER_CHARGES
1-[5-(aminomethyl)-4-hydroxy-tetrahydrofuran-2-yl]-5-methyl-pyrimidine-2,4-dione
@<TRIPOS>ATOM
      1 C1         -5.8115   -1.4560   -0.5441 C.3       1 <0>        -0.0857
      2 C2         -4.9544   -0.4576   -1.2786 C.2       1 <0>        -0.2397
      3 C3         -4.0133    0.2519   -0.6197 C.2       1 <0>         0.1524
      4 N1         -3.2434    1.1541   -1.3021 N.am      1 <0>        -0.5423
      5 C4         -3.4188    1.3445   -2.6223 C.2       1 <0>         0.7034
      6 O1         -2.7268    2.1546   -3.2082 O.2       1 <0>        -0.5315
      7 N2         -4.3460    0.6471   -3.3048 N.am      1 <0>        -0.6591
      8 H1         -4.4576    0.7958   -4.2874 H         1 <0>         0.4447
      9 C5         -5.1249   -0.2512   -2.6688 C.2       1 <0>         0.5475
     10 O2         -5.9674   -0.8790   -3.2845 O.2       1 <0>        -0.4925
     11 C6         -2.2226    1.9242   -0.5872 C.3       1 <0>         0.3280
     12 H2         -2.4427    2.9892   -0.6610 H         1 <0>         0.1226
     13 C7         -0.8325    1.6338   -1.1855 C.3       1 <0>        -0.1942
     14 C8         -0.0127    1.0858    0.0080 C.3       1 <0>         0.0857
     15 H3          0.0021   -0.0041    0.0020 H         1 <0>         0.0908
     16 C9         -0.8104    1.6215    1.2242 C.3       1 <0>         0.0533
     17 H4         -0.5453    2.6584    1.4306 H         1 <0>         0.1211
     18 O3         -2.1859    1.5242    0.7930 O.3       1 <0>        -0.3786
     19 C10        -0.5676    0.7464    2.4555 C.3       1 <0>         0.0103
     20 O4          1.3161    1.6115   -0.0019 O.3       1 <0>        -0.5527
     21 H5         -6.7088   -0.9610   -0.1728 H         1 <0>         0.0759
     22 H6         -6.0948   -2.2605   -1.2228 H         1 <0>         0.0822
     23 H7         -5.2508   -1.8688    0.2946 H         1 <0>         0.0698
     24 H8         -3.8686    0.1077    0.4408 H         1 <0>         0.1778
     25 H9         -0.3830    2.5499   -1.5684 H         1 <0>         0.1184
     26 H10        -0.9054    0.8849   -1.9741 H         1 <0>         0.1016
     27 H11        -0.8879   -0.2740    2.2450 H         1 <0>         0.1428
     28 H12         0.4945    0.7506    2.7005 H         1 <0>         0.1587
     29 H13        -1.1905    0.7147    4.4175 H         1 <0>         0.4446
     30 H14        -1.1017    2.2421    3.7656 H         1 <0>         0.4400
     31 H15         1.8404    1.3409   -0.7679 H         1 <0>         0.4054
     32 N3         -1.3577    1.2733    3.5822 N.4       1 <0>        -0.6455
     33 H16        -2.3556    1.2298    3.3443 H         1 <0>         0.4449
@<TRIPOS>BOND
     1    1    2 1
     2    1   21 1
     3    1   22 1
     4    1   23 1
     5    2    9 1
     6    2    3 2
     7    3    4 1
     8    3   24 1
     9    4    5 am
    10    4   11 1
    11    5    6 2
    12    5    7 am
    13    7    8 1
    14    7    9 am
    15    9   10 2
    16   11   12 1
    17   11   18 1
    18   11   13 1
    19   13   14 1
    20   13   25 1
    21   13   26 1
    22   14   15 1
    23   14   16 1
    24   14   20 1
    25   16   17 1
    26   16   18 1
    27   16   19 1
    28   19   27 1
    29   19   28 1
    30   19   32 1
    31   20   31 1
    32   29   32 1
    33   30   32 1
    34   32   33 1
@<TRIPOS>MOLECULE
ZINC04533914
   33    34     0     0     0
SMALL
USER_CHARGES
1-[5-(aminomethyl)-4-hydroxy-tetrahydrofuran-2-yl]-5-methyl-pyrimidine-2,4-dione
@<TRIPOS>ATOM
      1 C1         -0.8343    5.9599   -1.6756 C.3       1 <0>        -0.0858
      2 C2          0.4073    5.1962   -1.2933 C.2       1 <0>        -0.2389
      3 C3          0.3175    3.9283   -0.8378 C.2       1 <0>         0.1536
      4 N1          1.4550    3.2490   -0.4956 N.am      1 <0>        -0.5373
      5 C4          2.6615    3.8344   -0.6039 C.2       1 <0>         0.7055
      6 O1          3.6590    3.2141   -0.2899 O.2       1 <0>        -0.5323
      7 N2          2.7803    5.0951   -1.0600 N.am      1 <0>        -0.6585
      8 H1          3.6856    5.5120   -1.1415 H         1 <0>         0.4451
      9 C5          1.6835    5.7983   -1.4075 C.2       1 <0>         0.5477
     10 O2          1.7898    6.9408   -1.8155 O.2       1 <0>        -0.4917
     11 C6          1.3576    1.8735   -0.0008 C.3       1 <0>         0.3279
     12 H2          1.7950    1.7905    0.9941 H         1 <0>         0.1235
     13 C7          2.0444    0.8904   -0.9828 C.3       1 <0>        -0.1995
     14 C8          1.3184   -0.4407   -0.6698 C.3       1 <0>         0.0861
     15 H3          1.9124   -1.0477    0.0135 H         1 <0>         0.1007
     16 C9          0.0021   -0.0041    0.0020 C.3       1 <0>         0.0613
     17 H4         -0.0379   -0.3809    1.0240 H         1 <0>         0.1182
     18 O3         -0.0174    1.4332    0.0099 O.3       1 <0>        -0.3863
     19 C10        -1.1904   -0.5362   -0.7954 C.3       1 <0>         0.0119
     20 O4          1.0502   -1.1623   -1.8736 O.3       1 <0>        -0.5627
     21 H5         -1.2137    6.4955   -0.8054 H         1 <0>         0.0763
     22 H6         -0.5940    6.6726   -2.4645 H         1 <0>         0.0826
     23 H7         -1.5932    5.2641   -2.0333 H         1 <0>         0.0699
     24 H8         -0.6475    3.4524   -0.7443 H         1 <0>         0.1768
     25 H9          3.1107    0.8109   -0.7714 H         1 <0>         0.1194
     26 H10         1.8760    1.1914   -2.0168 H         1 <0>         0.1023
     27 H11        -1.1484   -0.1492   -1.8135 H         1 <0>         0.1458
     28 H12        -1.1548   -1.6253   -0.8189 H         1 <0>         0.1563
     29 H13        -3.2427   -0.4397   -0.6655 H         1 <0>         0.4432
     30 H14        -2.4734   -0.3922    0.8082 H         1 <0>         0.4368
     31 H15         1.8439   -1.4614   -2.3380 H         1 <0>         0.4067
     32 N3         -2.4372   -0.0756   -0.1593 N.4       1 <0>        -0.6470
     33 H16        -2.4662    0.9506   -0.1773 H         1 <0>         0.4426
@<TRIPOS>BOND
     1    1    2 1
     2    1   21 1
     3    1   22 1
     4    1   23 1
     5    2    9 1
     6    2    3 2
     7    3    4 1
     8    3   24 1
     9    4    5 am
    10    4   11 1
    11    5    6 2
    12    5    7 am
    13    7    8 1
    14    7    9 am
    15    9   10 2
    16   11   12 1
    17   11   18 1
    18   11   13 1
    19   13   14 1
    20   13   25 1
    21   13   26 1
    22   14   15 1
    23   14   16 1
    24   14   20 1
    25   16   17 1
    26   16   18 1
    27   16   19 1
    28   19   27 1
    29   19   28 1
    30   19   32 1
    31   20   31 1
    32   29   32 1
    33   30   32 1
    34   32   33 1
@<TRIPOS>MOLECULE
ZINC04533915
   33    34     0     0     0
SMALL
USER_CHARGES
1-[5-(aminomethyl)-4-hydroxy-tetrahydrofuran-2-yl]-5-methyl-pyrimidine-2,4-dione
@<TRIPOS>ATOM
      1 C1          3.1848   -3.5237    1.6943 C.3       1 <0>        -0.0936
      2 C2          1.9773   -3.6861    0.8073 C.2       1 <0>        -0.2285
      3 C3          1.5444   -2.6582    0.0462 C.2       1 <0>         0.1314
      4 N1          0.4427   -2.8209   -0.7490 N.am      1 <0>        -0.5514
      5 C4         -0.2064   -3.9987   -0.7878 C.2       1 <0>         0.7041
      6 O1         -1.1804   -4.1229   -1.5049 O.2       1 <0>        -0.5286
      7 N2          0.2069   -5.0414   -0.0438 N.am      1 <0>        -0.6589
      8 H1         -0.2875   -5.9096   -0.0850 H         1 <0>         0.4455
      9 C5          1.2850   -4.9199    0.7569 C.2       1 <0>         0.5472
     10 O2          1.6599   -5.8629    1.4301 O.2       1 <0>        -0.4899
     11 C6         -0.0307   -1.7040   -1.5702 C.3       1 <0>         0.3167
     12 H2         -0.1455   -2.0143   -2.6088 H         1 <0>         0.1566
     13 C7         -1.3669   -1.1471   -1.0162 C.3       1 <0>        -0.1920
     14 C8         -0.8834   -0.2221    0.1272 C.3       1 <0>         0.0852
     15 H3         -0.9492   -0.7351    1.0867 H         1 <0>         0.0927
     16 C9          0.5867    0.0769   -0.2249 C.3       1 <0>         0.0323
     17 H4          1.2410   -0.3097    0.5565 H         1 <0>         0.1109
     18 O3          0.8729   -0.5797   -1.4712 O.3       1 <0>        -0.3601
     19 C10         0.7895    1.5861   -0.3734 C.3       1 <0>         0.0152
     20 O4         -1.6469    0.9856    0.1538 O.3       1 <0>        -0.5608
     21 H5          3.3769   -4.4584    2.2212 H         1 <0>         0.0883
     22 H6          4.0510   -3.2653    1.0851 H         1 <0>         0.0751
     23 H7          2.9999   -2.7300    2.4181 H         1 <0>         0.0729
     24 H8          2.0624   -1.7108    0.0684 H         1 <0>         0.1707
     25 H9         -1.9922   -1.9511   -0.6280 H         1 <0>         0.1114
     26 H10        -1.8972   -0.5776   -1.7794 H         1 <0>         0.1203
     27 H11         0.1416    1.9637   -1.1645 H         1 <0>         0.1489
     28 H12         0.5417    2.0802    0.5660 H         1 <0>         0.1554
     29 H13         2.3511    2.8513   -0.8197 H         1 <0>         0.4443
     30 H14         2.8157    1.4634   -0.0299 H         1 <0>         0.4350
     31 H15        -2.5804    0.8560    0.3704 H         1 <0>         0.4068
     32 N3          2.1929    1.8483   -0.7382 N.4       1 <0>        -0.6479
     33 H16         2.3960    1.4027   -1.6407 H         1 <0>         0.4448
@<TRIPOS>BOND
     1    1    2 1
     2    1   21 1
     3    1   22 1
     4    1   23 1
     5    2    9 1
     6    2    3 2
     7    3    4 1
     8    3   24 1
     9    4    5 am
    10    4   11 1
    11    5    6 2
    12    5    7 am
    13    7    8 1
    14    7    9 am
    15    9   10 2
    16   11   12 1
    17   11   18 1
    18   11   13 1
    19   13   14 1
    20   13   25 1
    21   13   26 1
    22   14   15 1
    23   14   16 1
    24   14   20 1
    25   16   17 1
    26   16   18 1
    27   16   19 1
    28   19   27 1
    29   19   28 1
    30   19   32 1
    31   20   31 1
    32   29   32 1
    33   30   32 1
    34   32   33 1
@<TRIPOS>MOLECULE
ZINC04533917
   33    34     0     0     0
SMALL
USER_CHARGES
1-[5-(aminomethyl)-4-hydroxy-tetrahydrofuran-2-yl]-5-methyl-pyrimidine-2,4-dione
@<TRIPOS>ATOM
      1 C1          1.1468    3.5557    0.0097 C.3       1 <0>        -0.0892
      2 C2          1.1473    2.0487    0.0021 C.2       1 <0>        -0.2301
      3 C3         -0.0165    1.3641    0.0095 C.2       1 <0>         0.1451
      4 N1          0.0021   -0.0041    0.0020 N.am      1 <0>        -0.5345
      5 C4          1.1690   -0.6735   -0.0123 C.2       1 <0>         0.7012
      6 O1          1.1625   -1.8893   -0.0183 O.2       1 <0>        -0.5306
      7 N2          2.3436   -0.0163   -0.0204 N.am      1 <0>        -0.6627
      8 H1          3.2015   -0.5299   -0.0314 H         1 <0>         0.4418
      9 C5          2.3681    1.3318   -0.0138 C.2       1 <0>         0.5477
     10 O2          3.4303    1.9273   -0.0208 O.2       1 <0>        -0.4917
     11 C6         -1.2606   -0.7469    0.0101 C.3       1 <0>         0.3176
     12 H2         -2.1010   -0.0621    0.1234 H         1 <0>         0.1305
     13 C7         -1.4091   -1.5693   -1.2947 C.3       1 <0>        -0.2036
     14 C8         -2.3697   -2.6966   -0.8236 C.3       1 <0>         0.0918
     15 H3         -3.4085   -2.3713   -0.8789 H         1 <0>         0.0913
     16 C9         -1.9368   -2.9062    0.6434 C.3       1 <0>         0.0620
     17 H4         -1.2618   -3.7593    0.7115 H         1 <0>         0.1266
     18 O3         -1.2616   -1.7170    1.0695 O.3       1 <0>        -0.3726
     19 C10        -3.1673   -3.1468    1.5202 C.3       1 <0>        -0.0098
     20 O4         -2.1707   -3.8877   -1.5877 O.3       1 <0>        -0.5480
     21 H5          1.1563    3.9138    1.0391 H         1 <0>         0.0771
     22 H6          2.0318    3.9219   -0.5106 H         1 <0>         0.0827
     23 H7          0.2519    3.9213   -0.4939 H         1 <0>         0.0751
     24 H8         -0.9576    1.8939    0.0169 H         1 <0>         0.1814
     25 H9         -1.8607   -0.9717   -2.0865 H         1 <0>         0.1096
     26 H10        -0.4501   -1.9786   -1.6123 H         1 <0>         0.1155
     27 H11        -3.8334   -2.2864    1.4558 H         1 <0>         0.1402
     28 H12        -3.6909   -4.0383    1.1748 H         1 <0>         0.1496
     29 H13        -2.2020   -2.5499    3.2379 H         1 <0>         0.4426
     30 H14        -3.5409   -3.4970    3.5143 H         1 <0>         0.4417
     31 H15        -2.4278   -3.8068   -2.5163 H         1 <0>         0.4024
     32 N3         -2.7313   -3.3570    2.9121 N.4       1 <0>        -0.6428
     33 H16        -2.1329   -4.1901    2.9561 H         1 <0>         0.4422
@<TRIPOS>BOND
     1    1    2 1
     2    1   21 1
     3    1   22 1
     4    1   23 1
     5    2    9 1
     6    2    3 2
     7    3    4 1
     8    3   24 1
     9    4    5 am
    10    4   11 1
    11    5    6 2
    12    5    7 am
    13    7    8 1
    14    7    9 am
    15    9   10 2
    16   11   12 1
    17   11   18 1
    18   11   13 1
    19   13   14 1
    20   13   25 1
    21   13   26 1
    22   14   15 1
    23   14   16 1
    24   14   20 1
    25   16   17 1
    26   16   18 1
    27   16   19 1
    28   19   27 1
    29   19   28 1
    30   19   32 1
    31   20   31 1
    32   29   32 1
    33   30   32 1
    34   32   33 1
