@<TRIPOS>MOLECULE
ZINC17838260
   26    28     0     0     0
SMALL
USER_CHARGES
2-anilino-1,9-dihydropurin-6-one
@<TRIPOS>ATOM
      1 C1         -0.0100    1.0762   -0.0297 C.ar      1 <0>        -0.1281
      2 C2          0.9132    1.7684    0.7326 C.ar      1 <0>        -0.1002
      3 C3          0.9000    3.1493    0.7501 C.ar      1 <0>        -0.1383
      4 C4         -0.0490    3.8426    0.0100 C.ar      1 <0>         0.1093
      5 C5         -0.9785    3.1443   -0.7500 C.ar      1 <0>        -0.1025
      6 C6         -0.9562    1.7635   -0.7677 C.ar      1 <0>        -0.1044
      7 N1         -0.0691    5.2408    0.0304 N.pl3     1 <0>        -0.5511
      8 C7         -1.2644    5.9120   -0.0583 C.2       1 <0>         0.5846
      9 N2         -1.2547    7.2724   -0.1476 N.am      1 <0>        -0.6370
     10 H1         -0.3845    7.7650   -0.1443 H         1 <0>         0.4337
     11 C8         -2.4154    7.9584   -0.2406 C.2       1 <0>         0.5899
     12 O1         -2.4172    9.1747   -0.3251 O.2       1 <0>        -0.5000
     13 C9         -3.6284    7.2305   -0.2321 C.2       1 <0>        -0.1199
     14 C10        -3.5719    5.8356   -0.1329 C.2       1 <0>         0.2799
     15 N3         -2.3845    5.2245   -0.0491 N.2       1 <0>        -0.5436
     16 N4         -4.8697    5.4011   -0.1471 N.pl3     1 <0>        -0.5605
     17 H2         -5.1759    4.4508   -0.0913 H         1 <0>         0.4381
     18 C11        -5.6694    6.5021   -0.2513 C.2       1 <0>         0.2230
     19 N5         -4.9369    7.5761   -0.3011 N.2       1 <0>        -0.4251
     20 H3          0.0053   -0.0036   -0.0452 H         1 <0>         0.1246
     21 H4          1.6478    1.2285    1.3116 H         1 <0>         0.1290
     22 H5          1.6241    3.6893    1.3421 H         1 <0>         0.1292
     23 H6         -1.7179    3.6804   -1.3263 H         1 <0>         0.1349
     24 H7         -1.6788    1.2199   -1.3582 H         1 <0>         0.1254
     25 H8          0.3283    5.5674    0.8880 H         1 <0>         0.3802
     26 H9         -6.7487    6.4843   -0.2876 H         1 <0>         0.2292
@<TRIPOS>BOND
     1    1    6 ar
     2    1    2 ar
     3    1   20 1
     4    2    3 ar
     5    2   21 1
     6    3    4 ar
     7    3   22 1
     8    4    5 ar
     9    4    7 1
    10    5    6 ar
    11    5   23 1
    12    6   24 1
    13    7    8 1
    14    7   25 1
    15    8   15 2
    16    8    9 1
    17    9   10 1
    18    9   11 am
    19   11   12 2
    20   11   13 1
    21   13   19 1
    22   13   14 2
    23   14   15 1
    24   14   16 1
    25   16   17 1
    26   16   18 1
    27   18   19 2
    28   18   26 1
@<TRIPOS>MOLECULE
ZINC03653378
   32    33     0     0     0
SMALL
USER_CHARGES

@<TRIPOS>ATOM
      1 C1         -0.0164    1.3614    0.0233 C.2       1 <0>         0.1881
      2 C2          1.1632    2.0489    0.0032 C.2       1 <0>        -0.2202
      3 C3          2.4167    1.2810   -0.0250 C.2       1 <0>         0.5577
      4 O1          3.4929    1.8494   -0.0431 O.2       1 <0>        -0.4952
      5 N1          2.3498   -0.0670   -0.0299 N.am      1 <0>        -0.6545
      6 H1          3.1662   -0.5906   -0.0483 H         1 <0>         0.4353
      7 C4          1.1574   -0.6878   -0.0088 C.2       1 <0>         0.6977
      8 O2          1.1243   -1.9032   -0.0134 O.2       1 <0>        -0.5141
      9 N2          0.0020   -0.0040    0.0166 N.am      1 <0>        -0.5236
     10 C5         -1.2655   -0.7384    0.0386 C.3       1 <0>         0.3019
     11 H2         -2.1007   -0.0487    0.1601 H         1 <0>         0.1228
     12 C6         -1.4324   -1.5621   -1.2575 C.3       1 <0>        -0.1944
     13 C7         -2.1127   -2.8674   -0.7879 C.3       1 <0>         0.0852
     14 H3         -1.4770   -3.7271   -0.9998 H         1 <0>         0.0842
     15 C8         -2.2764   -2.6779    0.7365 C.3       1 <0>         0.0922
     16 H4         -3.2677   -2.2871    0.9660 H         1 <0>         0.0961
     17 O3         -1.2618   -1.7158    1.1019 O.3       1 <0>        -0.3447
     18 C9         -2.0455   -4.0030    1.4657 C.3       1 <0>         0.0847
     19 O4         -2.3149   -3.8333    2.8588 O.3       1 <0>        -0.5667
     20 O5         -3.3871   -3.0217   -1.4157 O.3       1 <0>        -0.5558
     21 C10         1.1795    3.5257    0.0092 C.2       1 <0>        -0.0621
     22 C11         2.3330    4.1764    0.1020 C.2       1 <0>        -0.1506
     23 Br1         2.3457    6.0613    0.2538 Br        1 <0>        -0.0725
     24 H5         -0.9561    1.8932    0.0487 H         1 <0>         0.1873
     25 H6         -2.0691   -1.0333   -1.9668 H         1 <0>         0.1013
     26 H7         -0.4603   -1.7764   -1.7017 H         1 <0>         0.0974
     27 H8         -2.7109   -4.7634    1.0570 H         1 <0>         0.0688
     28 H9         -1.0101   -4.3160    1.3314 H         1 <0>         0.0607
     29 H10        -2.1888   -4.6351    3.3843 H         1 <0>         0.3853
     30 H11        -3.3455   -3.0854   -2.3797 H         1 <0>         0.3886
     31 H12         0.2531    4.0762   -0.0618 H         1 <0>         0.1380
     32 H13         3.2641    3.6293    0.0906 H         1 <0>         0.1812
@<TRIPOS>BOND
     1    1    9 1
     2    1    2 2
     3    1   24 1
     4    2    3 1
     5    2   21 1
     6    3    4 2
     7    3    5 am
     8    5    6 1
     9    5    7 am
    10    7    8 2
    11    7    9 am
    12    9   10 1
    13   10   11 1
    14   10   17 1
    15   10   12 1
    16   12   13 1
    17   12   25 1
    18   12   26 1
    19   13   14 1
    20   13   15 1
    21   13   20 1
    22   15   16 1
    23   15   17 1
    24   15   18 1
    25   18   19 1
    26   18   27 1
    27   18   28 1
    28   19   29 1
    29   20   30 1
    30   21   22 2
    31   21   31 1
    32   22   23 1
    33   22   32 1
@<TRIPOS>MOLECULE
ZINC00025672
   31    32     0     0     0
SMALL
USER_CHARGES

@<TRIPOS>ATOM
      1 C1         -0.0184    1.5028    0.0103 C.3       1 <0>        -0.0863
      2 C2          0.0021   -0.0041    0.0020 C.2       1 <0>        -0.2538
      3 C3         -1.1526   -0.7039    0.0037 C.2       1 <0>         0.1657
      4 N1         -1.1160   -2.0718   -0.0039 N.am      1 <0>        -0.5281
      5 C4          0.0598   -2.7257   -0.0125 C.2       1 <0>         0.6976
      6 O1          0.0693   -3.9416   -0.0187 O.2       1 <0>        -0.5208
      7 N2          1.2256   -2.0531   -0.0148 N.am      1 <0>        -0.6597
      8 H1          2.0644   -2.5402   -0.0217 H         1 <0>         0.4318
      9 C5          1.2322   -0.7047   -0.0135 C.2       1 <0>         0.5530
     10 O2          2.2865   -0.0953   -0.0208 O.2       1 <0>        -0.5075
     11 C6         -2.3687   -2.8312   -0.0021 C.3       1 <0>         0.3043
     12 H2         -3.2193   -2.1584    0.1071 H         1 <0>         0.1201
     13 C7         -2.4992   -3.6565   -1.3014 C.3       1 <0>        -0.1941
     14 C8         -3.1605   -4.9757   -0.8435 C.3       1 <0>         0.0849
     15 H3         -2.5046   -5.8223   -1.0463 H         1 <0>         0.0837
     16 C9         -3.3514   -4.7913    0.6783 C.3       1 <0>         0.0921
     17 H4         -4.3537   -4.4206    0.8929 H         1 <0>         0.0953
     18 O3         -2.3620   -3.8096    1.0602 O.3       1 <0>        -0.3458
     19 C10        -3.1055   -6.1124    1.4099 C.3       1 <0>         0.0848
     20 O4         -3.3996   -5.9498    2.7988 O.3       1 <0>        -0.5667
     21 O5         -4.4217   -5.1546   -1.4911 O.3       1 <0>        -0.5561
     22 H5          1.0042    1.8801    0.0026 H         1 <0>         0.0818
     23 H6         -0.5455    1.8639   -0.8728 H         1 <0>         0.0721
     24 H7         -0.5286    1.8543    0.9071 H         1 <0>         0.0725
     25 H8         -2.1006   -0.1866    0.0113 H         1 <0>         0.1802
     26 H9         -3.1353   -3.1397   -2.0199 H         1 <0>         0.1001
     27 H10        -1.5163   -3.8510   -1.7306 H         1 <0>         0.0968
     28 H11        -3.7492   -6.8855    0.9903 H         1 <0>         0.0684
     29 H12        -2.0621   -6.4046    1.2913 H         1 <0>         0.0606
     30 H13        -3.2657   -6.7496    3.3255 H         1 <0>         0.3849
     31 H14        -4.3640   -5.2163   -2.4544 H         1 <0>         0.3883
@<TRIPOS>BOND
     1    1    2 1
     2    1   22 1
     3    1   23 1
     4    1   24 1
     5    2    9 1
     6    2    3 2
     7    3    4 1
     8    3   25 1
     9    4    5 am
    10    4   11 1
    11    5    6 2
    12    5    7 am
    13    7    8 1
    14    7    9 am
    15    9   10 2
    16   11   12 1
    17   11   18 1
    18   11   13 1
    19   13   14 1
    20   13   26 1
    21   13   27 1
    22   14   15 1
    23   14   16 1
    24   14   21 1
    25   16   17 1
    26   16   18 1
    27   16   19 1
    28   19   20 1
    29   19   28 1
    30   19   29 1
    31   20   30 1
    32   21   31 1
@<TRIPOS>MOLECULE
ZINC03653374
   33    34     0     0     0
SMALL
USER_CHARGES
5-(2-bromovinyl)-1-[3,4-dihydroxy-5-(hydroxymethyl)tetrahydrofuran-2-yl]-pyrimidine-2,4-dione
@<TRIPOS>ATOM
      1 C1          2.2186   -2.6854    0.2075 C.2       1 <0>         0.1883
      2 C2          2.4431   -3.7980    0.9666 C.2       1 <0>        -0.2247
      3 C3          2.1912   -3.7171    2.4129 C.2       1 <0>         0.5597
      4 O1          2.3764   -4.6827    3.1304 O.2       1 <0>        -0.5020
      5 N1          1.7501   -2.5505    2.9286 N.am      1 <0>        -0.6594
      6 H1          1.5692   -2.4770    3.9093 H         1 <0>         0.4398
      7 C4          1.5527   -1.4867    2.1305 C.2       1 <0>         0.7055
      8 O2          1.1599   -0.4456    2.6206 O.2       1 <0>        -0.4903
      9 N2          1.7717   -1.5426    0.8069 N.am      1 <0>        -0.5159
     10 C5          1.5319   -0.3508   -0.0106 C.3       1 <0>         0.3106
     11 H2          1.8792   -0.5150   -1.0307 H         1 <0>         0.1308
     12 C6          0.0303    0.0116   -0.0055 C.3       1 <0>         0.0765
     13 H3         -0.4570   -0.3667   -0.9041 H         1 <0>         0.0963
     14 C7          0.0170    1.5566    0.0079 C.3       1 <0>         0.0489
     15 H4         -0.4745    1.9266    0.9077 H         1 <0>         0.0919
     16 C8          1.5122    1.9449    0.0092 C.3       1 <0>         0.0544
     17 H5          1.8564    2.1327   -1.0078 H         1 <0>         0.0952
     18 O3          2.1907    0.7979    0.5659 O.3       1 <0>        -0.3394
     19 C9          1.7417    3.1771    0.8866 C.3       1 <0>         0.0824
     20 O4          3.1061    3.5887    0.7823 O.3       1 <0>        -0.5652
     21 O5         -0.6305    2.0619   -1.1616 O.3       1 <0>        -0.5526
     22 O6         -0.6083   -0.5047    1.1640 O.3       1 <0>        -0.5305
     23 C10         2.9268   -5.0502    0.3508 C.2       1 <0>        -0.0596
     24 C11         3.2456   -6.0867    1.1167 C.2       1 <0>        -0.1531
     25 Br1         3.9993   -7.6384    0.3421 Br        1 <0>        -0.0756
     26 H6          2.3927   -2.7091   -0.8581 H         1 <0>         0.1839
     27 H7          1.0916    3.9863    0.5537 H         1 <0>         0.0629
     28 H8          1.5144    2.9319    1.9240 H         1 <0>         0.0636
     29 H9          3.3240    4.3667    1.3137 H         1 <0>         0.3858
     30 H10        -0.6671    3.0272   -1.2048 H         1 <0>         0.3892
     31 H11        -1.5391   -0.2559    1.2462 H         1 <0>         0.3846
     32 H12         3.0212   -5.1227   -0.7227 H         1 <0>         0.1362
     33 H13         3.0745   -6.0436    2.1822 H         1 <0>         0.1816
@<TRIPOS>BOND
     1    1    9 1
     2    1    2 2
     3    1   26 1
     4    2    3 1
     5    2   23 1
     6    3    4 2
     7    3    5 am
     8    5    6 1
     9    5    7 am
    10    7    8 2
    11    7    9 am
    12    9   10 1
    13   10   11 1
    14   10   18 1
    15   10   12 1
    16   12   13 1
    17   12   14 1
    18   12   22 1
    19   14   15 1
    20   14   16 1
    21   14   21 1
    22   16   17 1
    23   16   18 1
    24   16   19 1
    25   19   20 1
    26   19   27 1
    27   19   28 1
    28   20   29 1
    29   21   30 1
    30   22   31 1
    31   23   24 2
    32   23   32 1
    33   24   25 1
    34   24   33 1
