@<TRIPOS>MOLECULE
ZINC03653374
   33    34     0     0     0
SMALL
USER_CHARGES
5-(2-bromovinyl)-1-[3,4-dihydroxy-5-(hydroxymethyl)tetrahydrofuran-2-yl]-pyrimidine-2,4-dione
@<TRIPOS>ATOM
      1 C1          2.2186   -2.6854    0.2075 C.2       1 <0>         0.1883
      2 C2          2.4431   -3.7980    0.9666 C.2       1 <0>        -0.2247
      3 C3          2.1912   -3.7171    2.4129 C.2       1 <0>         0.5597
      4 O1          2.3764   -4.6827    3.1304 O.2       1 <0>        -0.5020
      5 N1          1.7501   -2.5505    2.9286 N.am      1 <0>        -0.6594
      6 H1          1.5692   -2.4770    3.9093 H         1 <0>         0.4398
      7 C4          1.5527   -1.4867    2.1305 C.2       1 <0>         0.7055
      8 O2          1.1599   -0.4456    2.6206 O.2       1 <0>        -0.4903
      9 N2          1.7717   -1.5426    0.8069 N.am      1 <0>        -0.5159
     10 C5          1.5319   -0.3508   -0.0106 C.3       1 <0>         0.3106
     11 H2          1.8792   -0.5150   -1.0307 H         1 <0>         0.1308
     12 C6          0.0303    0.0116   -0.0055 C.3       1 <0>         0.0765
     13 H3         -0.4570   -0.3667   -0.9041 H         1 <0>         0.0963
     14 C7          0.0170    1.5566    0.0079 C.3       1 <0>         0.0489
     15 H4         -0.4745    1.9266    0.9077 H         1 <0>         0.0919
     16 C8          1.5122    1.9449    0.0092 C.3       1 <0>         0.0544
     17 H5          1.8564    2.1327   -1.0078 H         1 <0>         0.0952
     18 O3          2.1907    0.7979    0.5659 O.3       1 <0>        -0.3394
     19 C9          1.7417    3.1771    0.8866 C.3       1 <0>         0.0824
     20 O4          3.1061    3.5887    0.7823 O.3       1 <0>        -0.5652
     21 O5         -0.6305    2.0619   -1.1616 O.3       1 <0>        -0.5526
     22 O6         -0.6083   -0.5047    1.1640 O.3       1 <0>        -0.5305
     23 C10         2.9268   -5.0502    0.3508 C.2       1 <0>        -0.0596
     24 C11         3.2456   -6.0867    1.1167 C.2       1 <0>        -0.1531
     25 Br1         3.9993   -7.6384    0.3421 Br        1 <0>        -0.0756
     26 H6          2.3927   -2.7091   -0.8581 H         1 <0>         0.1839
     27 H7          1.0916    3.9863    0.5537 H         1 <0>         0.0629
     28 H8          1.5144    2.9319    1.9240 H         1 <0>         0.0636
     29 H9          3.3240    4.3667    1.3137 H         1 <0>         0.3858
     30 H10        -0.6671    3.0272   -1.2048 H         1 <0>         0.3892
     31 H11        -1.5391   -0.2559    1.2462 H         1 <0>         0.3846
     32 H12         3.0212   -5.1227   -0.7227 H         1 <0>         0.1362
     33 H13         3.0745   -6.0436    2.1822 H         1 <0>         0.1816
@<TRIPOS>BOND
     1    1    9 1
     2    1    2 2
     3    1   26 1
     4    2    3 1
     5    2   23 1
     6    3    4 2
     7    3    5 am
     8    5    6 1
     9    5    7 am
    10    7    8 2
    11    7    9 am
    12    9   10 1
    13   10   11 1
    14   10   18 1
    15   10   12 1
    16   12   13 1
    17   12   14 1
    18   12   22 1
    19   14   15 1
    20   14   16 1
    21   14   21 1
    22   16   17 1
    23   16   18 1
    24   16   19 1
    25   19   20 1
    26   19   27 1
    27   19   28 1
    28   20   29 1
    29   21   30 1
    30   22   31 1
    31   23   24 2
    32   23   32 1
    33   24   25 1
    34   24   33 1
