@<TRIPOS>MOLECULE
ZINC03779042
   32    33     0     0     0
SMALL
USER_CHARGES

@<TRIPOS>ATOM
      1 C1         -0.0184    1.5028    0.0103 C.3       1 <0>        -0.0871
      2 C2          0.0021   -0.0041    0.0020 C.2       1 <0>        -0.2505
      3 C3         -1.1526   -0.7039    0.0037 C.2       1 <0>         0.1638
      4 N1         -1.1160   -2.0718   -0.0039 N.am      1 <0>        -0.5289
      5 C4          0.0598   -2.7257   -0.0125 C.2       1 <0>         0.6982
      6 O1          0.0693   -3.9416   -0.0187 O.2       1 <0>        -0.5214
      7 N2          1.2256   -2.0531   -0.0148 N.am      1 <0>        -0.6592
      8 H1          2.0644   -2.5402   -0.0217 H         1 <0>         0.4323
      9 C5          1.2322   -0.7047   -0.0135 C.2       1 <0>         0.5527
     10 O2          2.2865   -0.0953   -0.0208 O.2       1 <0>        -0.5056
     11 C6         -2.3687   -2.8312   -0.0021 C.3       1 <0>         0.3096
     12 H2         -3.2193   -2.1584    0.1071 H         1 <0>         0.1252
     13 C7         -2.4992   -3.6565   -1.3014 C.3       1 <0>        -0.1823
     14 C8         -3.1605   -4.9757   -0.8435 C.3       1 <0>         0.0822
     15 H3         -2.5046   -5.8223   -1.0463 H         1 <0>         0.1042
     16 C9         -3.3514   -4.7913    0.6783 C.3       1 <0>         0.1102
     17 H4         -4.3537   -4.4206    0.8929 H         1 <0>         0.1060
     18 O3         -2.3620   -3.8096    1.0602 O.3       1 <0>        -0.3416
     19 C10        -3.1055   -6.1124    1.4099 C.3       1 <0>         0.0840
     20 O4         -3.3996   -5.9498    2.7988 O.3       1 <0>        -0.5643
     21 N3         -4.4535   -5.1591   -1.5074 N.2       1 <0>        -0.3983
     22 N4         -4.4962   -5.3273   -2.6179 N.1       1 <0>         0.3002
     23 N5         -4.5380   -5.4918   -3.7047 N.1       1 <0>        -0.1548
     24 H5          1.0042    1.8801    0.0026 H         1 <0>         0.0822
     25 H6         -0.5455    1.8639   -0.8728 H         1 <0>         0.0726
     26 H7         -0.5286    1.8543    0.9071 H         1 <0>         0.0733
     27 H8         -2.1006   -0.1866    0.0113 H         1 <0>         0.1811
     28 H9         -3.1353   -3.1397   -2.0199 H         1 <0>         0.0946
     29 H10        -1.5163   -3.8510   -1.7306 H         1 <0>         0.1046
     30 H11        -3.7492   -6.8855    0.9903 H         1 <0>         0.0692
     31 H12        -2.0621   -6.4046    1.2913 H         1 <0>         0.0616
     32 H13        -3.2657   -6.7496    3.3255 H         1 <0>         0.3863
@<TRIPOS>BOND
     1    1    2 1
     2    1   24 1
     3    1   25 1
     4    1   26 1
     5    2    9 1
     6    2    3 2
     7    3    4 1
     8    3   27 1
     9    4    5 am
    10    4   11 1
    11    5    6 2
    12    5    7 am
    13    7    8 1
    14    7    9 am
    15    9   10 2
    16   11   12 1
    17   11   18 1
    18   11   13 1
    19   13   14 1
    20   13   28 1
    21   13   29 1
    22   14   15 1
    23   14   16 1
    24   14   21 1
    25   16   17 1
    26   16   18 1
    27   16   19 1
    28   19   20 1
    29   19   30 1
    30   19   31 1
    31   20   32 1
    32   21   22 2
    33   22   23 2
@<TRIPOS>MOLECULE
ZINC01081243
   28    29     0     0     0
SMALL
USER_CHARGES

@<TRIPOS>ATOM
      1 C1         -0.0165    1.3649    0.0095 C.2       1 <0>         0.2202
      2 C2          1.1477    2.0493    0.0021 C.2       1 <0>        -0.2753
      3 C3          2.3687    1.3316   -0.0134 C.2       1 <0>         0.5615
      4 O1          3.4313    1.9266   -0.0200 O.2       1 <0>        -0.4859
      5 N1          2.3437   -0.0165   -0.0204 N.am      1 <0>        -0.6533
      6 H1          3.1758   -0.5149   -0.0310 H         1 <0>         0.4372
      7 C4          1.1690   -0.6735   -0.0123 C.2       1 <0>         0.6986
      8 O2          1.1624   -1.8893   -0.0183 O.2       1 <0>        -0.5089
      9 N2          0.0021   -0.0041    0.0020 N.am      1 <0>        -0.5240
     10 C5         -1.2606   -0.7470    0.0101 C.3       1 <0>         0.3021
     11 H2         -2.1017   -0.0630    0.1233 H         1 <0>         0.1242
     12 C6         -1.4082   -1.5706   -1.2885 C.3       1 <0>        -0.1948
     13 C7         -2.0847   -2.8809   -0.8271 C.3       1 <0>         0.0853
     14 H3         -1.4410   -3.7361   -1.0330 H         1 <0>         0.0848
     15 C8         -2.2657   -2.6939    0.6956 C.3       1 <0>         0.0919
     16 H4         -3.2620   -2.3099    0.9150 H         1 <0>         0.0969
     17 O3         -1.2615   -1.7253    1.0725 O.3       1 <0>        -0.3445
     18 C9         -2.0336   -4.0180    1.4262 C.3       1 <0>         0.0847
     19 O4         -2.3188   -3.8514    2.8165 O.3       1 <0>        -0.5666
     20 O5         -3.3513   -3.0432   -1.4685 O.3       1 <0>        -0.5554
     21 Br1         1.1477    3.9403    0.0116 Br        1 <0>         0.0259
     22 H5         -0.9574    1.8948    0.0259 H         1 <0>         0.1905
     23 H6         -2.0410   -1.0454   -2.0039 H         1 <0>         0.1026
     24 H7         -0.4301   -1.7780   -1.7225 H         1 <0>         0.0979
     25 H8         -2.6895   -4.7825    1.0098 H         1 <0>         0.0692
     26 H9         -0.9947   -4.3239    1.3025 H         1 <0>         0.0609
     27 H10        -2.1928   -4.6528    3.3426 H         1 <0>         0.3855
     28 H11        -3.2991   -3.1057   -2.4320 H         1 <0>         0.3889
@<TRIPOS>BOND
     1    1    9 1
     2    1    2 2
     3    1   22 1
     4    2    3 1
     5    2   21 1
     6    3    4 2
     7    3    5 am
     8    5    6 1
     9    5    7 am
    10    7    8 2
    11    7    9 am
    12    9   10 1
    13   10   11 1
    14   10   17 1
    15   10   12 1
    16   12   13 1
    17   12   23 1
    18   12   24 1
    19   13   14 1
    20   13   15 1
    21   13   20 1
    22   15   16 1
    23   15   17 1
    24   15   18 1
    25   18   19 1
    26   18   25 1
    27   18   26 1
    28   19   27 1
    29   20   28 1
@<TRIPOS>MOLECULE
ZINC06119296
   29    30     0     0     0
SMALL
USER_CHARGES
2-amino-9-(4-hydroxybutyl)-3H-purin-6-one
@<TRIPOS>ATOM
      1 C1         -0.3185   -0.0293    3.1677 C.2       1 <0>         0.2096
      2 N1          0.5204   -0.1528    4.1560 N.2       1 <0>        -0.4260
      3 C2          1.3900    0.8839    4.1323 C.2       1 <0>        -0.1260
      4 C3          1.0518    1.6848    3.0483 C.2       1 <0>         0.2745
      5 N2         -0.0203    1.0939    2.4537 N.pl3     1 <0>        -0.4462
      6 C4         -0.7288    1.5792    1.2668 C.3       1 <0>         0.1082
      7 C5         -0.0127    1.0858    0.0080 C.3       1 <0>        -0.1319
      8 C6         -0.7527    1.5927   -1.2315 C.3       1 <0>        -0.1172
      9 C7         -0.0366    1.0992   -2.4903 C.3       1 <0>         0.0760
     10 O1         -0.7277    1.5726   -3.6480 O.3       1 <0>        -0.5754
     11 N3          1.7907    2.8136    2.8029 N.2       1 <0>        -0.5317
     12 H1          3.9655    2.7009    5.2025 H         1 <0>         0.4266
     13 C8          2.8353    3.1432    3.6066 C.2       1 <0>         0.5929
     14 N4          3.1884    2.4132    4.6428 N.am      1 <0>        -0.6418
     15 C9          2.5270    1.2903    4.9638 C.2       1 <0>         0.5841
     16 O2          2.8651    0.6215    5.9279 O.2       1 <0>        -0.5007
     17 N5          3.5480    4.2786    3.3277 N.pl3     1 <0>        -0.7449
     18 H2         -1.1263   -0.7115    2.9473 H         1 <0>         0.2243
     19 H3         -0.7436    2.6691    1.2728 H         1 <0>         0.0999
     20 H4         -1.7514    1.2020    1.2746 H         1 <0>         0.1027
     21 H5          0.0021   -0.0041    0.0020 H         1 <0>         0.0732
     22 H6          1.0099    1.4631    0.0003 H         1 <0>         0.0749
     23 H7         -1.7753    1.2154   -1.2238 H         1 <0>         0.0750
     24 H8         -0.7675    2.6825   -1.2255 H         1 <0>         0.0759
     25 H9          0.9860    1.4765   -2.4981 H         1 <0>         0.0463
     26 H10        -0.0218    0.0093   -2.4963 H         1 <0>         0.0463
     27 H11        -0.3283    1.2973   -4.4845 H         1 <0>         0.3829
     28 H12         3.9455    4.2062    2.4129 H         1 <0>         0.3846
     29 H13         4.2973    4.5312    3.8895 H         1 <0>         0.3839
@<TRIPOS>BOND
     1    1   18 1
     2    1    5 1
     3    1    2 2
     4    2    3 1
     5    3    4 2
     6    3   15 1
     7    4    5 1
     8    4   11 1
     9    5    6 1
    10    6    7 1
    11    6   19 1
    12    6   20 1
    13    7    8 1
    14    7   21 1
    15    7   22 1
    16    8    9 1
    17    8   23 1
    18    8   24 1
    19    9   10 1
    20    9   25 1
    21    9   26 1
    22   10   27 1
    23   11   13 2
    24   12   14 1
    25   13   14 1
    26   13   17 1
    27   14   15 am
    28   15   16 2
    29   17   29 1
    30   17   28 1
@<TRIPOS>MOLECULE
ZINC04216113
   28    29     0     0     0
SMALL
USER_CHARGES
1-[3-fluoro-4-hydroxy-5-(hydroxymethyl)tetrahydrofuran-2-yl]-5-iodo-pyrimidine-2,4-dione
@<TRIPOS>ATOM
      1 C1          1.1522    2.0543    0.0021 C.2       1 <0>         0.2414
      2 C2          2.3341    1.4012   -0.0131 C.2       1 <0>        -0.2958
      3 C3          2.3385   -0.0150   -0.0208 C.2       1 <0>         0.5639
      4 O1          3.3917   -0.6262   -0.0349 O.2       1 <0>        -0.4859
      5 N1          1.1657   -0.6803   -0.0127 N.am      1 <0>        -0.6535
      6 H1          1.1605   -1.6803   -0.0176 H         1 <0>         0.4457
      7 C4          0.0021   -0.0041    0.0020 C.2       1 <0>         0.7082
      8 O2         -1.0476   -0.6177    0.0091 O.2       1 <0>        -0.5254
      9 N2         -0.0162    1.3412    0.0094 N.am      1 <0>        -0.5220
     10 C5         -1.2986    2.0494    0.0193 C.3       1 <0>         0.2743
     11 H2         -2.1232    1.3407   -0.0556 H         1 <0>         0.1513
     12 C6         -1.4328    2.9008    1.3013 C.3       1 <0>         0.0158
     13 H3         -2.0308    2.3769    2.0469 H         1 <0>         0.1311
     14 C7         -2.1576    4.1806    0.8279 C.3       1 <0>         0.0586
     15 H4         -1.5343    5.0590    0.9948 H         1 <0>         0.1018
     16 C8         -2.3756    3.9510   -0.6841 C.3       1 <0>         0.0879
     17 H5         -3.3666    3.5358   -0.8676 H         1 <0>         0.1080
     18 O3         -1.3548    3.0026   -1.0643 O.3       1 <0>        -0.3485
     19 C9         -2.1977    5.2618   -1.4530 C.3       1 <0>         0.0860
     20 O4         -2.4451    5.0364   -2.8423 O.3       1 <0>        -0.5631
     21 O5         -3.4114    4.3231    1.4985 O.3       1 <0>        -0.5405
     22 F1         -0.1702    3.2145    1.8159 F         1 <0>        -0.1858
     23 I1          4.1367    2.4685   -0.0252 I         1 <0>         0.0436
     24 H6          1.1289    3.1341    0.0077 H         1 <0>         0.1849
     25 H7         -2.9010    6.0034   -1.0743 H         1 <0>         0.0747
     26 H8         -1.1789    5.6258   -1.3198 H         1 <0>         0.0601
     27 H9         -2.3502    5.8264   -3.3919 H         1 <0>         0.3884
     28 H10        -3.3335    4.4695    2.4512 H         1 <0>         0.3948
@<TRIPOS>BOND
     1    1    9 1
     2    1    2 2
     3    1   24 1
     4    2    3 1
     5    2   23 1
     6    3    4 2
     7    3    5 am
     8    5    6 1
     9    5    7 am
    10    7    8 2
    11    7    9 am
    12    9   10 1
    13   10   11 1
    14   10   18 1
    15   10   12 1
    16   12   13 1
    17   12   14 1
    18   12   22 1
    19   14   15 1
    20   14   16 1
    21   14   21 1
    22   16   17 1
    23   16   18 1
    24   16   19 1
    25   19   20 1
    26   19   25 1
    27   19   26 1
    28   20   27 1
    29   21   28 1
@<TRIPOS>MOLECULE
ZINC03653378
   32    33     0     0     0
SMALL
USER_CHARGES

@<TRIPOS>ATOM
      1 C1         -0.0164    1.3614    0.0233 C.2       1 <0>         0.1881
      2 C2          1.1632    2.0489    0.0032 C.2       1 <0>        -0.2202
      3 C3          2.4167    1.2810   -0.0250 C.2       1 <0>         0.5577
      4 O1          3.4929    1.8494   -0.0431 O.2       1 <0>        -0.4952
      5 N1          2.3498   -0.0670   -0.0299 N.am      1 <0>        -0.6545
      6 H1          3.1662   -0.5906   -0.0483 H         1 <0>         0.4353
      7 C4          1.1574   -0.6878   -0.0088 C.2       1 <0>         0.6977
      8 O2          1.1243   -1.9032   -0.0134 O.2       1 <0>        -0.5141
      9 N2          0.0020   -0.0040    0.0166 N.am      1 <0>        -0.5236
     10 C5         -1.2655   -0.7384    0.0386 C.3       1 <0>         0.3019
     11 H2         -2.1007   -0.0487    0.1601 H         1 <0>         0.1228
     12 C6         -1.4324   -1.5621   -1.2575 C.3       1 <0>        -0.1944
     13 C7         -2.1127   -2.8674   -0.7879 C.3       1 <0>         0.0852
     14 H3         -1.4770   -3.7271   -0.9998 H         1 <0>         0.0842
     15 C8         -2.2764   -2.6779    0.7365 C.3       1 <0>         0.0922
     16 H4         -3.2677   -2.2871    0.9660 H         1 <0>         0.0961
     17 O3         -1.2618   -1.7158    1.1019 O.3       1 <0>        -0.3447
     18 C9         -2.0455   -4.0030    1.4657 C.3       1 <0>         0.0847
     19 O4         -2.3149   -3.8333    2.8588 O.3       1 <0>        -0.5667
     20 O5         -3.3871   -3.0217   -1.4157 O.3       1 <0>        -0.5558
     21 C10         1.1795    3.5257    0.0092 C.2       1 <0>        -0.0621
     22 C11         2.3330    4.1764    0.1020 C.2       1 <0>        -0.1506
     23 Br1         2.3457    6.0613    0.2538 Br        1 <0>        -0.0725
     24 H5         -0.9561    1.8932    0.0487 H         1 <0>         0.1873
     25 H6         -2.0691   -1.0333   -1.9668 H         1 <0>         0.1013
     26 H7         -0.4603   -1.7764   -1.7017 H         1 <0>         0.0974
     27 H8         -2.7109   -4.7634    1.0570 H         1 <0>         0.0688
     28 H9         -1.0101   -4.3160    1.3314 H         1 <0>         0.0607
     29 H10        -2.1888   -4.6351    3.3843 H         1 <0>         0.3853
     30 H11        -3.3455   -3.0854   -2.3797 H         1 <0>         0.3886
     31 H12         0.2531    4.0762   -0.0618 H         1 <0>         0.1380
     32 H13         3.2641    3.6293    0.0906 H         1 <0>         0.1812
@<TRIPOS>BOND
     1    1    9 1
     2    1    2 2
     3    1   24 1
     4    2    3 1
     5    2   21 1
     6    3    4 2
     7    3    5 am
     8    5    6 1
     9    5    7 am
    10    7    8 2
    11    7    9 am
    12    9   10 1
    13   10   11 1
    14   10   17 1
    15   10   12 1
    16   12   13 1
    17   12   25 1
    18   12   26 1
    19   13   14 1
    20   13   15 1
    21   13   20 1
    22   15   16 1
    23   15   17 1
    24   15   18 1
    25   18   19 1
    26   18   27 1
    27   18   28 1
    28   19   29 1
    29   20   30 1
    30   21   22 2
    31   21   31 1
    32   22   23 1
    33   22   32 1
@<TRIPOS>MOLECULE
ZINC04886882
   64    68     0     0     0
SMALL
USER_CHARGES
1-[4-hydroxy-5-(trityloxymethyl)tetrahydrofuran-2-yl]-5-methyl-pyrimidine-2,4-dione
@<TRIPOS>ATOM
      1 C1         -6.6236    7.6553   -4.6575 C.3       1 <0>        -0.0798
      2 C2         -5.2531    7.8047   -5.2661 C.2       1 <0>        -0.2636
      3 C3         -4.1517    7.4625   -4.5640 C.2       1 <0>         0.1776
      4 N1         -2.9149    7.6042   -5.1320 N.am      1 <0>        -0.5300
      5 C4         -2.7857    8.0859   -6.3815 C.2       1 <0>         0.7038
      6 O1         -1.6768    8.2079   -6.8652 O.2       1 <0>        -0.5386
      7 N2         -3.8669    8.4298   -7.1056 N.am      1 <0>        -0.6605
      8 H1         -3.7529    8.7790   -8.0357 H         1 <0>         0.4395
      9 C5         -5.1032    8.3053   -6.5819 C.2       1 <0>         0.5533
     10 O2         -6.0818    8.6202   -7.2348 O.2       1 <0>        -0.5081
     11 C6         -1.7198    7.2334   -4.3701 C.3       1 <0>         0.3105
     12 H2         -1.0855    8.1037   -4.2014 H         1 <0>         0.1126
     13 C7         -0.9313    6.1168   -5.1008 C.3       1 <0>        -0.1933
     14 C8         -0.1601    5.4491   -3.9363 C.3       1 <0>         0.0821
     15 H3          0.8589    5.8321   -3.8816 H         1 <0>         0.0879
     16 C9         -0.9551    5.8493   -2.6783 C.3       1 <0>         0.0957
     17 H4         -0.3277    6.4485   -2.0184 H         1 <0>         0.0987
     18 O3         -2.0866    6.6207   -3.1153 O.3       1 <0>        -0.3572
     19 C10        -1.4329    4.5950   -1.9439 C.3       1 <0>         0.0615
     20 O4         -2.0673    4.9720   -0.7202 O.3       1 <0>        -0.3558
     21 C11        -2.5528    3.8685    0.0469 C.3       1 <0>         0.2526
     22 C12        -1.4043    2.9601    0.4029 C.ar      1 <0>        -0.1090
     23 C13        -1.6266    1.6104    0.6022 C.ar      1 <0>        -0.1030
     24 C14        -0.5740    0.7782    0.9344 C.ar      1 <0>        -0.1207
     25 C15         0.7028    1.2937    1.0564 C.ar      1 <0>        -0.1133
     26 C16         0.9261    2.6424    0.8514 C.ar      1 <0>        -0.1201
     27 C17        -0.1274    3.4756    0.5244 C.ar      1 <0>        -0.0989
     28 C18        -3.5673    3.1021   -0.7621 C.ar      1 <0>        -0.1100
     29 C19        -3.1492    2.2534   -1.7699 C.ar      1 <0>        -0.0992
     30 C20        -4.0796    1.5473   -2.5094 C.ar      1 <0>        -0.1230
     31 C21        -5.4285    1.6966   -2.2468 C.ar      1 <0>        -0.1106
     32 C22        -5.8469    2.5490   -1.2421 C.ar      1 <0>        -0.1224
     33 C23        -4.9163    3.2521   -0.5001 C.ar      1 <0>        -0.0939
     34 C24        -3.1989    4.3795    1.3088 C.ar      1 <0>        -0.0704
     35 C25        -3.1906    3.6034    2.4527 C.ar      1 <0>        -0.1036
     36 C26        -3.7798    4.0738    3.6114 C.ar      1 <0>        -0.1208
     37 C27        -4.3850    5.3165    3.6237 C.ar      1 <0>        -0.1147
     38 C28        -4.3975    6.0906    2.4784 C.ar      1 <0>        -0.1233
     39 C29        -3.8049    5.6219    1.3209 C.ar      1 <0>        -0.0921
     40 O5         -0.1515    4.0286   -4.0916 O.3       1 <0>        -0.5508
     41 H5         -6.8934    8.5757   -4.1396 H         1 <0>         0.0709
     42 H6         -7.3506    7.4545   -5.4444 H         1 <0>         0.0767
     43 H7         -6.6179    6.8276   -3.9483 H         1 <0>         0.0707
     44 H8         -4.2465    7.0786   -3.5591 H         1 <0>         0.1845
     45 H9         -0.2421    6.5413   -5.8309 H         1 <0>         0.1091
     46 H10        -1.6100    5.4079   -5.5750 H         1 <0>         0.0952
     47 H11        -0.5790    3.9530   -1.7277 H         1 <0>         0.0814
     48 H12        -2.1435    4.0557   -2.5704 H         1 <0>         0.0757
     49 H13        -2.6234    1.2068    0.5025 H         1 <0>         0.1240
     50 H14        -0.7484   -0.2756    1.0942 H         1 <0>         0.1233
     51 H15         1.5259    0.6427    1.3115 H         1 <0>         0.1224
     52 H16         1.9237    3.0451    0.9464 H         1 <0>         0.1232
     53 H17         0.0471    4.5293    0.3643 H         1 <0>         0.1260
     54 H18        -2.0955    2.1396   -1.9776 H         1 <0>         0.1233
     55 H19        -3.7528    0.8817   -3.2946 H         1 <0>         0.1222
     56 H20        -6.1556    1.1476   -2.8268 H         1 <0>         0.1220
     57 H21        -6.9008    2.6659   -1.0372 H         1 <0>         0.1232
     58 H22        -5.2432    3.9183    0.2846 H         1 <0>         0.1263
     59 H23        -2.7210    2.6309    2.4420 H         1 <0>         0.1238
     60 H24        -3.7704    3.4689    4.5060 H         1 <0>         0.1229
     61 H25        -4.8483    5.6826    4.5280 H         1 <0>         0.1221
     62 H26        -4.8707    7.0614    2.4880 H         1 <0>         0.1237
     63 H27        -3.8150    6.2264    0.4260 H         1 <0>         0.1303
     64 H28         0.3354    3.7208   -4.8684 H         1 <0>         0.3877
@<TRIPOS>BOND
     1    1    2 1
     2    1   41 1
     3    1   42 1
     4    1   43 1
     5    2    9 1
     6    2    3 2
     7    3    4 1
     8    3   44 1
     9    4    5 am
    10    4   11 1
    11    5    6 2
    12    5    7 am
    13    7    8 1
    14    7    9 am
    15    9   10 2
    16   11   12 1
    17   11   18 1
    18   11   13 1
    19   13   14 1
    20   13   45 1
    21   13   46 1
    22   14   15 1
    23   14   16 1
    24   14   40 1
    25   16   17 1
    26   16   18 1
    27   16   19 1
    28   19   20 1
    29   19   47 1
    30   19   48 1
    31   20   21 1
    32   21   22 1
    33   21   28 1
    34   21   34 1
    35   22   27 ar
    36   22   23 ar
    37   23   24 ar
    38   23   49 1
    39   24   25 ar
    40   24   50 1
    41   25   26 ar
    42   25   51 1
    43   26   27 ar
    44   26   52 1
    45   27   53 1
    46   28   33 ar
    47   28   29 ar
    48   29   30 ar
    49   29   54 1
    50   30   31 ar
    51   30   55 1
    52   31   32 ar
    53   31   56 1
    54   32   33 ar
    55   32   57 1
    56   33   58 1
    57   34   39 ar
    58   34   35 ar
    59   35   36 ar
    60   35   59 1
    61   36   37 ar
    62   36   60 1
    63   37   38 ar
    64   37   61 1
    65   38   39 ar
    66   38   62 1
    67   39   63 1
    68   40   64 1
@<TRIPOS>MOLECULE
ZINC04886883
   64    68     0     0     0
SMALL
USER_CHARGES
1-[4-hydroxy-5-(trityloxymethyl)tetrahydrofuran-2-yl]-5-methyl-pyrimidine-2,4-dione
@<TRIPOS>ATOM
      1 C1          6.1057   10.0022   -5.9883 C.3       1 <0>        -0.0857
      2 C2          5.8286    8.8375   -5.0730 C.2       1 <0>        -0.2586
      3 C3          4.6696    8.1515   -5.1704 C.2       1 <0>         0.1677
      4 N1          4.4319    7.0998   -4.3280 N.am      1 <0>        -0.5367
      5 C4          5.3465    6.7363   -3.4105 C.2       1 <0>         0.6986
      6 O1          5.1167    5.7958   -2.6751 O.2       1 <0>        -0.5314
      7 N2          6.5120    7.3996   -3.2950 N.am      1 <0>        -0.6631
      8 H1          7.1803    7.1161   -2.6073 H         1 <0>         0.4372
      9 C5          6.7820    8.4448   -4.1029 C.2       1 <0>         0.5537
     10 O2          7.8361    9.0458   -3.9988 O.2       1 <0>        -0.5107
     11 C6          3.1724    6.3586   -4.4301 C.3       1 <0>         0.3066
     12 H2          2.5140    6.8436   -5.1508 H         1 <0>         0.1296
     13 C7          3.4535    4.9064   -4.8720 C.3       1 <0>        -0.1911
     14 C8          2.4409    4.0991   -4.0148 C.3       1 <0>         0.0808
     15 H3          2.8051    3.0897   -3.8235 H         1 <0>         0.0892
     16 C9          2.4197    4.9409   -2.7142 C.3       1 <0>         0.1021
     17 H4          3.2622    4.6749   -2.0757 H         1 <0>         0.1089
     18 O3          2.5347    6.3053   -3.1486 O.3       1 <0>        -0.3458
     19 C10         1.1012    4.7308   -1.9670 C.3       1 <0>         0.0569
     20 O4          1.1211    5.4749   -0.7472 O.3       1 <0>        -0.3504
     21 C11        -0.0705    5.3471    0.0311 C.3       1 <0>         0.2496
     22 C12        -0.2791    3.8999    0.3963 C.ar      1 <0>        -0.1084
     23 C13         0.8073    3.0535    0.5149 C.ar      1 <0>        -0.0999
     24 C14         0.6160    1.7261    0.8503 C.ar      1 <0>        -0.1207
     25 C15        -0.6618    1.2452    1.0667 C.ar      1 <0>        -0.1139
     26 C16        -1.7487    2.0903    0.9425 C.ar      1 <0>        -0.1210
     27 C17        -1.5570    3.4189    0.6123 C.ar      1 <0>        -0.1032
     28 C18        -1.2488    5.8379   -0.7699 C.ar      1 <0>        -0.1081
     29 C19        -1.7838    5.0458   -1.7686 C.ar      1 <0>        -0.0981
     30 C20        -2.8677    5.4940   -2.5001 C.ar      1 <0>        -0.1219
     31 C21        -3.4100    6.7387   -2.2401 C.ar      1 <0>        -0.1116
     32 C22        -2.8717    7.5330   -1.2450 C.ar      1 <0>        -0.1227
     33 C23        -1.7911    7.0826   -0.5099 C.ar      1 <0>        -0.0939
     34 C24         0.0598    6.1685    1.2878 C.ar      1 <0>        -0.0698
     35 C25        -0.5978    5.7788    2.4396 C.ar      1 <0>        -0.1039
     36 C26        -0.4744    6.5297    3.5937 C.ar      1 <0>        -0.1214
     37 C27         0.2982    7.6760    3.5931 C.ar      1 <0>        -0.1148
     38 C28         0.9516    8.0686    2.4399 C.ar      1 <0>        -0.1235
     39 C29         0.8324    7.3148    1.2872 C.ar      1 <0>        -0.0910
     40 O5          1.1519    4.0708   -4.6311 O.3       1 <0>        -0.5495
     41 H5          7.0864   10.4191   -5.7590 H         1 <0>         0.0809
     42 H6          6.0884    9.6625   -7.0239 H         1 <0>         0.0708
     43 H7          5.3428   10.7672   -5.8440 H         1 <0>         0.0712
     44 H8          3.9320    8.4343   -5.9068 H         1 <0>         0.1779
     45 H9          3.2505    4.7783   -5.9353 H         1 <0>         0.0999
     46 H10         4.4791    4.6212   -4.6376 H         1 <0>         0.0997
     47 H11         0.9746    3.6714   -1.7444 H         1 <0>         0.0689
     48 H12         0.2732    5.0731   -2.5879 H         1 <0>         0.0799
     49 H13         1.8056    3.4292    0.3458 H         1 <0>         0.1268
     50 H14         1.4647    1.0648    0.9430 H         1 <0>         0.1234
     51 H15        -0.8114    0.2081    1.3285 H         1 <0>         0.1225
     52 H16        -2.7473    1.7135    1.1073 H         1 <0>         0.1235
     53 H17        -2.4058    4.0801    0.5193 H         1 <0>         0.1243
     54 H18        -1.3573    4.0752   -1.9747 H         1 <0>         0.1215
     55 H19        -3.2880    4.8737   -3.2779 H         1 <0>         0.1227
     56 H20        -4.2540    7.0908   -2.8146 H         1 <0>         0.1220
     57 H21        -3.2951    8.5056   -1.0420 H         1 <0>         0.1226
     58 H22        -1.3703    7.7032    0.2673 H         1 <0>         0.1255
     59 H23        -1.2050    4.8856    2.4388 H         1 <0>         0.1240
     60 H24        -0.9851    6.2232    4.4945 H         1 <0>         0.1230
     61 H25         0.3910    8.2651    4.4935 H         1 <0>         0.1220
     62 H26         1.5549    8.9644    2.4393 H         1 <0>         0.1230
     63 H27         1.3425    7.6217    0.3862 H         1 <0>         0.1296
     64 H28         1.1180    3.5552   -5.4484 H         1 <0>         0.3843
@<TRIPOS>BOND
     1    1    2 1
     2    1   41 1
     3    1   42 1
     4    1   43 1
     5    2    9 1
     6    2    3 2
     7    3    4 1
     8    3   44 1
     9    4    5 am
    10    4   11 1
    11    5    6 2
    12    5    7 am
    13    7    8 1
    14    7    9 am
    15    9   10 2
    16   11   12 1
    17   11   18 1
    18   11   13 1
    19   13   14 1
    20   13   45 1
    21   13   46 1
    22   14   15 1
    23   14   16 1
    24   14   40 1
    25   16   17 1
    26   16   18 1
    27   16   19 1
    28   19   20 1
    29   19   47 1
    30   19   48 1
    31   20   21 1
    32   21   22 1
    33   21   28 1
    34   21   34 1
    35   22   27 ar
    36   22   23 ar
    37   23   24 ar
    38   23   49 1
    39   24   25 ar
    40   24   50 1
    41   25   26 ar
    42   25   51 1
    43   26   27 ar
    44   26   52 1
    45   27   53 1
    46   28   33 ar
    47   28   29 ar
    48   29   30 ar
    49   29   54 1
    50   30   31 ar
    51   30   55 1
    52   31   32 ar
    53   31   56 1
    54   32   33 ar
    55   32   57 1
    56   33   58 1
    57   34   39 ar
    58   34   35 ar
    59   35   36 ar
    60   35   59 1
    61   36   37 ar
    62   36   60 1
    63   37   38 ar
    64   37   61 1
    65   38   39 ar
    66   38   62 1
    67   39   63 1
    68   40   64 1
@<TRIPOS>MOLECULE
ZINC04886884
   64    68     0     0     0
SMALL
USER_CHARGES
1-[4-hydroxy-5-(trityloxymethyl)tetrahydrofuran-2-yl]-5-methyl-pyrimidine-2,4-dione
@<TRIPOS>ATOM
      1 C1          1.7689    4.6159   -1.0362 C.3       1 <0>        -0.0836
      2 C2          1.7901    3.2576   -1.6885 C.2       1 <0>        -0.2639
      3 C3          2.9228    2.5228   -1.7020 C.2       1 <0>         0.1768
      4 N1          2.9246    1.2914   -2.2987 N.am      1 <0>        -0.5310
      5 C4          1.8086    0.8064   -2.8728 C.2       1 <0>         0.7034
      6 O1          1.8326   -0.2898   -3.3981 O.2       1 <0>        -0.5372
      7 N2          0.6660    1.5179   -2.8741 N.am      1 <0>        -0.6604
      8 H1         -0.1542    1.1421   -3.3054 H         1 <0>         0.4395
      9 C5          0.6229    2.7354   -2.2962 C.2       1 <0>         0.5535
     10 O2         -0.4091    3.3819   -2.3013 O.2       1 <0>        -0.5088
     11 C6          4.1533    0.4938   -2.3130 C.3       1 <0>         0.3132
     12 H2          4.4500    0.2664   -3.3369 H         1 <0>         0.1148
     13 C7          3.9684   -0.8083   -1.4927 C.3       1 <0>        -0.1921
     14 C8          5.4248   -1.1500   -1.0942 C.3       1 <0>         0.0812
     15 H3          5.4649   -1.5070   -0.0651 H         1 <0>         0.0844
     16 C9          6.1776    0.1877   -1.2307 C.3       1 <0>         0.0975
     17 H4          6.9509    0.1040   -1.9943 H         1 <0>         0.1027
     18 O3          5.2146    1.1824   -1.6172 O.3       1 <0>        -0.3566
     19 C10         6.8094    0.5683    0.1097 C.3       1 <0>         0.0522
     20 O4          7.5871    1.7564   -0.0505 O.3       1 <0>        -0.3478
     21 C11         8.2240    2.2004    1.1492 C.3       1 <0>         0.2523
     22 C12         7.1786    2.4910    2.1950 C.ar      1 <0>        -0.1154
     23 C13         6.9326    1.5741    3.1999 C.ar      1 <0>        -0.1075
     24 C14         5.9768    1.8426    4.1617 C.ar      1 <0>        -0.1243
     25 C15         5.2601    3.0237    4.1131 C.ar      1 <0>        -0.1087
     26 C16         5.5027    3.9384    3.1054 C.ar      1 <0>        -0.1229
     27 C17         6.4616    3.6718    2.1461 C.ar      1 <0>        -0.0845
     28 C18         9.1527    1.1254    1.6523 C.ar      1 <0>        -0.1105
     29 C19         9.6356    1.1794    2.9465 C.ar      1 <0>        -0.0983
     30 C20        10.4839    0.1910    3.4094 C.ar      1 <0>        -0.1209
     31 C21        10.8570   -0.8462    2.5752 C.ar      1 <0>        -0.1132
     32 C22        10.3779   -0.8976    1.2795 C.ar      1 <0>        -0.1193
     33 C23         9.5261    0.0885    0.8180 C.ar      1 <0>        -0.1085
     34 C24         9.0124    3.4529    0.8654 C.ar      1 <0>        -0.0714
     35 C25         9.1874    4.3992    1.8578 C.ar      1 <0>        -0.1018
     36 C26         9.9144    5.5461    1.5988 C.ar      1 <0>        -0.1219
     37 C27        10.4582    5.7512    0.3446 C.ar      1 <0>        -0.1133
     38 C28        10.2791    4.8072   -0.6492 C.ar      1 <0>        -0.1225
     39 C29         9.5559    3.6582   -0.3890 C.ar      1 <0>        -0.0876
     40 O5          5.9734   -2.1257   -1.9825 O.3       1 <0>        -0.5529
     41 H5          0.7726    5.0481   -1.1291 H         1 <0>         0.0804
     42 H6          2.0249    4.5164    0.0187 H         1 <0>         0.0700
     43 H7          2.4940    5.2657   -1.5263 H         1 <0>         0.0709
     44 H8          3.8231    2.9051   -1.2441 H         1 <0>         0.1846
     45 H9          3.3556   -0.6279   -0.6096 H         1 <0>         0.0925
     46 H10         3.5381   -1.5981   -2.1084 H         1 <0>         0.1112
     47 H11         6.0239    0.7447    0.8446 H         1 <0>         0.0655
     48 H12         7.4517   -0.2430    0.4521 H         1 <0>         0.0824
     49 H13         7.4897    0.6495    3.2355 H         1 <0>         0.1267
     50 H14         5.7875    1.1282    4.9491 H         1 <0>         0.1227
     51 H15         4.5109    3.2320    4.8626 H         1 <0>         0.1227
     52 H16         4.9428    4.8612    3.0674 H         1 <0>         0.1248
     53 H17         6.6509    4.3863    1.3586 H         1 <0>         0.1257
     54 H18         9.3474    1.9919    3.5969 H         1 <0>         0.1232
     55 H19        10.8580    0.2310    4.4218 H         1 <0>         0.1242
     56 H20        11.5225   -1.6166    2.9358 H         1 <0>         0.1233
     57 H21        10.6693   -1.7079    0.6278 H         1 <0>         0.1248
     58 H22         9.1520    0.0485   -0.1944 H         1 <0>         0.1299
     59 H23         8.7591    4.2408    2.8365 H         1 <0>         0.1225
     60 H24        10.0545    6.2835    2.3753 H         1 <0>         0.1234
     61 H25        11.0233    6.6488    0.1412 H         1 <0>         0.1222
     62 H26        10.7040    4.9674   -1.6291 H         1 <0>         0.1234
     63 H27         9.4157    2.9209   -1.1655 H         1 <0>         0.1278
     64 H28         5.5370   -2.9874   -1.9382 H         1 <0>         0.3906
@<TRIPOS>BOND
     1    1    2 1
     2    1   41 1
     3    1   42 1
     4    1   43 1
     5    2    9 1
     6    2    3 2
     7    3    4 1
     8    3   44 1
     9    4    5 am
    10    4   11 1
    11    5    6 2
    12    5    7 am
    13    7    8 1
    14    7    9 am
    15    9   10 2
    16   11   12 1
    17   11   18 1
    18   11   13 1
    19   13   14 1
    20   13   45 1
    21   13   46 1
    22   14   15 1
    23   14   16 1
    24   14   40 1
    25   16   17 1
    26   16   18 1
    27   16   19 1
    28   19   20 1
    29   19   47 1
    30   19   48 1
    31   20   21 1
    32   21   22 1
    33   21   28 1
    34   21   34 1
    35   22   27 ar
    36   22   23 ar
    37   23   24 ar
    38   23   49 1
    39   24   25 ar
    40   24   50 1
    41   25   26 ar
    42   25   51 1
    43   26   27 ar
    44   26   52 1
    45   27   53 1
    46   28   33 ar
    47   28   29 ar
    48   29   30 ar
    49   29   54 1
    50   30   31 ar
    51   30   55 1
    52   31   32 ar
    53   31   56 1
    54   32   33 ar
    55   32   57 1
    56   33   58 1
    57   34   39 ar
    58   34   35 ar
    59   35   36 ar
    60   35   59 1
    61   36   37 ar
    62   36   60 1
    63   37   38 ar
    64   37   61 1
    65   38   39 ar
    66   38   62 1
    67   39   63 1
    68   40   64 1
@<TRIPOS>MOLECULE
ZINC04886886
   64    68     0     0     0
SMALL
USER_CHARGES
1-[4-hydroxy-5-(trityloxymethyl)tetrahydrofuran-2-yl]-5-methyl-pyrimidine-2,4-dione
@<TRIPOS>ATOM
      1 C1         -1.6500  -10.1256   -4.5570 C.3       1 <0>        -0.0815
      2 C2         -2.2343   -8.9349   -3.8415 C.2       1 <0>        -0.2548
      3 C3         -1.6600   -7.7183   -3.9563 C.2       1 <0>         0.1648
      4 N1         -2.2038   -6.6477   -3.3002 N.am      1 <0>        -0.5298
      5 C4         -3.3023   -6.7970   -2.5378 C.2       1 <0>         0.6959
      6 O1         -3.7662   -5.8331   -1.9598 O.2       1 <0>        -0.5167
      7 N2         -3.8979   -7.9972   -2.4101 N.am      1 <0>        -0.6638
      8 H1         -4.7182   -8.0885   -1.8455 H         1 <0>         0.4380
      9 C5         -3.3929   -9.0770   -3.0404 C.2       1 <0>         0.5534
     10 O2         -3.9282  -10.1643   -2.9214 O.2       1 <0>        -0.5093
     11 C6         -1.5806   -5.3277   -3.4243 C.3       1 <0>         0.3056
     12 H2         -0.6372   -5.4047   -3.9649 H         1 <0>         0.1203
     13 C7         -2.5371   -4.3473   -4.1487 C.3       1 <0>        -0.1998
     14 C8         -2.0212   -2.9833   -3.6143 C.3       1 <0>         0.0872
     15 H3         -1.1716   -2.6304   -4.1989 H         1 <0>         0.0822
     16 C9         -1.5888   -3.3376   -2.1753 C.3       1 <0>         0.1020
     17 H4         -2.3762   -3.0615   -1.4740 H         1 <0>         0.1084
     18 O3         -1.3657   -4.7516   -2.1261 O.3       1 <0>        -0.3466
     19 C10        -0.2975   -2.5958   -1.8239 C.3       1 <0>         0.0431
     20 O4          0.0327   -2.8368   -0.4546 O.3       1 <0>        -0.3456
     21 C11         1.2289   -2.1857   -0.0219 C.3       1 <0>         0.2499
     22 C12         1.0777   -0.6955   -0.1873 C.ar      1 <0>        -0.1158
     23 C13         0.4250    0.0447    0.7807 C.ar      1 <0>        -0.0871
     24 C14         0.2863    1.4117    0.6290 C.ar      1 <0>        -0.1229
     25 C15         0.8007    2.0386   -0.4905 C.ar      1 <0>        -0.1089
     26 C16         1.4534    1.2984   -1.4585 C.ar      1 <0>        -0.1242
     27 C17         1.5921   -0.0686   -1.3068 C.ar      1 <0>        -0.1054
     28 C18         2.3913   -2.6678   -0.8511 C.ar      1 <0>        -0.1075
     29 C19         3.5752   -1.9543   -0.8623 C.ar      1 <0>        -0.0979
     30 C20         4.6429   -2.3989   -1.6195 C.ar      1 <0>        -0.1217
     31 C21         4.5235   -3.5517   -2.3729 C.ar      1 <0>        -0.1140
     32 C22         3.3379   -4.2625   -2.3654 C.ar      1 <0>        -0.1225
     33 C23         2.2716   -3.8203   -1.6049 C.ar      1 <0>        -0.1070
     34 C24         1.4792   -2.5073    1.4289 C.ar      1 <0>        -0.0721
     35 C25         2.1391   -1.5982    2.2345 C.ar      1 <0>        -0.1029
     36 C26         2.3649   -1.8913    3.5664 C.ar      1 <0>        -0.1230
     37 C27         1.9391   -3.0976    4.0904 C.ar      1 <0>        -0.1137
     38 C28         1.2835   -4.0087    3.2837 C.ar      1 <0>        -0.1229
     39 C29         1.0539   -3.7137    1.9528 C.ar      1 <0>        -0.0866
     40 O5         -3.0687   -2.0114   -3.6059 O.3       1 <0>        -0.5451
     41 H5         -0.9191  -10.6141   -3.9126 H         1 <0>         0.0721
     42 H6         -2.4459  -10.8289   -4.8019 H         1 <0>         0.0777
     43 H7         -1.1623   -9.7951   -5.4741 H         1 <0>         0.0707
     44 H8         -0.7759   -7.5907   -4.5633 H         1 <0>         0.1783
     45 H9         -3.5723   -4.5185   -3.8538 H         1 <0>         0.1081
     46 H10        -2.4225   -4.4141   -5.2306 H         1 <0>         0.0980
     47 H11        -0.4386   -1.5265   -1.9809 H         1 <0>         0.0715
     48 H12         0.5115   -2.9530   -2.4610 H         1 <0>         0.0669
     49 H13         0.0231   -0.4451    1.6554 H         1 <0>         0.1261
     50 H14        -0.2279    1.9892    1.3830 H         1 <0>         0.1245
     51 H15         0.6924    3.1066   -0.6090 H         1 <0>         0.1231
     52 H16         1.8559    1.7883   -2.3328 H         1 <0>         0.1232
     53 H17         2.1026   -0.6467   -2.0628 H         1 <0>         0.1249
     54 H18         3.6672   -1.0514   -0.2769 H         1 <0>         0.1225
     55 H19         5.5693   -1.8437   -1.6250 H         1 <0>         0.1235
     56 H20         5.3565   -3.8972   -2.9671 H         1 <0>         0.1224
     57 H21         3.2446   -5.1632   -2.9541 H         1 <0>         0.1225
     58 H22         1.3453   -4.3755   -1.5993 H         1 <0>         0.1343
     59 H23         2.4754   -0.6575    1.8241 H         1 <0>         0.1230
     60 H24         2.8769   -1.1793    4.1968 H         1 <0>         0.1234
     61 H25         2.1185   -3.3280    5.1302 H         1 <0>         0.1221
     62 H26         0.9508   -4.9511    3.6931 H         1 <0>         0.1231
     63 H27         0.5419   -4.4257    1.3225 H         1 <0>         0.1289
     64 H28        -3.3752   -1.7558   -4.4867 H         1 <0>         0.3876
@<TRIPOS>BOND
     1    1    2 1
     2    1   41 1
     3    1   42 1
     4    1   43 1
     5    2    9 1
     6    2    3 2
     7    3    4 1
     8    3   44 1
     9    4    5 am
    10    4   11 1
    11    5    6 2
    12    5    7 am
    13    7    8 1
    14    7    9 am
    15    9   10 2
    16   11   12 1
    17   11   18 1
    18   11   13 1
    19   13   14 1
    20   13   45 1
    21   13   46 1
    22   14   15 1
    23   14   16 1
    24   14   40 1
    25   16   17 1
    26   16   18 1
    27   16   19 1
    28   19   20 1
    29   19   47 1
    30   19   48 1
    31   20   21 1
    32   21   22 1
    33   21   28 1
    34   21   34 1
    35   22   27 ar
    36   22   23 ar
    37   23   24 ar
    38   23   49 1
    39   24   25 ar
    40   24   50 1
    41   25   26 ar
    42   25   51 1
    43   26   27 ar
    44   26   52 1
    45   27   53 1
    46   28   33 ar
    47   28   29 ar
    48   29   30 ar
    49   29   54 1
    50   30   31 ar
    51   30   55 1
    52   31   32 ar
    53   31   56 1
    54   32   33 ar
    55   32   57 1
    56   33   58 1
    57   34   39 ar
    58   34   35 ar
    59   35   36 ar
    60   35   59 1
    61   36   37 ar
    62   36   60 1
    63   37   38 ar
    64   37   61 1
    65   38   39 ar
    66   38   62 1
    67   39   63 1
    68   40   64 1
@<TRIPOS>MOLECULE
ZINC00006228
   31    32     0     0     0
SMALL
USER_CHARGES
1-[3-fluoro-4-hydroxy-5-(hydroxymethyl)tetrahydrofuran-2-yl]-5-methyl-pyrimidine-2,4-dione
@<TRIPOS>ATOM
      1 C1         -2.7613    0.1843    4.0006 C.3       1 <0>        -0.0863
      2 C2         -2.0520    1.1459    3.0823 C.2       1 <0>        -0.2503
      3 C3         -1.3847    0.6921    1.9997 C.2       1 <0>         0.1620
      4 N1         -0.7415    1.5786    1.1795 N.am      1 <0>        -0.5282
      5 C4         -0.7766    2.8989    1.4356 C.2       1 <0>         0.7005
      6 O1         -0.2020    3.6694    0.6910 O.2       1 <0>        -0.5088
      7 N2         -1.4394    3.3789    2.5042 N.am      1 <0>        -0.6622
      8 H1         -1.4558    4.3634    2.6791 H         1 <0>         0.4386
      9 C5         -2.0814    2.5377    3.3399 C.2       1 <0>         0.5540
     10 O2         -2.6806    2.9711    4.3075 O.2       1 <0>        -0.5086
     11 C6         -0.0127    1.0858    0.0080 C.3       1 <0>         0.2818
     12 H2          0.0021   -0.0041    0.0020 H         1 <0>         0.1338
     13 C7         -0.6531    1.6221   -1.2915 C.3       1 <0>         0.0225
     14 H3         -1.3121    0.8728   -1.7300 H         1 <0>         0.1193
     15 C8          0.5519    1.8931   -2.2198 C.3       1 <0>         0.0591
     16 H4          0.6026    2.9492   -2.4848 H         1 <0>         0.0988
     17 C9          1.7778    1.4885   -1.3714 C.3       1 <0>         0.0930
     18 H5          2.0690    0.4608   -1.5884 H         1 <0>         0.1014
     19 O3          1.3342    1.6070   -0.0021 O.3       1 <0>        -0.3364
     20 C10         2.9465    2.4396   -1.6368 C.3       1 <0>         0.0857
     21 O4          4.0819    2.0230   -0.8757 O.3       1 <0>        -0.5650
     22 O5          0.4689    1.0864   -3.3964 O.3       1 <0>        -0.5461
     23 F1         -1.3543    2.8063   -1.0399 F         1 <0>        -0.1769
     24 H6         -3.2413    0.7389    4.8069 H         1 <0>         0.0823
     25 H7         -3.5160   -0.3654    3.4382 H         1 <0>         0.0721
     26 H8         -2.0395   -0.5161    4.4209 H         1 <0>         0.0726
     27 H9         -1.3550   -0.3658    1.7848 H         1 <0>         0.1800
     28 H10         3.1946    2.4231   -2.6981 H         1 <0>         0.0706
     29 H11         2.6650    3.4514   -1.3452 H         1 <0>         0.0620
     30 H12         4.8620    2.5818   -0.9951 H         1 <0>         0.3864
     31 H13        -0.2832    1.2980   -3.9661 H         1 <0>         0.3922
@<TRIPOS>BOND
     1    1    2 1
     2    1   24 1
     3    1   25 1
     4    1   26 1
     5    2    9 1
     6    2    3 2
     7    3    4 1
     8    3   27 1
     9    4    5 am
    10    4   11 1
    11    5    6 2
    12    5    7 am
    13    7    8 1
    14    7    9 am
    15    9   10 2
    16   11   12 1
    17   11   19 1
    18   11   13 1
    19   13   14 1
    20   13   15 1
    21   13   23 1
    22   15   16 1
    23   15   17 1
    24   15   22 1
    25   17   18 1
    26   17   19 1
    27   17   20 1
    28   20   21 1
    29   20   28 1
    30   20   29 1
    31   21   30 1
    32   22   31 1
@<TRIPOS>MOLECULE
ZINC00025672
   31    32     0     0     0
SMALL
USER_CHARGES

@<TRIPOS>ATOM
      1 C1         -0.0184    1.5028    0.0103 C.3       1 <0>        -0.0863
      2 C2          0.0021   -0.0041    0.0020 C.2       1 <0>        -0.2538
      3 C3         -1.1526   -0.7039    0.0037 C.2       1 <0>         0.1657
      4 N1         -1.1160   -2.0718   -0.0039 N.am      1 <0>        -0.5281
      5 C4          0.0598   -2.7257   -0.0125 C.2       1 <0>         0.6976
      6 O1          0.0693   -3.9416   -0.0187 O.2       1 <0>        -0.5208
      7 N2          1.2256   -2.0531   -0.0148 N.am      1 <0>        -0.6597
      8 H1          2.0644   -2.5402   -0.0217 H         1 <0>         0.4318
      9 C5          1.2322   -0.7047   -0.0135 C.2       1 <0>         0.5530
     10 O2          2.2865   -0.0953   -0.0208 O.2       1 <0>        -0.5075
     11 C6         -2.3687   -2.8312   -0.0021 C.3       1 <0>         0.3043
     12 H2         -3.2193   -2.1584    0.1071 H         1 <0>         0.1201
     13 C7         -2.4992   -3.6565   -1.3014 C.3       1 <0>        -0.1941
     14 C8         -3.1605   -4.9757   -0.8435 C.3       1 <0>         0.0849
     15 H3         -2.5046   -5.8223   -1.0463 H         1 <0>         0.0837
     16 C9         -3.3514   -4.7913    0.6783 C.3       1 <0>         0.0921
     17 H4         -4.3537   -4.4206    0.8929 H         1 <0>         0.0953
     18 O3         -2.3620   -3.8096    1.0602 O.3       1 <0>        -0.3458
     19 C10        -3.1055   -6.1124    1.4099 C.3       1 <0>         0.0848
     20 O4         -3.3996   -5.9498    2.7988 O.3       1 <0>        -0.5667
     21 O5         -4.4217   -5.1546   -1.4911 O.3       1 <0>        -0.5561
     22 H5          1.0042    1.8801    0.0026 H         1 <0>         0.0818
     23 H6         -0.5455    1.8639   -0.8728 H         1 <0>         0.0721
     24 H7         -0.5286    1.8543    0.9071 H         1 <0>         0.0725
     25 H8         -2.1006   -0.1866    0.0113 H         1 <0>         0.1802
     26 H9         -3.1353   -3.1397   -2.0199 H         1 <0>         0.1001
     27 H10        -1.5163   -3.8510   -1.7306 H         1 <0>         0.0968
     28 H11        -3.7492   -6.8855    0.9903 H         1 <0>         0.0684
     29 H12        -2.0621   -6.4046    1.2913 H         1 <0>         0.0606
     30 H13        -3.2657   -6.7496    3.3255 H         1 <0>         0.3849
     31 H14        -4.3640   -5.2163   -2.4544 H         1 <0>         0.3883
@<TRIPOS>BOND
     1    1    2 1
     2    1   22 1
     3    1   23 1
     4    1   24 1
     5    2    9 1
     6    2    3 2
     7    3    4 1
     8    3   25 1
     9    4    5 am
    10    4   11 1
    11    5    6 2
    12    5    7 am
    13    7    8 1
    14    7    9 am
    15    9   10 2
    16   11   12 1
    17   11   18 1
    18   11   13 1
    19   13   14 1
    20   13   26 1
    21   13   27 1
    22   14   15 1
    23   14   16 1
    24   14   21 1
    25   16   17 1
    26   16   18 1
    27   16   19 1
    28   19   20 1
    29   19   28 1
    30   19   29 1
    31   20   30 1
    32   21   31 1
@<TRIPOS>MOLECULE
ZINC03834173
   28    29     0     0     0
SMALL
USER_CHARGES

@<TRIPOS>ATOM
      1 C1         -0.0165    1.3646    0.0095 C.2       1 <0>         0.2265
      2 C2          1.1476    2.0491    0.0021 C.2       1 <0>        -0.2908
      3 C3          2.3685    1.3317   -0.0134 C.2       1 <0>         0.5621
      4 O1          3.4310    1.9268   -0.0200 O.2       1 <0>        -0.4882
      5 N1          2.3437   -0.0164   -0.0204 N.am      1 <0>        -0.6538
      6 H1          3.1758   -0.5148   -0.0310 H         1 <0>         0.4363
      7 C4          1.1690   -0.6735   -0.0123 C.2       1 <0>         0.6992
      8 O2          1.1624   -1.8894   -0.0183 O.2       1 <0>        -0.5092
      9 N2          0.0021   -0.0041    0.0020 N.am      1 <0>        -0.5248
     10 C5         -1.2606   -0.7469    0.0106 C.3       1 <0>         0.3015
     11 H2         -2.1016   -0.0630    0.1241 H         1 <0>         0.1235
     12 C6         -1.4087   -1.5706   -1.2879 C.3       1 <0>        -0.1948
     13 C7         -2.0850   -2.8809   -0.8263 C.3       1 <0>         0.0854
     14 H3         -1.4414   -3.7361   -1.0325 H         1 <0>         0.0848
     15 C8         -2.2655   -2.6939    0.6965 C.3       1 <0>         0.0918
     16 H4         -3.2616   -2.3099    0.9163 H         1 <0>         0.0969
     17 O3         -1.2611   -1.7253    1.0730 O.3       1 <0>        -0.3443
     18 C9         -2.0330   -4.0180    1.4270 C.3       1 <0>         0.0848
     19 O4         -2.3177   -3.8513    2.8174 O.3       1 <0>        -0.5666
     20 O5         -3.3519   -3.0432   -1.4672 O.3       1 <0>        -0.5553
     21 I1          1.1474    4.1441    0.0127 I         1 <0>         0.0441
     22 H5         -0.9574    1.8944    0.0259 H         1 <0>         0.1861
     23 H6         -2.0418   -1.0454   -2.0031 H         1 <0>         0.1025
     24 H7         -0.4308   -1.7780   -1.7223 H         1 <0>         0.0979
     25 H8         -2.6891   -4.7825    1.0109 H         1 <0>         0.0692
     26 H9         -0.9942   -4.3239    1.3029 H         1 <0>         0.0608
     27 H10        -2.1915   -4.6528    3.3435 H         1 <0>         0.3855
     28 H11        -3.3001   -3.1057   -2.4307 H         1 <0>         0.3889
@<TRIPOS>BOND
     1    1    9 1
     2    1    2 2
     3    1   22 1
     4    2    3 1
     5    2   21 1
     6    3    4 2
     7    3    5 am
     8    5    6 1
     9    5    7 am
    10    7    8 2
    11    7    9 am
    12    9   10 1
    13   10   11 1
    14   10   17 1
    15   10   12 1
    16   12   13 1
    17   12   23 1
    18   12   24 1
    19   13   14 1
    20   13   15 1
    21   13   20 1
    22   15   16 1
    23   15   17 1
    24   15   18 1
    25   18   19 1
    26   18   25 1
    27   18   26 1
    28   19   27 1
    29   20   28 1
