@<TRIPOS>MOLECULE
ZINC03778392
   49    52     0     0     0
SMALL
USER_CHARGES
(6-amidino-2-naphthyl) 4-(4,5-dihydro-1H-imidazol-2-ylamino)benzoate
@<TRIPOS>ATOM
      1 C1          6.7793    2.0604   -3.5073 C.ar      1 <0>        -0.0034
      2 C2          5.8742    1.0705   -3.8148 C.ar      1 <0>        -0.1339
      3 C3          4.5223    1.3764   -3.9418 C.ar      1 <0>         0.1718
      4 C4          4.0818    2.6848   -3.7646 C.ar      1 <0>        -0.2022
      5 C5          4.9807    3.6788   -3.4517 C.ar      1 <0>        -0.0129
      6 C6          6.3396    3.3750   -3.3228 C.ar      1 <0>        -0.1277
      7 C7          7.3062    4.4380   -2.9929 C.2       1 <0>         0.5084
      8 O1          8.4867    4.1723   -2.8808 O.2       1 <0>        -0.4673
      9 O2          6.8806    5.7044   -2.8154 O.3       1 <0>        -0.2880
     10 C8          7.8330    6.6536   -2.6208 C.ar      1 <0>         0.1249
     11 C9          8.7272    6.9579   -3.6527 C.ar      1 <0>        -0.1157
     12 C10         9.6870    7.9062   -3.4875 C.ar      1 <0>        -0.0687
     13 C11         9.7953    8.5880   -2.2616 C.ar      1 <0>        -0.0652
     14 C12        10.7803    9.5671   -2.0639 C.ar      1 <0>        -0.0147
     15 C13        10.8590   10.2182   -0.8453 C.ar      1 <0>        -0.1474
     16 C14         9.9619    9.9055    0.1908 C.ar      1 <0>        -0.0859
     17 C15         9.0024    8.9609    0.0189 C.ar      1 <0>        -0.0780
     18 C16         8.8958    8.2811   -1.2087 C.ar      1 <0>        -0.0006
     19 C17         7.9109    7.3008   -1.4087 C.ar      1 <0>        -0.1097
     20 C18        11.8957   11.2522   -0.6314 C.cat     1 <0>         0.5982
     21 N1         11.9791   11.9041    0.5800 N.pl3     1 <0>        -0.7768
     22 N2          3.6088    0.3718   -4.2528 N.pl3     1 <0>        -0.6321
     23 C19         2.2925    0.4944   -3.8666 C.cat     1 <0>         0.7162
     24 C20         0.4249    1.3158   -2.8800 C.3       1 <0>         0.0664
     25 C21         0.0419    0.0445   -3.6635 C.3       1 <0>         0.0824
     26 N3          1.3220   -0.3920   -4.2458 N.pl3     1 <0>        -0.6815
     27 H1          7.8281    1.8222   -3.4082 H         1 <0>         0.1607
     28 H2          6.2131    0.0551   -3.9574 H         1 <0>         0.1561
     29 H3          3.0327    2.9194   -3.8682 H         1 <0>         0.1479
     30 H4          4.6377    4.6929   -3.3100 H         1 <0>         0.1591
     31 H5          8.6515    6.4350   -4.5945 H         1 <0>         0.1417
     32 H6         10.3676    8.1332   -4.2947 H         1 <0>         0.1498
     33 H7         11.4717    9.8113   -2.8569 H         1 <0>         0.1444
     34 H8         10.0376   10.4230    1.1356 H         1 <0>         0.1399
     35 H9          8.3201    8.7317    0.8240 H         1 <0>         0.1525
     36 H10         7.2186    7.0565   -0.6166 H         1 <0>         0.1524
     37 H11        13.4438   12.2095   -1.5444 H         1 <0>         0.4467
     38 H12        11.3583   11.6850    1.2924 H         1 <0>         0.4437
     39 H13        12.6586   12.5819    0.7203 H         1 <0>         0.4329
     40 H14         3.8998   -0.4140   -4.7413 H         1 <0>         0.4478
     41 H15         0.2217    1.1897   -1.8165 H         1 <0>         0.1269
     42 H16        -0.1123    2.1799   -3.2707 H         1 <0>         0.1273
     43 H17        -0.6784    0.2763   -4.4480 H         1 <0>         0.1239
     44 H18        -0.3531   -0.7157   -2.9897 H         1 <0>         0.1231
     45 H19         1.4538   -1.1726   -4.8063 H         1 <0>         0.4568
     46 N4         12.7126   11.5050   -1.6430 N.pl3     1 <0>        -0.7603
     47 H20        12.6098   10.9919   -2.5264 H         1 <0>         0.4588
     48 N5          1.8710    1.4602   -3.1139 N.pl3     1 <0>        -0.6593
     49 H21         2.4576    2.2137   -2.7367 H         1 <0>         0.4710
@<TRIPOS>BOND
     1    1    6 ar
     2    1    2 ar
     3    1   27 1
     4    2    3 ar
     5    2   28 1
     6    3    4 ar
     7    3   22 1
     8    4    5 ar
     9    4   29 1
    10    5    6 ar
    11    5   30 1
    12    6    7 1
    13    7    8 2
    14    7    9 1
    15    9   10 1
    16   10   19 ar
    17   10   11 ar
    18   11   12 ar
    19   11   31 1
    20   12   13 ar
    21   12   32 1
    22   13   18 ar
    23   13   14 ar
    24   14   15 ar
    25   14   33 1
    26   15   16 ar
    27   15   20 1
    28   16   17 ar
    29   16   34 1
    30   17   18 ar
    31   17   35 1
    32   18   19 ar
    33   19   36 1
    34   20   21 1
    35   20   46 2
    36   21   38 1
    37   21   39 1
    38   22   23 1
    39   22   40 1
    40   23   26 1
    41   23   48 2
    42   24   25 1
    43   24   41 1
    44   24   42 1
    45   24   48 1
    46   25   26 1
    47   25   43 1
    48   25   44 1
    49   26   45 1
    50   37   46 1
    51   46   47 1
    52   48   49 1
@<TRIPOS>MOLECULE
ZINC12730092
   40    42     0     0     0
SMALL
USER_CHARGES

@<TRIPOS>ATOM
      1 C1         -0.1559    1.3274   -0.0876 C.3       1 <0>        -0.1450
      2 C2          0.8407    0.2241    0.1587 C.2       1 <0>         0.0907
      3 C3          1.7249   -0.1668   -0.8393 C.2       1 <0>        -0.1383
      4 C4          2.6830   -1.2412   -0.5747 C.2       1 <0>         0.5741
      5 O1          3.4584   -1.5846   -1.4484 O.2       1 <0>        -0.4886
      6 N1          2.7172   -1.8530    0.6220 N.am      1 <0>        -0.6595
      7 C5          1.8766   -1.5017    1.6116 C.2       1 <0>         0.5605
      8 O2          1.9315   -2.0745    2.6841 O.2       1 <0>        -0.4790
      9 C6          0.8972   -0.4268    1.4074 C.2       1 <0>        -0.2034
     10 C7          0.0260   -0.0564    2.4396 C.2       1 <0>         0.1119
     11 C8         -0.0448   -0.8254    3.6034 C.2       1 <0>        -0.0345
     12 C9         -0.1491   -0.3345    4.9030 C.2       1 <0>        -0.1190
     13 C10        -0.1901   -1.4388    5.7470 C.2       1 <0>        -0.1921
     14 C11        -0.1105   -2.5639    4.9480 C.2       1 <0>         0.0702
     15 O3         -0.0298   -2.1751    3.6645 O.3       1 <0>        -0.1142
     16 C12        -0.1192   -3.9595    5.4247 C.ar      1 <0>         0.0321
     17 C13        -0.2198   -4.2341    6.7915 C.ar      1 <0>        -0.1134
     18 C14        -0.2273   -5.5416    7.2298 C.ar      1 <0>        -0.0181
     19 C15        -0.1349   -6.5805    6.3201 C.ar      1 <0>        -0.6701
     20 C16        -0.0350   -6.3164    4.9652 C.ar      1 <0>        -0.0131
     21 C17        -0.0326   -5.0141    4.5115 C.ar      1 <0>        -0.1137
     22 S1         -0.1441   -8.2479    6.8897 S.o2      1 <0>         2.7017
     23 O4          0.5024   -9.0225    5.8891 O.2       1 <0>        -0.9588
     24 O5          0.3034   -8.2188    8.2381 O.2       1 <0>        -0.9568
     25 N2         -1.7235   -8.7443    6.9258 N.pl3     1 <0>        -1.2471
     26 C18         1.6986    0.4768   -2.1182 C.1       1 <0>         0.2679
     27 N3          1.6778    0.9874   -3.1328 N.1       1 <0>        -0.3945
     28 H1          0.2885    2.2853    0.1827 H         1 <0>         0.1053
     29 H2         -0.4315    1.3394   -1.1421 H         1 <0>         0.0890
     30 H3         -1.0453    1.1555    0.5186 H         1 <0>         0.0910
     31 H4          3.3610   -2.5623    0.7748 H         1 <0>         0.4257
     32 H5         -0.5912    0.8238    2.3357 H         1 <0>         0.1807
     33 H6         -0.1896    0.7036    5.1982 H         1 <0>         0.1680
     34 H7         -0.2689   -1.4209    6.8240 H         1 <0>         0.1638
     35 H8         -0.2912   -3.4244    7.5026 H         1 <0>         0.1432
     36 H9         -0.3050   -5.7554    8.2856 H         1 <0>         0.1521
     37 H10         0.0371   -7.1322    4.2612 H         1 <0>         0.1497
     38 H11         0.0406   -4.8096    3.4535 H         1 <0>         0.1410
     39 H12        -1.9417   -9.6784    6.7815 H         1 <0>         0.4232
     40 H13        -2.4304   -8.1010    7.0912 H         1 <0>         0.4175
@<TRIPOS>BOND
     1    1    2 1
     2    1   28 1
     3    1   29 1
     4    1   30 1
     5    2    9 1
     6    2    3 2
     7    3    4 1
     8    3   26 1
     9    4    5 2
    10    4    6 am
    11    6    7 am
    12    6   31 1
    13    7    8 2
    14    7    9 1
    15    9   10 2
    16   10   11 1
    17   10   32 1
    18   11   15 1
    19   11   12 2
    20   12   13 1
    21   12   33 1
    22   13   14 2
    23   13   34 1
    24   14   15 1
    25   14   16 1
    26   16   21 ar
    27   16   17 ar
    28   17   18 ar
    29   17   35 1
    30   18   19 ar
    31   18   36 1
    32   19   20 ar
    33   19   22 1
    34   20   21 ar
    35   20   37 1
    36   21   38 1
    37   22   23 2
    38   22   24 2
    39   22   25 1
    40   25   39 1
    41   25   40 1
    42   26   27 3
@<TRIPOS>MOLECULE
ZINC00037184
   21    22     0     0     0
SMALL
USER_CHARGES
(4-chloropyrazol-1-yl)-(4-fluorophenyl)methanone
@<TRIPOS>ATOM
      1 C1          3.4315    2.8689    0.1020 C.ar      1 <0>        -0.0430
      2 C2          4.8012    2.7428    0.1858 C.ar      1 <0>        -0.1708
      3 C3          5.5992    3.8724    0.2882 C.ar      1 <0>         0.1427
      4 C4          5.0252    5.1347    0.3001 C.ar      1 <0>        -0.1712
      5 C5          3.6571    5.2733    0.2101 C.ar      1 <0>        -0.0189
      6 C6          2.8478    4.1386    0.1072 C.ar      1 <0>        -0.1703
      7 C7          1.3825    4.2805    0.0105 C.2       1 <0>         0.6053
      8 O1          0.8846    5.3837   -0.0927 O.2       1 <0>        -0.4688
      9 N1          0.5964    3.1861    0.0367 N.am      1 <0>        -0.3666
     10 C8         -0.7663    3.1761    0.0589 C.2       1 <0>         0.1003
     11 C9         -1.1644    1.8846    0.0748 C.2       1 <0>        -0.1675
     12 C10        -0.0169    1.0783    0.0712 C.2       1 <0>         0.1112
     13 N2          1.0338    1.8552    0.0451 N.2       1 <0>        -0.2710
     14 Cl1        -2.8068    1.3228    0.0993 Cl        1 <0>        -0.0162
     15 F1          6.9410    3.7425    0.3763 F         1 <0>        -0.1296
     16 H1          2.8106    1.9883    0.0275 H         1 <0>         0.1838
     17 H2          5.2537    1.7622    0.1767 H         1 <0>         0.1463
     18 H3          5.6516    6.0109    0.3797 H         1 <0>         0.1477
     19 H4          3.2112    6.2570    0.2188 H         1 <0>         0.1481
     20 H5         -1.4109    4.0427    0.0593 H         1 <0>         0.1991
     21 H6         -0.0037   -0.0016    0.0833 H         1 <0>         0.2095
@<TRIPOS>BOND
     1    1    6 ar
     2    1    2 ar
     3    1   16 1
     4    2    3 ar
     5    2   17 1
     6    3    4 ar
     7    3   15 1
     8    4    5 ar
     9    4   18 1
    10    5    6 ar
    11    5   19 1
    12    6    7 1
    13    7    8 2
    14    7    9 am
    15    9   13 1
    16    9   10 1
    17   10   11 2
    18   10   20 1
    19   11   12 1
    20   11   14 1
    21   12   13 2
    22   12   21 1
@<TRIPOS>MOLECULE
ZINC00037188
   24    25     0     0     0
SMALL
USER_CHARGES
(4-bromopyrazol-1-yl)-(p-tolyl)methanone
@<TRIPOS>ATOM
      1 C1          7.0963    3.7277    0.3894 C.3       1 <0>        -0.1242
      2 C2          5.5995    3.8725    0.2902 C.ar      1 <0>        -0.0421
      3 C3          5.0273    5.1323    0.3020 C.ar      1 <0>        -0.1395
      4 C4          3.6581    5.2723    0.2116 C.ar      1 <0>        -0.0445
      5 C5          2.8489    4.1386    0.1082 C.ar      1 <0>        -0.1654
      6 C6          3.4329    2.8699    0.1026 C.ar      1 <0>        -0.0675
      7 C7          4.8039    2.7450    0.1880 C.ar      1 <0>        -0.1395
      8 C8          1.3823    4.2805    0.0115 C.2       1 <0>         0.6018
      9 O1          0.8843    5.3836   -0.0912 O.2       1 <0>        -0.4718
     10 N1          0.5962    3.1860    0.0371 N.am      1 <0>        -0.3660
     11 C9         -0.7663    3.1759    0.0595 C.2       1 <0>         0.1236
     12 C10        -1.1643    1.8845    0.0744 C.2       1 <0>        -0.2249
     13 C11        -0.0168    1.0782    0.0709 C.2       1 <0>         0.1185
     14 N2          1.0337    1.8551    0.0449 N.2       1 <0>        -0.2687
     15 Br1        -2.9533    1.2725    0.1009 Br        1 <0>         0.0050
     16 H1          7.3851    3.6504    1.4376 H         1 <0>         0.0783
     17 H2          7.4103    2.8289   -0.1412 H         1 <0>         0.0723
     18 H3          7.5760    4.5991   -0.0563 H         1 <0>         0.0718
     19 H4          5.6542    6.0081    0.3820 H         1 <0>         0.1333
     20 H5          3.2128    6.2562    0.2202 H         1 <0>         0.1366
     21 H6          2.8127    1.9889    0.0271 H         1 <0>         0.1744
     22 H7          5.2571    1.7647    0.1793 H         1 <0>         0.1319
     23 H8         -1.4109    4.0424    0.0603 H         1 <0>         0.1984
     24 H9         -0.0037   -0.0016    0.0829 H         1 <0>         0.2080
@<TRIPOS>BOND
     1    1    2 1
     2    1   16 1
     3    1   17 1
     4    1   18 1
     5    2    7 ar
     6    2    3 ar
     7    3    4 ar
     8    3   19 1
     9    4    5 ar
    10    4   20 1
    11    5    6 ar
    12    5    8 1
    13    6    7 ar
    14    6   21 1
    15    7   22 1
    16    8    9 2
    17    8   10 am
    18   10   14 1
    19   10   11 1
    20   11   12 2
    21   11   23 1
    22   12   13 1
    23   12   15 1
    24   13   14 2
    25   13   24 1
@<TRIPOS>MOLECULE
ZINC00037156
   21    22     0     0     0
SMALL
USER_CHARGES
(3,4-dichlorophenyl)-pyrazol-1-yl-methanone
@<TRIPOS>ATOM
      1 C1         -0.0148    1.4029    0.0670 C.2       1 <0>        -0.2423
      2 C2          0.0020    0.0012    0.0648 C.2       1 <0>         0.0972
      3 N1          1.2464   -0.3966    0.0307 N.2       1 <0>        -0.2906
      4 N2          2.0695    0.7368    0.0098 N.am      1 <0>        -0.3751
      5 C3          1.2645    1.8353    0.0329 C.2       1 <0>         0.0795
      6 C4          3.4168    0.7398   -0.0266 C.2       1 <0>         0.6044
      7 O1          4.0190    1.7886   -0.1401 O.2       1 <0>        -0.4707
      8 C5          4.1604   -0.5314    0.0714 C.ar      1 <0>        -0.1412
      9 C6          5.5547   -0.5231    0.1636 C.ar      1 <0>        -0.0347
     10 C7          6.2440   -1.7134    0.2549 C.ar      1 <0>        -0.1153
     11 C8          5.5578   -2.9167    0.2554 C.ar      1 <0>         0.0034
     12 C9          4.1746   -2.9324    0.1648 C.ar      1 <0>        -0.0505
     13 C10         3.4729   -1.7473    0.0782 C.ar      1 <0>        -0.0543
     14 Cl1         3.3232   -4.4453    0.1674 Cl        1 <0>        -0.0360
     15 Cl2         6.4335   -4.4112    0.3707 Cl        1 <0>        -0.0345
     16 H1         -0.8958    2.0273    0.0876 H         1 <0>         0.1659
     17 H2         -0.8660   -0.6410    0.0881 H         1 <0>         0.2017
     18 H3          1.5900    2.8651    0.0254 H         1 <0>         0.1900
     19 H4          6.0913    0.4142    0.1629 H         1 <0>         0.1536
     20 H5          7.3217   -1.7077    0.3258 H         1 <0>         0.1547
     21 H6          2.3950   -1.7600    0.0122 H         1 <0>         0.1949
@<TRIPOS>BOND
     1    1    5 2
     2    1    2 1
     3    1   16 1
     4    2    3 2
     5    2   17 1
     6    3    4 1
     7    4    5 1
     8    4    6 am
     9    5   18 1
    10    6    7 2
    11    6    8 1
    12    8   13 ar
    13    8    9 ar
    14    9   10 ar
    15    9   19 1
    16   10   11 ar
    17   10   20 1
    18   11   12 ar
    19   11   15 1
    20   12   13 ar
    21   12   14 1
    22   13   21 1
@<TRIPOS>MOLECULE
ZINC00078678
   26    27     0     0     0
SMALL
USER_CHARGES
(3-nitropyrazol-1-yl)-(p-tolyl)methanone
@<TRIPOS>ATOM
      1 C1         -0.0763    5.7484    0.0285 C.3       1 <0>        -0.1257
      2 C2         -0.0558    4.2416    0.0218 C.ar      1 <0>        -0.0363
      3 C3          1.1535    3.5693    0.0409 C.ar      1 <0>        -0.1381
      4 C4          1.1798    2.1902    0.0349 C.ar      1 <0>        -0.0402
      5 C5         -0.0181    1.4724    0.0091 C.ar      1 <0>        -0.1731
      6 C6         -1.2349    2.1575   -0.0158 C.ar      1 <0>        -0.0666
      7 C7         -1.2463    3.5368   -0.0037 C.ar      1 <0>        -0.1351
      8 C8          0.0021   -0.0041    0.0020 C.2       1 <0>         0.6028
      9 O1          1.0573   -0.5966   -0.1021 O.2       1 <0>        -0.4538
     10 N1         -1.1504   -0.6943    0.1110 N.am      1 <0>        -0.3402
     11 C9         -1.2694   -2.0473    0.2133 C.2       1 <0>         0.1024
     12 C10        -2.5862   -2.3353    0.3028 C.2       1 <0>        -0.1984
     13 C11        -3.2974   -1.1282    0.2545 C.2       1 <0>         0.1586
     14 N2         -2.4400   -0.1480    0.1456 N.2       1 <0>        -0.1934
     15 N3         -4.7694   -0.9875    0.3210 N.pl3     1 <0>         0.0465
     16 O2         -5.4716   -1.9769    0.4274 O.2       1 <0>        -0.1102
     17 O3         -5.2784    0.1179    0.2694 O.3       1 <0>        -0.1111
     18 H1         -0.0624    6.1165   -0.9973 H         1 <0>         0.0803
     19 H2         -0.9804    6.0973    0.5275 H         1 <0>         0.0742
     20 H3          0.7991    6.1214    0.5602 H         1 <0>         0.0732
     21 H4          2.0790    4.1256    0.0608 H         1 <0>         0.1360
     22 H5          2.1243    1.6668    0.0504 H         1 <0>         0.1387
     23 H6         -2.1647    1.6087   -0.0400 H         1 <0>         0.1678
     24 H7         -2.1866    4.0679   -0.0185 H         1 <0>         0.1359
     25 H8         -0.4583   -2.7603    0.2219 H         1 <0>         0.2141
     26 H9         -3.0155   -3.3220    0.3957 H         1 <0>         0.1914
@<TRIPOS>BOND
     1    1    2 1
     2    1   18 1
     3    1   19 1
     4    1   20 1
     5    2    7 ar
     6    2    3 ar
     7    3    4 ar
     8    3   21 1
     9    4    5 ar
    10    4   22 1
    11    5    6 ar
    12    5    8 1
    13    6    7 ar
    14    6   23 1
    15    7   24 1
    16    8    9 2
    17    8   10 am
    18   10   14 1
    19   10   11 1
    20   11   12 2
    21   11   25 1
    22   12   13 1
    23   12   26 1
    24   13   14 2
    25   13   15 1
    26   15   16 2
    27   15   17 1
@<TRIPOS>MOLECULE
ZINC00037157
   26    27     0     0     0
SMALL
USER_CHARGES
(2-fluorophenyl)-(5-methyl-3-nitro-pyrazol-1-yl)-methanone
@<TRIPOS>ATOM
      1 C1          0.9631    6.5963   -0.1993 C.3       1 <0>        -0.1087
      2 C2         -0.1461    5.5764   -0.1726 C.2       1 <0>         0.1381
      3 C3         -1.4702    5.8353   -0.2414 C.2       1 <0>        -0.2073
      4 C4         -2.1538    4.6131   -0.1792 C.2       1 <0>         0.1670
      5 N1         -1.2735    3.6522   -0.0816 N.2       1 <0>        -0.2034
      6 N2          0.0045    4.2261   -0.0780 N.am      1 <0>        -0.3380
      7 C5          1.1737    3.5613    0.0095 C.2       1 <0>         0.6013
      8 O1          2.2173    4.1769    0.0973 O.2       1 <0>        -0.4397
      9 C6          1.1860    2.0865   -0.0014 C.ar      1 <0>        -0.2020
     10 C7         -0.0160    1.3737    0.0212 C.ar      1 <0>        -0.0460
     11 C8          0.0030   -0.0044    0.0104 C.ar      1 <0>        -0.1425
     12 C9          1.2086   -0.6849   -0.0233 C.ar      1 <0>        -0.0423
     13 C10         2.4029    0.0105   -0.0458 C.ar      1 <0>        -0.1705
     14 C11         2.4012    1.3935   -0.0344 C.ar      1 <0>         0.1727
     15 F1          3.5687    2.0730   -0.0556 F         1 <0>        -0.1139
     16 N3         -3.6234    4.4403   -0.2171 N.pl3     1 <0>         0.0464
     17 O2         -4.1071    3.3241   -0.1555 O.2       1 <0>        -0.1106
     18 O3         -4.3490    5.4142   -0.3099 O.3       1 <0>        -0.1095
     19 H1          1.2680    6.7745   -1.2305 H         1 <0>         0.0992
     20 H2          0.6101    7.5286    0.2415 H         1 <0>         0.1009
     21 H3          1.8133    6.2234    0.3718 H         1 <0>         0.1025
     22 H4         -1.9226    6.8124   -0.3255 H         1 <0>         0.1907
     23 H5         -0.9578    1.9017    0.0425 H         1 <0>         0.1768
     24 H6         -0.9257   -0.5555    0.0278 H         1 <0>         0.1444
     25 H7          1.2157   -1.7648   -0.0323 H         1 <0>         0.1449
     26 H8          3.3392   -0.5271   -0.0720 H         1 <0>         0.1497
@<TRIPOS>BOND
     1    1    2 1
     2    1   19 1
     3    1   20 1
     4    1   21 1
     5    2    6 1
     6    2    3 2
     7    3    4 1
     8    3   22 1
     9    4    5 2
    10    4   16 1
    11    5    6 1
    12    6    7 am
    13    7    8 2
    14    7    9 1
    15    9   14 ar
    16    9   10 ar
    17   10   11 ar
    18   10   23 1
    19   11   12 ar
    20   11   24 1
    21   12   13 ar
    22   12   25 1
    23   13   14 ar
    24   13   26 1
    25   14   15 1
    26   16   17 2
    27   16   18 1
@<TRIPOS>MOLECULE
ZINC13507825
   64    65     0     0     0
SMALL
USER_CHARGES

@<TRIPOS>ATOM
      1 C1         -0.0167    1.3781    0.0096 C.ar      1 <0>        -0.1127
      2 C2          1.1709    2.0855    0.0021 C.ar      1 <0>        -0.1238
      3 C3          2.3773    1.4107   -0.0130 C.ar      1 <0>        -0.1240
      4 C4          2.3960    0.0285   -0.0201 C.ar      1 <0>        -0.0727
      5 C5          1.2084   -0.6789   -0.0117 C.ar      1 <0>        -0.1003
      6 C6          0.0021   -0.0041    0.0020 C.ar      1 <0>        -0.1055
      7 C7          3.7112   -0.7071   -0.0376 C.3       1 <0>        -0.0919
      8 C8          4.1714   -0.9633    1.3989 C.3       1 <0>         0.1393
      9 H1          3.3868   -1.4885    1.9436 H         1 <0>         0.1251
     10 C9          5.4216   -1.8045    1.3834 C.2       1 <0>         0.5181
     11 O1          6.4455   -1.3782    1.8741 O.2       1 <0>        -0.5209
     12 N1          5.4019   -3.0307    0.8243 N.am      1 <0>        -0.7086
     13 C10         6.6173   -3.8485    0.8092 C.3       1 <0>         0.1068
     14 H2          7.1849   -3.6726    1.7230 H         1 <0>         0.1284
     15 C11         6.2357   -5.3276    0.7225 C.3       1 <0>        -0.1248
     16 C12         5.4883   -5.7368    1.9932 C.3       1 <0>        -0.1323
     17 C13         5.1067   -7.2159    1.9065 C.3       1 <0>         0.0916
     18 N2          4.3910   -7.6077    3.1233 N.pl3     1 <0>        -0.6982
     19 C14         3.9481   -8.8933    3.2723 C.cat     1 <0>         0.7431
     20 N3          3.2974   -9.2495    4.3785 N.pl3     1 <0>        -0.7927
     21 N4          4.1676   -9.7889    2.3111 N.pl3     1 <0>        -0.7912
     22 C15         7.4587   -3.4760   -0.3843 C.2       1 <0>         0.3308
     23 O2          6.9786   -2.8273   -1.2826 O.2       1 <0>        -0.4026
     24 C16         8.8991   -3.9129   -0.4567 C.3       1 <0>        -0.1026
     25 Cl1         9.6313   -3.3174   -1.9929 Cl        1 <0>        -0.1247
     26 N5          4.4511    0.3151    2.0574 N.am      1 <0>        -0.6885
     27 C17         3.4510    1.0070    2.6383 C.2       1 <0>         0.5138
     28 O3          2.3193    0.5713    2.6159 O.2       1 <0>        -0.5051
     29 C18         3.7387    2.3221    3.3156 C.3       1 <0>         0.0042
     30 H3          4.4632    2.1842    4.1182 H         1 <0>         0.1704
     31 C19         4.2632    3.3550    2.2872 C.3       1 <0>        -0.1399
     32 C20         3.8956    4.6963    2.9749 C.3       1 <0>        -0.1392
     33 C21         2.5532    4.3764    3.6655 C.3       1 <0>        -0.0093
     34 N6          2.4908    2.9126    3.8446 N.4       1 <0>        -0.5018
     35 H4         -0.9591    1.9053    0.0259 H         1 <0>         0.1234
     36 H5          1.1563    3.1654    0.0076 H         1 <0>         0.1184
     37 H6          3.3051    1.9634   -0.0196 H         1 <0>         0.1121
     38 H7          1.2231   -1.7588   -0.0176 H         1 <0>         0.1181
     39 H8         -0.9258   -0.5567    0.0082 H         1 <0>         0.1239
     40 H9          3.5884   -1.6586   -0.5549 H         1 <0>         0.0944
     41 H10         4.4573   -0.1052   -0.5563 H         1 <0>         0.0900
     42 H11         4.5830   -3.3717    0.4319 H         1 <0>         0.4099
     43 H12         5.5938   -5.4870   -0.1439 H         1 <0>         0.0908
     44 H13         7.1383   -5.9304    0.6219 H         1 <0>         0.1024
     45 H14         6.1302   -5.5773    2.8596 H         1 <0>         0.0897
     46 H15         4.5857   -5.1340    2.0939 H         1 <0>         0.0841
     47 H16         4.4648   -7.3754    1.0402 H         1 <0>         0.0951
     48 H17         6.0093   -7.8187    1.8059 H         1 <0>         0.0967
     49 H18         4.2312   -6.9555    3.8233 H         1 <0>         0.4350
     50 H19         3.1376   -8.5973    5.0785 H         1 <0>         0.4410
     51 H20         4.6415   -9.5295    1.5055 H         1 <0>         0.4399
     52 H21         3.8535  -10.7006    2.4168 H         1 <0>         0.4430
     53 H22         9.4469   -3.5006    0.3907 H         1 <0>         0.1305
     54 H23         8.9505   -5.0013   -0.4276 H         1 <0>         0.1283
     55 H24         5.3562    0.6636    2.0753 H         1 <0>         0.4197
     56 H25         5.3418    3.2649    2.1587 H         1 <0>         0.1277
     57 H26         3.7477    3.2517    1.3324 H         1 <0>         0.1064
     58 H27         4.6513    4.9720    3.7104 H         1 <0>         0.1070
     59 H28         3.7697    5.4868    2.2351 H         1 <0>         0.1205
     60 H29         2.5091    4.8694    4.6366 H         1 <0>         0.1412
     61 H30         1.7255    4.7102    3.0398 H         1 <0>         0.1373
     62 H31         1.6994    2.5425    3.3397 H         1 <0>         0.4363
     63 H32         2.9833  -10.1612    4.4842 H         1 <0>         0.4433
     64 H33         2.3998    2.6921    4.8250 H         1 <0>         0.4357
@<TRIPOS>BOND
     1    1    6 ar
     2    1    2 ar
     3    1   35 1
     4    2    3 ar
     5    2   36 1
     6    3    4 ar
     7    3   37 1
     8    4    5 ar
     9    4    7 1
    10    5    6 ar
    11    5   38 1
    12    6   39 1
    13    7    8 1
    14    7   40 1
    15    7   41 1
    16    8    9 1
    17    8   10 1
    18    8   26 1
    19   10   11 2
    20   10   12 am
    21   12   13 1
    22   12   42 1
    23   13   14 1
    24   13   15 1
    25   13   22 1
    26   15   16 1
    27   15   43 1
    28   15   44 1
    29   16   17 1
    30   16   45 1
    31   16   46 1
    32   17   18 1
    33   17   47 1
    34   17   48 1
    35   18   19 1
    36   18   49 1
    37   19   20 2
    38   19   21 1
    39   20   50 1
    40   20   63 1
    41   21   51 1
    42   21   52 1
    43   22   23 2
    44   22   24 1
    45   24   25 1
    46   24   53 1
    47   24   54 1
    48   26   27 am
    49   26   55 1
    50   27   28 2
    51   27   29 1
    52   29   30 1
    53   29   34 1
    54   29   31 1
    55   31   32 1
    56   31   56 1
    57   31   57 1
    58   32   33 1
    59   32   58 1
    60   32   59 1
    61   33   34 1
    62   33   60 1
    63   33   61 1
    64   34   62 1
    65   34   64 1
