@<TRIPOS>MOLECULE
ZINC01546077
   42    44     0     0     0
SMALL
USER_CHARGES

@<TRIPOS>ATOM
      1 C1         -0.0173    1.4248    0.0099 C.3       1 <0>         0.0232
      2 O1          0.0021   -0.0041    0.0020 O.3       1 <0>        -0.3037
      3 C2          0.6062   -0.6075   -1.0564 C.ar      1 <0>         0.1428
      4 C3          1.1729    0.1590   -2.0621 C.ar      1 <0>        -0.1969
      5 C4          1.7870   -0.4560   -3.1371 C.ar      1 <0>        -0.0125
      6 C5          1.8372   -1.8356   -3.2121 C.ar      1 <0>        -0.6202
      7 C6          1.2734   -2.6062   -2.2124 C.ar      1 <0>        -0.0727
      8 C7          0.6617   -1.9961   -1.1290 C.ar      1 <0>         0.0762
      9 O2          0.1119   -2.7526   -0.1417 O.3       1 <0>        -0.3074
     10 C8          0.2064   -4.1715   -0.2827 C.3       1 <0>         0.0200
     11 S1          2.6209   -2.6134   -4.5852 S.o2      1 <0>         2.6253
     12 O3          2.0558   -3.9128   -4.6929 O.2       1 <0>        -1.0041
     13 O4          2.5892   -1.6779   -5.6544 O.2       1 <0>        -1.0021
     14 N1          4.2144   -2.8220   -4.1858 N.2       1 <0>        -1.0030
     15 C9          5.0823   -3.4169   -5.0871 C.2       1 <0>         0.4998
     16 N2          6.3707   -3.6754   -4.9591 N.2       1 <0>        -0.5856
     17 C10         7.0559   -4.2603   -5.9392 C.2       1 <0>         0.1340
     18 C11         6.4123   -4.5976   -7.0958 C.2       1 <0>        -0.2510
     19 S2          4.7524   -4.0446   -6.7276 S.3       1 <0>        -0.2049
     20 C12         8.5028   -4.5423   -5.7772 C.ar      1 <0>         0.0052
     21 C13         9.2172   -5.1494   -6.8090 C.ar      1 <0>        -0.0627
     22 C14        10.5634   -5.4089   -6.6529 C.ar      1 <0>        -0.1184
     23 C15        11.2041   -5.0683   -5.4749 C.ar      1 <0>        -0.0691
     24 C16        10.5005   -4.4659   -4.4478 C.ar      1 <0>        -0.0521
     25 C17         9.1548   -4.1963   -4.5950 C.ar      1 <0>        -0.0267
     26 N3         11.1931   -4.1045   -3.1906 N.pl3     1 <0>         0.0366
     27 O5         12.3727   -4.3360   -3.0622 O.2       1 <0>        -0.1720
     28 O6         10.5791   -3.5779   -2.2920 O.3       1 <0>        -0.1547
     29 H1          1.0053    1.8021    0.0021 H         1 <0>         0.0582
     30 H2         -0.5445    1.7859   -0.8732 H         1 <0>         0.0568
     31 H3         -0.5275    1.7763    0.9067 H         1 <0>         0.1008
     32 H4          1.1344    1.2368   -2.0063 H         1 <0>         0.1427
     33 H5          2.2283    0.1425   -3.9203 H         1 <0>         0.1450
     34 H6          1.3136   -3.6837   -2.2735 H         1 <0>         0.1508
     35 H7         -0.2940   -4.4795   -1.2008 H         1 <0>         0.0579
     36 H8          1.2558   -4.4633   -0.3254 H         1 <0>         0.0595
     37 H9         -0.2705   -4.6540    0.5704 H         1 <0>         0.1014
     38 H10         6.7988   -5.0713   -7.9861 H         1 <0>         0.1787
     39 H11         8.7179   -5.4163   -7.7287 H         1 <0>         0.1444
     40 H12        11.1178   -5.8791   -7.4516 H         1 <0>         0.1458
     41 H13        12.2578   -5.2740   -5.3568 H         1 <0>         0.1482
     42 H14         8.6073   -3.7218   -3.7940 H         1 <0>         0.1664
@<TRIPOS>BOND
     1    1    2 1
     2    1   29 1
     3    1   30 1
     4    1   31 1
     5    2    3 1
     6    3    8 ar
     7    3    4 ar
     8    4    5 ar
     9    4   32 1
    10    5    6 ar
    11    5   33 1
    12    6    7 ar
    13    6   11 1
    14    7    8 ar
    15    7   34 1
    16    8    9 1
    17    9   10 1
    18   10   35 1
    19   10   36 1
    20   10   37 1
    21   11   12 2
    22   11   13 2
    23   11   14 1
    24   14   15 1
    25   15   19 1
    26   15   16 2
    27   16   17 1
    28   17   18 2
    29   17   20 1
    30   18   19 1
    31   18   38 1
    32   20   25 ar
    33   20   21 ar
    34   21   22 ar
    35   21   39 1
    36   22   23 ar
    37   22   40 1
    38   23   24 ar
    39   23   41 1
    40   24   25 ar
    41   24   26 1
    42   25   42 1
    43   26   27 2
    44   26   28 1
@<TRIPOS>MOLECULE
ZINC06235014
   37    39     0     0     0
SMALL
USER_CHARGES

@<TRIPOS>ATOM
      1 C1         -0.0184    1.5028    0.0103 C.3       1 <0>        -0.1180
      2 C2          0.0021   -0.0041    0.0020 C.ar      1 <0>        -0.0459
      3 C3          0.0057   -0.6887   -1.1989 C.ar      1 <0>        -0.1464
      4 C4          0.0245   -2.0709   -1.2065 C.ar      1 <0>        -0.0163
      5 C5          0.0400   -2.7685   -0.0132 C.ar      1 <0>        -0.6273
      6 C6          0.0373   -2.0839    1.1877 C.ar      1 <0>        -0.0163
      7 C7          0.0229   -0.7016    1.1953 C.ar      1 <0>        -0.1464
      8 S1          0.0628   -4.5303   -0.0229 S.o2      1 <0>         2.6223
      9 O1         -0.4759   -4.9503    1.2232 O.2       1 <0>        -1.0043
     10 O2         -0.4897   -4.9367   -1.2674 O.2       1 <0>        -1.0043
     11 N1          1.6509   -4.9994   -0.0343 N.2       1 <0>        -1.0035
     12 C8          1.9753   -6.3463   -0.0434 C.2       1 <0>         0.5002
     13 N2          3.1651   -6.9184   -0.0476 N.2       1 <0>        -0.5863
     14 C9          3.2915   -8.2436   -0.0558 C.2       1 <0>         0.1340
     15 C10         2.1691   -9.0221   -0.0598 C.2       1 <0>        -0.2515
     16 S2          0.8938   -7.7692   -0.0445 S.3       1 <0>        -0.2053
     17 C11         4.6366   -8.8681   -0.0610 C.ar      1 <0>         0.0055
     18 C12         4.7635  -10.2564   -0.0759 C.ar      1 <0>        -0.0628
     19 C13         6.0175  -10.8319   -0.0812 C.ar      1 <0>        -0.1184
     20 C14         7.1478  -10.0340   -0.0712 C.ar      1 <0>        -0.0692
     21 C15         7.0280   -8.6561   -0.0564 C.ar      1 <0>        -0.0521
     22 C16         5.7787   -8.0693   -0.0568 C.ar      1 <0>        -0.0267
     23 N3          8.2419   -7.8092   -0.0458 N.pl3     1 <0>         0.0367
     24 O3          9.3368   -8.3220   -0.0501 O.2       1 <0>        -0.1723
     25 O4          8.1385   -6.6047   -0.0329 O.3       1 <0>        -0.1546
     26 H1          1.0042    1.8801    0.0026 H         1 <0>         0.0751
     27 H2         -0.5455    1.8639   -0.8728 H         1 <0>         0.0684
     28 H3         -0.5286    1.8543    0.9071 H         1 <0>         0.0684
     29 H4         -0.0064   -0.1436   -2.1312 H         1 <0>         0.1283
     30 H5          0.0266   -2.6057   -2.1448 H         1 <0>         0.1386
     31 H6          0.0491   -2.6289    2.1200 H         1 <0>         0.1386
     32 H7          0.0245   -0.1667    2.1335 H         1 <0>         0.1283
     33 H8          2.0774  -10.0982   -0.0666 H         1 <0>         0.1786
     34 H9          3.8819  -10.8802   -0.0830 H         1 <0>         0.1444
     35 H10         6.1170  -11.9072   -0.0927 H         1 <0>         0.1458
     36 H11         8.1273  -10.4888   -0.0746 H         1 <0>         0.1482
     37 H12         5.6863   -6.9933   -0.0498 H         1 <0>         0.1664
@<TRIPOS>BOND
     1    1    2 1
     2    1   26 1
     3    1   27 1
     4    1   28 1
     5    2    7 ar
     6    2    3 ar
     7    3    4 ar
     8    3   29 1
     9    4    5 ar
    10    4   30 1
    11    5    6 ar
    12    5    8 1
    13    6    7 ar
    14    6   31 1
    15    7   32 1
    16    8    9 2
    17    8   10 2
    18    8   11 1
    19   11   12 1
    20   12   16 1
    21   12   13 2
    22   13   14 1
    23   14   15 2
    24   14   17 1
    25   15   16 1
    26   15   33 1
    27   17   22 ar
    28   17   18 ar
    29   18   19 ar
    30   18   34 1
    31   19   20 ar
    32   19   35 1
    33   20   21 ar
    34   20   36 1
    35   21   22 ar
    36   21   23 1
    37   22   37 1
    38   23   24 2
    39   23   25 1
@<TRIPOS>MOLECULE
ZINC00193791
   35    37     0     0     0
SMALL
USER_CHARGES

@<TRIPOS>ATOM
      1 C1         -0.0184    1.5028    0.0103 C.3       1 <0>        -0.1174
      2 C2          0.0021   -0.0041    0.0020 C.ar      1 <0>        -0.0474
      3 C3          0.0057   -0.6887   -1.1989 C.ar      1 <0>        -0.1468
      4 C4          0.0245   -2.0709   -1.2065 C.ar      1 <0>        -0.0167
      5 C5          0.0400   -2.7685   -0.0132 C.ar      1 <0>        -0.6261
      6 C6          0.0373   -2.0839    1.1877 C.ar      1 <0>        -0.0167
      7 C7          0.0229   -0.7016    1.1953 C.ar      1 <0>        -0.1468
      8 S1          0.0628   -4.5303   -0.0229 S.o2      1 <0>         2.6212
      9 O1         -0.4759   -4.9503    1.2232 O.2       1 <0>        -1.0058
     10 O2         -0.4897   -4.9367   -1.2674 O.2       1 <0>        -1.0058
     11 N1          1.6509   -4.9994   -0.0343 N.2       1 <0>        -1.0075
     12 C8          1.9753   -6.3463   -0.0434 C.2       1 <0>         0.4960
     13 N2          3.1651   -6.9184   -0.0476 N.2       1 <0>        -0.5836
     14 C9          3.2915   -8.2436   -0.0558 C.2       1 <0>         0.1403
     15 C10         2.1691   -9.0221   -0.0598 C.2       1 <0>        -0.2579
     16 S2          0.8938   -7.7692   -0.0445 S.3       1 <0>        -0.2215
     17 C11         4.6366   -8.8681   -0.0610 C.ar      1 <0>        -0.0039
     18 C12         4.7634  -10.2562   -0.0759 C.ar      1 <0>        -0.1103
     19 C13         6.0177  -10.8318   -0.0812 C.ar      1 <0>        -0.1264
     20 C14         7.1478  -10.0340   -0.0717 C.ar      1 <0>        -0.1304
     21 C15         7.0280   -8.6559   -0.0564 C.ar      1 <0>        -0.1273
     22 C16         5.7789   -8.0692   -0.0568 C.ar      1 <0>        -0.0878
     23 H1          1.0042    1.8801    0.0026 H         1 <0>         0.0744
     24 H2         -0.5455    1.8639   -0.8728 H         1 <0>         0.0681
     25 H3         -0.5286    1.8543    0.9071 H         1 <0>         0.0681
     26 H4         -0.0064   -0.1436   -2.1312 H         1 <0>         0.1278
     27 H5          0.0266   -2.6057   -2.1448 H         1 <0>         0.1385
     28 H6          0.0491   -2.6289    2.1200 H         1 <0>         0.1385
     29 H7          0.0245   -0.1667    2.1335 H         1 <0>         0.1278
     30 H8          2.0773  -10.0982   -0.0664 H         1 <0>         0.1755
     31 H9          3.8818  -10.8800   -0.0830 H         1 <0>         0.1229
     32 H10         6.1172  -11.9071   -0.0924 H         1 <0>         0.1182
     33 H11         8.1273  -10.4888   -0.0758 H         1 <0>         0.1150
     34 H12         7.9137   -8.0380   -0.0483 H         1 <0>         0.1183
     35 H13         5.6865   -6.9932   -0.0498 H         1 <0>         0.1353
@<TRIPOS>BOND
     1    1    2 1
     2    1   23 1
     3    1   24 1
     4    1   25 1
     5    2    7 ar
     6    2    3 ar
     7    3    4 ar
     8    3   26 1
     9    4    5 ar
    10    4   27 1
    11    5    6 ar
    12    5    8 1
    13    6    7 ar
    14    6   28 1
    15    7   29 1
    16    8    9 2
    17    8   10 2
    18    8   11 1
    19   11   12 1
    20   12   16 1
    21   12   13 2
    22   13   14 1
    23   14   15 2
    24   14   17 1
    25   15   16 1
    26   15   30 1
    27   17   22 ar
    28   17   18 ar
    29   18   19 ar
    30   18   31 1
    31   19   20 ar
    32   19   32 1
    33   20   21 ar
    34   20   33 1
    35   21   22 ar
    36   21   34 1
    37   22   35 1
@<TRIPOS>MOLECULE
ZINC00193791
   36    38     0     0     0
SMALL
USER_CHARGES

@<TRIPOS>ATOM
      1 C1         -0.0184    1.5028    0.0103 C.3       1 <0>        -0.1256
      2 C2          0.0021   -0.0041    0.0020 C.ar      1 <0>        -0.0266
      3 C3          0.0057   -0.6887   -1.1989 C.ar      1 <0>        -0.1425
      4 C4          0.0245   -2.0709   -1.2065 C.ar      1 <0>        -0.0128
      5 C5          0.0400   -2.7685   -0.0132 C.ar      1 <0>        -0.6467
      6 C6          0.0373   -2.0839    1.1877 C.ar      1 <0>        -0.0128
      7 C7          0.0229   -0.7016    1.1953 C.ar      1 <0>        -0.1425
      8 S1          0.0628   -4.5303   -0.0229 S.o2      1 <0>         2.6436
      9 O1         -0.4759   -4.9503    1.2232 O.2       1 <0>        -0.9603
     10 O2         -0.4897   -4.9367   -1.2674 O.2       1 <0>        -0.9604
     11 N1          1.6509   -4.9994   -0.0343 N.2       1 <0>        -0.9683
     12 C8          1.9575   -6.2725   -0.0429 C.2       1 <0>         0.5050
     13 N2          3.1993   -6.8688   -0.0473 N.pl3     1 <0>        -0.6058
     14 C9          3.2684   -8.2376   -0.0560 C.2       1 <0>         0.1379
     15 C10         2.1320   -8.9625   -0.0600 C.2       1 <0>        -0.1812
     16 S2          0.8761   -7.6937   -0.0440 S.3       1 <0>        -0.0024
     17 C11         4.5825   -8.9155   -0.0615 C.ar      1 <0>        -0.0496
     18 C12         5.7588   -8.1642   -0.0521 C.ar      1 <0>        -0.1075
     19 C13         6.9816   -8.8029   -0.0574 C.ar      1 <0>        -0.1113
     20 C14         7.0435  -10.1850   -0.0720 C.ar      1 <0>        -0.1034
     21 C15         5.8813  -10.9357   -0.0813 C.ar      1 <0>        -0.1121
     22 C16         4.6520  -10.3095   -0.0704 C.ar      1 <0>        -0.0888
     23 H1          1.0042    1.8801    0.0026 H         1 <0>         0.0805
     24 H2         -0.5455    1.8639   -0.8728 H         1 <0>         0.0741
     25 H3         -0.5286    1.8543    0.9071 H         1 <0>         0.0741
     26 H4         -0.0064   -0.1436   -2.1312 H         1 <0>         0.1356
     27 H5          0.0266   -2.6057   -2.1448 H         1 <0>         0.1418
     28 H6          0.0491   -2.6289    2.1200 H         1 <0>         0.1418
     29 H7          0.0245   -0.1667    2.1335 H         1 <0>         0.1356
     30 H8          2.0120  -10.0358   -0.0670 H         1 <0>         0.2147
     31 H9          5.7118   -7.0853   -0.0411 H         1 <0>         0.1215
     32 H10         7.8925   -8.2228   -0.0505 H         1 <0>         0.1309
     33 H11         8.0033  -10.6802   -0.0764 H         1 <0>         0.1297
     34 H12         5.9365  -12.0142   -0.0927 H         1 <0>         0.1334
     35 H13         3.7455  -10.8966   -0.0729 H         1 <0>         0.1344
     36 H14         4.0071   -6.3317   -0.0447 H         1 <0>         0.4259
@<TRIPOS>BOND
     1    1    2 1
     2    1   23 1
     3    1   24 1
     4    1   25 1
     5    2    7 ar
     6    2    3 ar
     7    3    4 ar
     8    3   26 1
     9    4    5 ar
    10    4   27 1
    11    5    6 ar
    12    5    8 1
    13    6    7 ar
    14    6   28 1
    15    7   29 1
    16    8    9 2
    17    8   10 2
    18    8   11 1
    19   11   12 2
    20   12   16 1
    21   12   13 1
    22   13   14 1
    23   13   36 1
    24   14   15 2
    25   14   17 1
    26   15   16 1
    27   15   30 1
    28   17   22 ar
    29   17   18 ar
    30   18   19 ar
    31   18   31 1
    32   19   20 ar
    33   19   32 1
    34   20   21 ar
    35   20   33 1
    36   21   22 ar
    37   21   34 1
    38   22   35 1
@<TRIPOS>MOLECULE
ZINC00345355
   24    24     0     0     0
SMALL
USER_CHARGES
4-(3-nitrophenyl)-4-oxo-butanoic acid
@<TRIPOS>ATOM
      1 C1          1.4311    0.0964    3.9447 C.ar      1 <0>        -0.1265
      2 C2          0.9475    0.4223    2.6950 C.ar      1 <0>        -0.0200
      3 C3         -0.1978    1.2160    2.5777 C.ar      1 <0>        -0.1569
      4 C4         -0.8496    1.6651    3.7309 C.ar      1 <0>        -0.0052
      5 C5         -0.3563    1.3271    4.9731 C.ar      1 <0>        -0.0586
      6 C6          0.7808    0.5451    5.0809 C.ar      1 <0>        -0.0343
      7 N1         -1.0445    1.8013    6.1946 N.pl3     1 <0>         0.0298
      8 O1         -2.0453    2.4892    6.1016 O.2       1 <0>        -0.1568
      9 O2         -0.6100    1.5036    7.2928 O.3       1 <0>        -0.1609
     10 C7         -0.7181    1.5718    1.2479 C.2       1 <0>         0.3904
     11 O3         -1.7143    2.2560    1.1498 O.2       1 <0>        -0.4388
     12 C8         -0.0127    1.0858    0.0080 C.3       1 <0>        -0.1338
     13 C9         -0.7527    1.5927   -1.2315 C.3       1 <0>        -0.1513
     14 C10        -0.0473    1.1067   -2.4714 C.2       1 <0>         0.4605
     15 O4          0.9454    0.4249   -2.3737 O.co2     1 <0>        -0.6441
     16 H1          2.3173   -0.5139    4.0370 H         1 <0>         0.1556
     17 H2          1.4540    0.0683    1.8092 H         1 <0>         0.1602
     18 H3         -1.7369    2.2754    3.6484 H         1 <0>         0.1632
     19 H4          1.1622    0.2833    6.0568 H         1 <0>         0.1565
     20 H5          0.0008    0.0859    0.0025 H         1 <0>         0.0932
     21 H6          1.0099    1.4631    0.0003 H         1 <0>         0.1029
     22 H7         -1.7753    1.2154   -1.2238 H         1 <0>         0.0717
     23 H8         -0.7675    2.6825   -1.2255 H         1 <0>         0.0720
     24 O5         -0.5219    1.4312   -3.6843 O.co2     1 <0>        -0.7688
@<TRIPOS>BOND
     1    1    6 ar
     2    1    2 ar
     3    1   16 1
     4    2    3 ar
     5    2   17 1
     6    3    4 ar
     7    3   10 1
     8    4    5 ar
     9    4   18 1
    10    5    6 ar
    11    5    7 1
    12    6   19 1
    13    7    8 2
    14    7    9 1
    15   10   11 2
    16   10   12 1
    17   12   13 1
    18   12   20 1
    19   12   21 1
    20   13   14 1
    21   13   22 1
    22   13   23 1
    23   14   15 2
    24   14   24 1
@<TRIPOS>MOLECULE
ZINC00475636
   39    41     0     0     0
SMALL
USER_CHARGES

@<TRIPOS>ATOM
      1 C1         -0.0184    1.5028    0.0103 C.3       1 <0>        -0.1218
      2 C2          0.0021   -0.0041    0.0020 C.ar      1 <0>        -0.0674
      3 C3          0.0057   -0.6862   -1.2018 C.ar      1 <0>        -0.1144
      4 C4          0.0244   -2.0656   -1.2163 C.ar      1 <0>        -0.0830
      5 C5          0.0401   -2.7730   -0.0132 C.ar      1 <0>        -0.0568
      6 C6          0.0368   -2.0787    1.1976 C.ar      1 <0>        -0.1017
      7 C7          0.0229   -0.6992    1.1982 C.ar      1 <0>        -0.1134
      8 C8          0.0597   -4.2515   -0.0214 C.2       1 <0>         0.1402
      9 C9          0.0681   -4.9226   -1.1903 C.2       1 <0>        -0.1831
     10 S1          0.0915   -6.6234   -0.6479 S.3       1 <0>        -0.0031
     11 C10         0.0885   -6.3236    1.1126 C.2       1 <0>         0.5050
     12 N1          0.0751   -4.9468    1.1596 N.pl3     1 <0>        -0.6059
     13 N2          0.1008   -7.1851    2.0987 N.2       1 <0>        -0.9687
     14 S2          0.1234   -8.8097    1.7786 S.o2      1 <0>         2.6435
     15 O1         -1.1180   -9.1191    1.1601 O.2       1 <0>        -0.9605
     16 O2          1.3725   -9.0843    1.1593 O.2       1 <0>        -0.9604
     17 C11         0.1355   -9.6462    3.3294 C.ar      1 <0>        -0.6466
     18 C12         1.3373   -9.9526    3.9400 C.ar      1 <0>        -0.0128
     19 C13         1.3468  -10.6088    5.1567 C.ar      1 <0>        -0.1425
     20 C14         0.1546  -10.9582    5.7629 C.ar      1 <0>        -0.0266
     21 C15        -1.0471  -10.6510    5.1527 C.ar      1 <0>        -0.1425
     22 C16        -1.0567   -9.9910    3.9381 C.ar      1 <0>        -0.0128
     23 C17         0.1650  -11.6744    7.0887 C.3       1 <0>        -0.1256
     24 H1          1.0042    1.8801    0.0026 H         1 <0>         0.0762
     25 H2         -0.5455    1.8639   -0.8728 H         1 <0>         0.0712
     26 H3         -0.5286    1.8543    0.9071 H         1 <0>         0.0702
     27 H4         -0.0064   -0.1377   -2.1320 H         1 <0>         0.1330
     28 H5          0.0265   -2.5969   -2.1566 H         1 <0>         0.1347
     29 H6          0.0489   -2.6202    2.1320 H         1 <0>         0.1217
     30 H7          0.0244   -0.1607    2.1343 H         1 <0>         0.1305
     31 H8          0.0616   -4.5316   -2.1970 H         1 <0>         0.2143
     32 H9          2.2687   -9.6796    3.4664 H         1 <0>         0.1417
     33 H10         2.2857  -10.8488    5.6334 H         1 <0>         0.1356
     34 H11        -1.9785  -10.9243    5.6261 H         1 <0>         0.1356
     35 H12        -1.9957   -9.7476    3.4631 H         1 <0>         0.1418
     36 H13         0.1510  -10.9431    7.8969 H         1 <0>         0.0805
     37 H14        -0.7140  -12.3147    7.1628 H         1 <0>         0.0741
     38 H15         1.0657  -12.2836    7.1655 H         1 <0>         0.0741
     39 H16         0.0734   -4.4799    2.0098 H         1 <0>         0.4258
@<TRIPOS>BOND
     1    1    2 1
     2    1   24 1
     3    1   25 1
     4    1   26 1
     5    2    7 ar
     6    2    3 ar
     7    3    4 ar
     8    3   27 1
     9    4    5 ar
    10    4   28 1
    11    5    6 ar
    12    5    8 1
    13    6    7 ar
    14    6   29 1
    15    7   30 1
    16    8   12 1
    17    8    9 2
    18    9   10 1
    19    9   31 1
    20   10   11 1
    21   11   12 1
    22   11   13 2
    23   12   39 1
    24   13   14 1
    25   14   15 2
    26   14   16 2
    27   14   17 1
    28   17   22 ar
    29   17   18 ar
    30   18   19 ar
    31   18   32 1
    32   19   20 ar
    33   19   33 1
    34   20   21 ar
    35   20   23 1
    36   21   22 ar
    37   21   34 1
    38   22   35 1
    39   23   36 1
    40   23   37 1
    41   23   38 1
@<TRIPOS>MOLECULE
ZINC00475636
   38    40     0     0     0
SMALL
USER_CHARGES

@<TRIPOS>ATOM
      1 C1         -0.0184    1.5028    0.0103 C.3       1 <0>        -0.1095
      2 C2          0.0021   -0.0041    0.0020 C.ar      1 <0>        -0.0994
      3 C3          0.0057   -0.6865   -1.2013 C.ar      1 <0>        -0.1265
      4 C4          0.0239   -2.0663   -1.2150 C.ar      1 <0>        -0.0835
      5 C5          0.0392   -2.7724   -0.0132 C.ar      1 <0>        -0.0085
      6 C6          0.0359   -2.0794    1.1962 C.ar      1 <0>        -0.1060
      7 C7          0.0229   -0.6994    1.1977 C.ar      1 <0>        -0.1255
      8 C8          0.0583   -4.2553   -0.0214 C.2       1 <0>         0.1416
      9 C9          0.0681   -4.9519    1.1535 C.2       1 <0>        -0.2588
     10 S1          0.0895   -6.6328    0.5448 S.3       1 <0>        -0.2221
     11 C10         0.0831   -6.2415   -1.1990 C.2       1 <0>         0.4959
     12 N1          0.0605   -4.9217   -1.1739 N.2       1 <0>        -0.5836
     13 N2          0.0935   -7.0969   -2.2888 N.2       1 <0>        -1.0077
     14 S2          0.1143   -8.7361   -2.0545 S.o2      1 <0>         2.6210
     15 O1          1.3639   -9.0445   -1.4523 O.2       1 <0>        -1.0058
     16 O2         -1.1266   -9.0760   -1.4512 O.2       1 <0>        -1.0059
     17 C11         0.1231   -9.4899   -3.6471 C.ar      1 <0>        -0.6261
     18 C12        -1.0705   -9.7955   -4.2738 C.ar      1 <0>        -0.0165
     19 C13        -1.0636  -10.3869   -5.5232 C.ar      1 <0>        -0.1468
     20 C14         0.1369  -10.6721   -6.1463 C.ar      1 <0>        -0.0474
     21 C15         1.3306  -10.3657   -5.5200 C.ar      1 <0>        -0.1469
     22 C16         1.3236   -9.7704   -4.2724 C.ar      1 <0>        -0.0167
     23 C17         0.1445  -11.3177   -7.5080 C.3       1 <0>        -0.1174
     24 H1          1.0042    1.8801    0.0026 H         1 <0>         0.0653
     25 H2         -0.5455    1.8639   -0.8728 H         1 <0>         0.0622
     26 H3         -0.5286    1.8543    0.9071 H         1 <0>         0.0616
     27 H4         -0.0062   -0.1384   -2.1318 H         1 <0>         0.1180
     28 H5          0.0260   -2.5981   -2.1550 H         1 <0>         0.1355
     29 H6          0.0477   -2.6214    2.1304 H         1 <0>         0.1232
     30 H7          0.0244   -0.1614    2.1341 H         1 <0>         0.1180
     31 H8          0.0642   -4.5875    2.1702 H         1 <0>         0.1752
     32 H9         -2.0085   -9.5726   -3.7870 H         1 <0>         0.1384
     33 H10        -1.9962  -10.6263   -6.0125 H         1 <0>         0.1278
     34 H11         2.2686  -10.5889   -6.0066 H         1 <0>         0.1278
     35 H12         2.2562   -9.5276   -3.7847 H         1 <0>         0.1385
     36 H13         0.1385  -10.5448   -8.2765 H         1 <0>         0.0744
     37 H14         1.0401  -11.9296   -7.6150 H         1 <0>         0.0681
     38 H15        -0.7397  -11.9457   -7.6173 H         1 <0>         0.0681
@<TRIPOS>BOND
     1    1    2 1
     2    1   24 1
     3    1   25 1
     4    1   26 1
     5    2    7 ar
     6    2    3 ar
     7    3    4 ar
     8    3   27 1
     9    4    5 ar
    10    4   28 1
    11    5    6 ar
    12    5    8 1
    13    6    7 ar
    14    6   29 1
    15    7   30 1
    16    8   12 1
    17    8    9 2
    18    9   10 1
    19    9   31 1
    20   10   11 1
    21   11   12 2
    22   11   13 1
    23   13   14 1
    24   14   15 2
    25   14   16 2
    26   14   17 1
    27   17   22 ar
    28   17   18 ar
    29   18   19 ar
    30   18   32 1
    31   19   20 ar
    32   19   33 1
    33   20   21 ar
    34   20   23 1
    35   21   22 ar
    36   21   34 1
    37   22   35 1
    38   23   36 1
    39   23   37 1
    40   23   38 1
@<TRIPOS>MOLECULE
ZINC00019529
   25    25     0     0     0
SMALL
USER_CHARGES
2-amino-4-(3,4-dichlorophenyl)-4-oxo-butanoic acid
@<TRIPOS>ATOM
      1 C1          1.6038   -1.1686   -3.9664 C.ar      1 <0>        -0.0505
      2 C2          2.0468   -1.5093   -5.2265 C.ar      1 <0>        -0.1087
      3 C3          1.3139   -1.1454   -6.3441 C.ar      1 <0>         0.0045
      4 C4          0.1272   -0.4412   -6.2041 C.ar      1 <0>        -0.0482
      5 C5         -0.3310   -0.0992   -4.9492 C.ar      1 <0>        -0.0349
      6 C6          0.4049   -0.4639   -3.8165 C.ar      1 <0>        -0.1675
      7 C7         -0.0771   -0.1029   -2.4745 C.2       1 <0>         0.4048
      8 O1         -1.1144    0.5124   -2.3480 O.2       1 <0>        -0.4600
      9 C8          0.7182   -0.4975   -1.2568 C.3       1 <0>        -0.1626
     10 C9          0.0021   -0.0041    0.0020 C.3       1 <0>        -0.0088
     11 H1         -1.0205   -0.3814    0.0098 H         1 <0>         0.1461
     12 C10         0.7309   -0.5033    1.2229 C.2       1 <0>         0.4543
     13 O2          1.4853    0.2294    1.8179 O.co2     1 <0>        -0.6109
     14 Cl1        -0.7836    0.0099   -7.6115 Cl        1 <0>        -0.0315
     15 Cl2         1.8830   -1.5731   -7.9274 Cl        1 <0>        -0.0279
     16 H2          2.1789   -1.4492   -3.0964 H         1 <0>         0.1537
     17 H3          2.9700   -2.0576   -5.3429 H         1 <0>         0.1561
     18 H4         -1.2551    0.4491   -4.8410 H         1 <0>         0.1561
     19 H5          1.6284   -0.0861   -1.3054 H         1 <0>         0.1107
     20 H6          0.8116   -1.5829   -1.2198 H         1 <0>         0.1528
     21 H7          0.9191    1.8392    0.0032 H         1 <0>         0.4318
     22 H8         -0.5563    1.8234   -0.7642 H         1 <0>         0.4242
     23 O3          0.5421   -1.7619    1.6494 O.co2     1 <0>        -0.6963
     24 N1         -0.0294    1.4689    0.0323 N.4       1 <0>        -0.6266
     25 H9         -0.4837    1.7790    0.8993 H         1 <0>         0.4395
@<TRIPOS>BOND
     1    1    6 ar
     2    1    2 ar
     3    1   16 1
     4    2    3 ar
     5    2   17 1
     6    3    4 ar
     7    3   15 1
     8    4    5 ar
     9    4   14 1
    10    5    6 ar
    11    5   18 1
    12    6    7 1
    13    7    8 2
    14    7    9 1
    15    9   10 1
    16    9   19 1
    17    9   20 1
    18   10   11 1
    19   10   12 1
    20   10   24 1
    21   12   13 2
    22   12   23 1
    23   21   24 1
    24   22   24 1
    25   24   25 1
@<TRIPOS>MOLECULE
ZINC13776384
   25    25     0     0     0
SMALL
USER_CHARGES
(2R)-2-amino-4-(3,4-dichlorophenyl)-4-oxo-butanoic acid
@<TRIPOS>ATOM
      1 C1          1.1654    2.0900    0.0022 C.ar      1 <0>        -0.0504
      2 C2         -0.0167    1.3810    0.0096 C.ar      1 <0>        -0.1087
      3 C3          0.0021   -0.0041    0.0020 C.ar      1 <0>         0.0045
      4 C4          1.2088   -0.6876   -0.0132 C.ar      1 <0>        -0.0482
      5 C5          2.3990    0.0089   -0.0203 C.ar      1 <0>        -0.0348
      6 C6          2.3865    1.4079   -0.0127 C.ar      1 <0>        -0.1676
      7 C7          3.6518    2.1581   -0.0207 C.2       1 <0>         0.4048
      8 O1          4.7088    1.5641   -0.0340 O.2       1 <0>        -0.4599
      9 C8          3.6343    3.6650   -0.0124 C.3       1 <0>        -0.1626
     10 C9          5.0708    4.1917   -0.0233 C.3       1 <0>        -0.0088
     11 H1          5.6228    3.7589    0.8110 H         1 <0>         0.1462
     12 C10         5.0564    5.6928    0.1087 C.2       1 <0>         0.4542
     13 O2          5.1915    6.3868   -0.8711 O.co2     1 <0>        -0.6108
     14 Cl1         1.2209   -2.4236   -0.0226 Cl        1 <0>        -0.0316
     15 Cl2        -1.4918   -0.8884    0.0109 Cl        1 <0>        -0.0279
     16 H2          1.1488    3.1698    0.0077 H         1 <0>         0.1537
     17 H3         -0.9600    1.9067    0.0169 H         1 <0>         0.1560
     18 H4          3.3382   -0.5241   -0.0314 H         1 <0>         0.1561
     19 H5          3.1513    3.9972   -0.8226 H         1 <0>         0.1107
     20 H6          3.1248    4.0176    0.8843 H         1 <0>         0.1527
     21 H7          5.8000    2.8150   -1.3692 H         1 <0>         0.4242
     22 H8          5.2266    4.2070   -2.0761 H         1 <0>         0.4318
     23 O3          4.8935    6.2590    1.3149 O.co2     1 <0>        -0.6964
     24 N1          5.7426    3.8285   -1.2835 N.4       1 <0>        -0.6266
     25 H9          6.6921    4.2191   -1.2846 H         1 <0>         0.4395
@<TRIPOS>BOND
     1    1    6 ar
     2    1    2 ar
     3    1   16 1
     4    2    3 ar
     5    2   17 1
     6    3    4 ar
     7    3   15 1
     8    4    5 ar
     9    4   14 1
    10    5    6 ar
    11    5   18 1
    12    6    7 1
    13    7    8 2
    14    7    9 1
    15    9   10 1
    16    9   19 1
    17    9   20 1
    18   10   11 1
    19   10   12 1
    20   10   24 1
    21   12   13 2
    22   12   23 1
    23   21   24 1
    24   22   24 1
    25   24   25 1
@<TRIPOS>MOLECULE
ZINC28260029
   21    21     0     0     0
SMALL
USER_CHARGES

@<TRIPOS>ATOM
      1 C1         -0.0169    1.3946    0.0097 C.ar      1 <0>        -0.0502
      2 C2          1.1690    2.0971    0.0022 C.ar      1 <0>        -0.1106
      3 C3          2.3783    1.4217   -0.0130 C.ar      1 <0>        -0.0107
      4 C4          2.4055    0.0351   -0.0207 C.ar      1 <0>        -0.0431
      5 C5          1.2266   -0.6806   -0.0133 C.ar      1 <0>        -0.0544
      6 C6          0.0021   -0.0041    0.0020 C.ar      1 <0>        -0.1397
      7 C7         -1.2596   -0.7601    0.0105 C.2       1 <0>         0.3851
      8 C8         -1.2352   -2.2669    0.0022 C.3       1 <0>        -0.2141
      9 C9         -2.6476   -2.7923    0.0134 C.2       1 <0>         0.2915
     10 O1         -3.5781   -2.0225    0.0267 O.2       1 <0>        -0.4220
     11 C10        -2.8967   -4.2649    0.0079 C.2       1 <0>         0.4698
     12 O2         -4.0405   -4.6904    0.0170 O.co2     1 <0>        -0.6506
     13 O3         -1.9564   -5.0428   -0.0056 O.co2     1 <0>        -0.6675
     14 O4         -2.3194   -0.1710    0.0242 O.2       1 <0>        -0.4071
     15 Cl1         3.9265   -0.8014   -0.0403 Cl        1 <0>        -0.0433
     16 Cl2         3.8668    2.3151   -0.0230 Cl        1 <0>        -0.0470
     17 H1         -0.9587    1.9229    0.0260 H         1 <0>         0.1502
     18 H2          1.1553    3.1770    0.0077 H         1 <0>         0.1480
     19 H3          1.2487   -1.7603   -0.0197 H         1 <0>         0.1583
     20 H4         -0.7244   -2.6171   -0.8948 H         1 <0>         0.1287
     21 H5         -0.7067   -2.6266    0.8850 H         1 <0>         0.1287
@<TRIPOS>BOND
     1    1    6 ar
     2    1    2 ar
     3    1   17 1
     4    2    3 ar
     5    2   18 1
     6    3    4 ar
     7    3   16 1
     8    4    5 ar
     9    4   15 1
    10    5    6 ar
    11    5   19 1
    12    6    7 1
    13    7    8 1
    14    7   14 2
    15    8    9 1
    16    8   20 1
    17    8   21 1
    18    9   10 2
    19    9   11 1
    20   11   12 2
    21   11   13 1
@<TRIPOS>MOLECULE
ZINC03883923
   24    24     0     0     0
SMALL
USER_CHARGES

@<TRIPOS>ATOM
      1 C1         -0.0173    1.4248    0.0099 C.3       1 <0>         0.0285
      2 O1          0.0021   -0.0041    0.0020 O.3       1 <0>        -0.3381
      3 C2         -1.1897   -0.6319    0.0100 C.2       1 <0>         0.4691
      4 O2         -2.2168    0.0154    0.0233 O.2       1 <0>        -0.5196
      5 C3         -1.2472   -2.1118    0.0026 C.2       1 <0>         0.2749
      6 O3         -0.1026   -2.8331   -0.0122 O.3       1 <0>        -0.6119
      7 C4         -2.4445   -2.7425    0.0107 C.2       1 <0>        -0.4581
      8 C5         -2.5014   -4.2078    0.0033 C.2       1 <0>         0.4146
      9 O4         -1.4722   -4.8565   -0.0100 O.2       1 <0>        -0.4740
     10 C6         -3.8090   -4.8967    0.0121 C.ar      1 <0>        -0.1018
     11 C7         -4.9927   -4.1544    0.0216 C.ar      1 <0>        -0.0657
     12 C8         -6.2095   -4.8021    0.0299 C.ar      1 <0>        -0.1125
     13 C9         -6.2609   -6.1866    0.0287 C.ar      1 <0>        -0.0270
     14 C10        -5.0903   -6.9293    0.0193 C.ar      1 <0>        -0.0410
     15 C11        -3.8663   -6.2922    0.0052 C.ar      1 <0>        -0.0626
     16 Cl1        -5.1645   -8.6637    0.0185 Cl        1 <0>        -0.0592
     17 Cl2        -7.7974   -6.9946    0.0397 Cl        1 <0>        -0.0616
     18 H1          1.0053    1.8021    0.0021 H         1 <0>         0.0932
     19 H2         -0.5445    1.7859   -0.8732 H         1 <0>         0.0530
     20 H3         -0.5275    1.7763    0.9067 H         1 <0>         0.0530
     21 H4         -3.3582   -2.1667    0.0225 H         1 <0>         0.1045
     22 H5         -4.9543   -3.0751    0.0229 H         1 <0>         0.1508
     23 H6         -7.1248   -4.2289    0.0376 H         1 <0>         0.1420
     24 H7         -2.9548   -6.8713   -0.0067 H         1 <0>         0.1498
@<TRIPOS>BOND
     1    1    2 1
     2    1   18 1
     3    1   19 1
     4    1   20 1
     5    2    3 1
     6    3    4 2
     7    3    5 1
     8    5    6 1
     9    5    7 2
    10    7    8 1
    11    7   21 1
    12    8    9 2
    13    8   10 1
    14   10   15 ar
    15   10   11 ar
    16   11   12 ar
    17   11   22 1
    18   12   13 ar
    19   12   23 1
    20   13   14 ar
    21   13   17 1
    22   14   15 ar
    23   14   16 1
    24   15   24 1
@<TRIPOS>MOLECULE
ZINC03883923
   25    25     0     0     0
SMALL
USER_CHARGES
methyl 4-(3,4-dichlorophenyl)-2,4-dioxo-butanoate
@<TRIPOS>ATOM
      1 C1          6.2061    1.2446   -0.0504 C.3       1 <0>         0.0302
      2 O1          4.8721    0.6714   -0.0409 O.3       1 <0>        -0.3341
      3 C2          3.8373    1.5320   -0.0264 C.2       1 <0>         0.4298
      4 O2          4.0427    2.7271   -0.0219 O.2       1 <0>        -0.4756
      5 C3          2.4389    1.0160   -0.0158 C.2       1 <0>         0.3684
      6 O3          2.2343   -0.1743   -0.0203 O.2       1 <0>        -0.3495
      7 C4          1.2803    1.9796    0.0005 C.3       1 <0>        -0.2541
      8 C5         -0.0144    1.2084    0.0087 C.2       1 <0>         0.4301
      9 O4          0.0021   -0.0041    0.0020 O.2       1 <0>        -0.4048
     10 C6         -1.2981    1.9265    0.0187 C.ar      1 <0>        -0.1523
     11 C7         -1.3207    3.3254    0.0322 C.ar      1 <0>        -0.0582
     12 C8         -2.5268    3.9921    0.0347 C.ar      1 <0>        -0.1075
     13 C9         -3.7158    3.2807    0.0370 C.ar      1 <0>        -0.0019
     14 C10        -3.7017    1.8943    0.0299 C.ar      1 <0>        -0.0440
     15 C11        -2.5017    1.2140    0.0205 C.ar      1 <0>        -0.0377
     16 Cl1        -5.1972    1.0127    0.0322 Cl        1 <0>        -0.0333
     17 Cl2        -5.2303    4.1293    0.0481 Cl        1 <0>        -0.0328
     18 H1          6.3286    1.8649   -0.9383 H         1 <0>         0.0702
     19 H2          6.3456    1.8553    0.8416 H         1 <0>         0.0689
     20 H3          6.9455    0.4438   -0.0619 H         1 <0>         0.1097
     21 H4          1.0331    2.1876    0.9469 H         1 <0>         0.1136
     22 H5          1.6581    3.0020    0.0024 H         1 <0>         0.2026
     23 H6         -0.3950    3.8816    0.0357 H         1 <0>         0.1510
     24 H7         -2.5453    5.0719    0.0403 H         1 <0>         0.1540
     25 H8         -2.4916    0.1340    0.0150 H         1 <0>         0.1574
@<TRIPOS>BOND
     1    1    2 1
     2    1   18 1
     3    1   19 1
     4    1   20 1
     5    2    3 1
     6    3    4 2
     7    3    5 1
     8    5    7 1
     9    5    6 2
    10    7   21 1
    11    7   22 1
    12    7    8 1
    13    8   10 1
    14    8    9 2
    15   10   15 ar
    16   10   11 ar
    17   11   12 ar
    18   11   23 1
    19   12   13 ar
    20   12   24 1
    21   13   14 ar
    22   13   17 1
    23   14   15 ar
    24   14   16 1
    25   15   25 1
@<TRIPOS>MOLECULE
ZINC02566916
   27    27     0     0     0
SMALL
USER_CHARGES
2-amino-4-(3-nitrophenyl)-4-oxo-butanoic acid
@<TRIPOS>ATOM
      1 C1          0.3283    5.9074   -4.9996 C.ar      1 <0>        -0.1225
      2 C2          0.5418    5.1970   -3.8371 C.ar      1 <0>        -0.0197
      3 C3          0.6995    5.8771   -2.6255 C.ar      1 <0>        -0.1781
      4 C4          0.6339    7.2741   -2.6023 C.ar      1 <0>         0.0051
      5 C5          0.4242    7.9702   -3.7737 C.ar      1 <0>        -0.0549
      6 C6          0.2695    7.2897   -4.9692 C.ar      1 <0>        -0.0172
      7 N1          0.3591    9.4486   -3.7522 N.pl3     1 <0>         0.0237
      8 O1          0.1696   10.0650   -4.7856 O.2       1 <0>        -0.1461
      9 O2          0.4950   10.0490   -2.7012 O.3       1 <0>        -0.1499
     10 C7          0.9272    5.1266   -1.3802 C.2       1 <0>         0.4040
     11 O3          1.0635    5.7195   -0.3313 O.2       1 <0>        -0.4540
     12 C8          0.9909    3.6212   -1.4086 C.3       1 <0>        -0.1616
     13 C9          1.2350    3.0943    0.0069 C.3       1 <0>        -0.0093
     14 H1          0.4688    3.4843    0.6769 H         1 <0>         0.1470
     15 C10         1.1765    1.5884   -0.0006 C.2       1 <0>         0.4542
     16 O4          2.1986    0.9442   -0.0139 O.co2     1 <0>        -0.6097
     17 H2          0.2063    5.3836   -5.9362 H         1 <0>         0.1616
     18 H3          0.5867    4.1182   -3.8623 H         1 <0>         0.1577
     19 H4          0.7503    7.8062   -1.6698 H         1 <0>         0.1663
     20 H5          0.1016    7.8404   -5.8830 H         1 <0>         0.1638
     21 H6          1.7383    3.3304   -2.0060 H         1 <0>         0.1116
     22 H7          0.0485    3.2247   -1.7864 H         1 <0>         0.1537
     23 H8          3.2870    3.1816   -0.1348 H         1 <0>         0.4320
     24 H9          2.6024    4.5358    0.5458 H         1 <0>         0.4243
     25 O5         -0.0110    0.9628    0.0073 O.co2     1 <0>        -0.6955
     26 N2          2.5594    3.5194    0.4930 N.4       1 <0>        -0.6269
     27 H10         2.7168    3.1284    1.4293 H         1 <0>         0.4405
@<TRIPOS>BOND
     1    1    6 ar
     2    1    2 ar
     3    1   17 1
     4    2    3 ar
     5    2   18 1
     6    3    4 ar
     7    3   10 1
     8    4    5 ar
     9    4   19 1
    10    5    6 ar
    11    5    7 1
    12    6   20 1
    13    7    8 2
    14    7    9 1
    15   10   11 2
    16   10   12 1
    17   12   13 1
    18   12   21 1
    19   12   22 1
    20   13   14 1
    21   13   15 1
    22   13   26 1
    23   15   16 2
    24   15   25 1
    25   23   26 1
    26   24   26 1
    27   26   27 1
@<TRIPOS>MOLECULE
ZINC13800658
   21    21     0     0     0
SMALL
USER_CHARGES

@<TRIPOS>ATOM
      1 C1         -0.0169    1.3948    0.0097 C.ar      1 <0>        -0.0542
      2 C2          1.1691    2.0967    0.0022 C.ar      1 <0>        -0.1240
      3 C3          2.3783    1.4202   -0.0130 C.ar      1 <0>        -0.0137
      4 C4          2.4048    0.0348   -0.0207 C.ar      1 <0>        -0.1225
      5 C5          1.2267   -0.6803   -0.0133 C.ar      1 <0>        -0.0612
      6 C6          0.0021   -0.0041    0.0020 C.ar      1 <0>        -0.1531
      7 C7         -1.2595   -0.7602    0.0105 C.2       1 <0>         0.3828
      8 O1         -2.3194   -0.1712    0.0242 O.2       1 <0>        -0.4131
      9 C8         -1.2350   -2.2670    0.0022 C.3       1 <0>        -0.2126
     10 C9         -2.6473   -2.7925    0.0134 C.2       1 <0>         0.2905
     11 O2         -3.5779   -2.0229    0.0267 O.2       1 <0>        -0.4220
     12 C10        -2.8962   -4.2652    0.0079 C.2       1 <0>         0.4696
     13 O3         -4.0400   -4.6907    0.0170 O.co2     1 <0>        -0.6513
     14 O4         -1.9558   -5.0430   -0.0056 O.co2     1 <0>        -0.6685
     15 Cl1         3.8673    2.3126   -0.0230 Cl        1 <0>        -0.0700
     16 H1         -0.9586    1.9233    0.0260 H         1 <0>         0.1429
     17 H2          1.1560    3.1766    0.0077 H         1 <0>         0.1376
     18 H3          3.3509   -0.4859   -0.0329 H         1 <0>         0.1400
     19 H4          1.2488   -1.7600   -0.0197 H         1 <0>         0.1484
     20 H5         -0.7241   -2.6171   -0.8948 H         1 <0>         0.1272
     21 H6         -0.7065   -2.6267    0.8850 H         1 <0>         0.1272
@<TRIPOS>BOND
     1    1    6 ar
     2    1    2 ar
     3    1   16 1
     4    2    3 ar
     5    2   17 1
     6    3    4 ar
     7    3   15 1
     8    4    5 ar
     9    4   18 1
    10    5    6 ar
    11    5   19 1
    12    6    7 1
    13    7    8 2
    14    7    9 1
    15    9   10 1
    16    9   20 1
    17    9   21 1
    18   10   11 2
    19   10   12 1
    20   12   13 2
    21   12   14 1
@<TRIPOS>MOLECULE
ZINC13803770
   24    24     0     0     0
SMALL
USER_CHARGES

@<TRIPOS>ATOM
      1 C1         -0.0173    1.4248    0.0099 C.3       1 <0>         0.0285
      2 O1          0.0021   -0.0041    0.0020 O.3       1 <0>        -0.3381
      3 C2         -1.1897   -0.6319    0.0100 C.2       1 <0>         0.4692
      4 O2         -2.2168    0.0154    0.0233 O.2       1 <0>        -0.5196
      5 C3         -1.2472   -2.1117    0.0026 C.2       1 <0>         0.2746
      6 O3         -0.1026   -2.8331   -0.0122 O.3       1 <0>        -0.6121
      7 C4         -2.4445   -2.7424    0.0107 C.2       1 <0>        -0.4580
      8 C5         -2.5013   -4.2079    0.0033 C.2       1 <0>         0.4150
      9 C6         -3.8084   -4.8964    0.0121 C.ar      1 <0>        -0.1005
     10 C7         -4.9921   -4.1536    0.0216 C.ar      1 <0>        -0.0628
     11 C8         -6.2091   -4.8001    0.0293 C.ar      1 <0>        -0.1385
     12 C9         -6.2618   -6.1856    0.0281 C.ar      1 <0>         0.0664
     13 C10        -5.0893   -6.9299    0.0187 C.ar      1 <0>         0.0536
     14 C11        -3.8653   -6.2924    0.0052 C.ar      1 <0>        -0.0894
     15 F1         -5.1471   -8.2797    0.0177 F         1 <0>        -0.1337
     16 F2         -7.4579   -6.8137    0.0366 F         1 <0>        -0.1344
     17 O4         -1.4720   -4.8566   -0.0100 O.2       1 <0>        -0.4745
     18 H1          1.0053    1.8021    0.0021 H         1 <0>         0.0931
     19 H2         -0.5445    1.7859   -0.8732 H         1 <0>         0.0530
     20 H3         -0.5275    1.7763    0.9067 H         1 <0>         0.0531
     21 H4         -3.3581   -2.1666    0.0225 H         1 <0>         0.1050
     22 H5         -4.9531   -3.0743    0.0232 H         1 <0>         0.1524
     23 H6         -7.1240   -4.2261    0.0366 H         1 <0>         0.1451
     24 H7         -2.9536   -6.8712   -0.0066 H         1 <0>         0.1528
@<TRIPOS>BOND
     1    1    2 1
     2    1   18 1
     3    1   19 1
     4    1   20 1
     5    2    3 1
     6    3    4 2
     7    3    5 1
     8    5    6 1
     9    5    7 2
    10    7    8 1
    11    7   21 1
    12    8    9 1
    13    8   17 2
    14    9   14 ar
    15    9   10 ar
    16   10   11 ar
    17   10   22 1
    18   11   12 ar
    19   11   23 1
    20   12   13 ar
    21   12   16 1
    22   13   14 ar
    23   13   15 1
    24   14   24 1
@<TRIPOS>MOLECULE
ZINC13803770
   25    25     0     0     0
SMALL
USER_CHARGES
methyl (Z)-4-(3,4-difluorophenyl)-2-hydroxy-4-oxo-but-2-enoate
@<TRIPOS>ATOM
      1 C1         -3.6503   -0.8641    0.1981 C.3       1 <0>         0.0301
      2 O1         -2.4192   -0.1166    0.3821 O.3       1 <0>        -0.3283
      3 C2         -1.2707   -0.7394    0.0537 C.2       1 <0>         0.4629
      4 O2         -1.2970   -1.8751   -0.3744 O.2       1 <0>        -0.4686
      5 C3          0.0239   -0.0386    0.2150 C.2       1 <0>         0.3467
      6 C4          1.1776   -0.6642   -0.1149 C.3       1 <0>        -0.2494
      7 C5          2.4401    0.0822   -0.1232 C.2       1 <0>         0.4198
      8 O3          2.4375    1.2841    0.0661 O.2       1 <0>        -0.4042
      9 C6          3.7149   -0.6254   -0.3613 C.ar      1 <0>        -0.1502
     10 C7          4.9192    0.0835   -0.3697 C.ar      1 <0>        -0.0344
     11 C8          6.1061   -0.5806   -0.5923 C.ar      1 <0>        -0.1313
     12 C9          6.1080   -1.9503   -0.8075 C.ar      1 <0>         0.1047
     13 C10         4.9149   -2.6610   -0.8001 C.ar      1 <0>         0.0646
     14 C11         3.7212   -2.0063   -0.5733 C.ar      1 <0>        -0.0917
     15 F1          4.9232   -3.9956   -1.0095 F         1 <0>        -0.1196
     16 F2          7.2748   -2.5959   -1.0247 F         1 <0>        -0.1173
     17 O4          0.0531    1.2272    0.6922 O.2       1 <0>        -0.4042
     18 H1         -3.7556   -1.1381   -0.8517 H         1 <0>         0.0715
     19 H2         -3.6219   -1.7669    0.8082 H         1 <0>         0.0703
     20 H3         -4.4978   -0.2484    0.4996 H         1 <0>         0.1112
     21 H4          1.1687   -1.7131   -0.3721 H         1 <0>         0.1848
     22 H5          4.9198    1.1504   -0.2023 H         1 <0>         0.1578
     23 H6          7.0369   -0.0328   -0.5988 H         1 <0>         0.1592
     24 H7          2.7938   -2.5597   -0.5630 H         1 <0>         0.1563
     25 H8          1.5997   -1.0415    0.7094 H         1 <0>         0.1591
@<TRIPOS>BOND
     1    1    2 1
     2    1   18 1
     3    1   19 1
     4    1   20 1
     5    2    3 1
     6    3    4 2
     7    3    5 1
     8    5    6 1
     9    5   17 2
    10    6   25 1
    11    6   21 1
    12    6    7 1
    13    7    9 1
    14    7    8 2
    15    9   14 ar
    16    9   10 ar
    17   10   11 ar
    18   10   22 1
    19   11   12 ar
    20   11   23 1
    21   12   13 ar
    22   12   16 1
    23   13   14 ar
    24   13   15 1
    25   14   24 1
@<TRIPOS>MOLECULE
ZINC04771521
   24    24     0     0     0
SMALL
USER_CHARGES

@<TRIPOS>ATOM
      1 C1         -0.0173    1.4248    0.0099 C.3       1 <0>         0.0285
      2 O1          0.0021   -0.0041    0.0020 O.3       1 <0>        -0.3383
      3 C2          0.6203   -0.6130    1.0324 C.2       1 <0>         0.4692
      4 O2          1.1288    0.0504    1.9129 O.2       1 <0>        -0.5203
      5 C3          0.6798   -2.0917    1.0910 C.2       1 <0>         0.2727
      6 O3          0.1131   -2.8309    0.1097 O.3       1 <0>        -0.6145
      7 C4          1.3010   -2.7035    2.1262 C.2       1 <0>        -0.4576
      8 C5          1.3598   -4.1675    2.1843 C.2       1 <0>         0.4150
      9 C6          2.0384   -4.8358    3.3151 C.ar      1 <0>        -0.1082
     10 C7          2.6194   -4.0756    4.3328 C.ar      1 <0>        -0.0771
     11 C8          3.2506   -4.7048    5.3853 C.ar      1 <0>        -0.1232
     12 C9          3.3094   -6.0866    5.4352 C.ar      1 <0>        -0.1080
     13 C10         2.7357   -6.8469    4.4299 C.ar      1 <0>        -0.0467
     14 C11         2.0962   -6.2296    3.3734 C.ar      1 <0>        -0.0732
     15 Cl1         2.8150   -8.5796    4.5018 Cl        1 <0>        -0.0825
     16 O4          0.8503   -4.8322    1.3019 O.2       1 <0>        -0.4769
     17 H1          1.0053    1.8021    0.0021 H         1 <0>         0.0528
     18 H2         -0.5445    1.7859   -0.8732 H         1 <0>         0.0929
     19 H3         -0.5275    1.7763    0.9067 H         1 <0>         0.0528
     20 H4          1.7533   -2.1134    2.9095 H         1 <0>         0.1036
     21 H5          2.5748   -2.9972    4.2953 H         1 <0>         0.1405
     22 H6          3.7003   -4.1177    6.1723 H         1 <0>         0.1307
     23 H7          3.8053   -6.5741    6.2616 H         1 <0>         0.1284
     24 H8          1.6452   -6.8233    2.5921 H         1 <0>         0.1398
@<TRIPOS>BOND
     1    1    2 1
     2    1   17 1
     3    1   18 1
     4    1   19 1
     5    2    3 1
     6    3    4 2
     7    3    5 1
     8    5    6 1
     9    5    7 2
    10    7    8 1
    11    7   20 1
    12    8    9 1
    13    8   16 2
    14    9   14 ar
    15    9   10 ar
    16   10   11 ar
    17   10   21 1
    18   11   12 ar
    19   11   22 1
    20   12   13 ar
    21   12   23 1
    22   13   14 ar
    23   13   15 1
    24   14   24 1
@<TRIPOS>MOLECULE
ZINC04771521
   25    25     0     0     0
SMALL
USER_CHARGES

@<TRIPOS>ATOM
      1 C1         -0.0173    1.4248    0.0099 C.3       1 <0>         0.0277
      2 O1          0.0021   -0.0041    0.0020 O.3       1 <0>        -0.3299
      3 C2          0.6198   -0.6124    1.0315 C.2       1 <0>         0.4260
      4 O2          1.1277    0.0502    1.9110 O.2       1 <0>        -0.4704
      5 C3          0.6796   -2.1007    1.0905 C.2       1 <0>         0.3657
      6 C4          1.3713   -2.7819    2.2431 C.3       1 <0>        -0.1959
      7 C5          1.2912   -4.2762    2.0649 C.2       1 <0>         0.3938
      8 O3          0.7281   -4.7420    1.0973 O.2       1 <0>        -0.4077
      9 C6          1.8965   -5.1701    3.0651 C.ar      1 <0>        -0.1553
     10 C7          2.5419   -4.6365    4.1855 C.ar      1 <0>        -0.0716
     11 C8          3.1063   -5.4799    5.1187 C.ar      1 <0>        -0.1162
     12 C9          3.0362   -6.8518    4.9495 C.ar      1 <0>        -0.0770
     13 C10         2.3995   -7.3884    3.8429 C.ar      1 <0>        -0.0474
     14 C11         1.8242   -6.5570    2.9031 C.ar      1 <0>        -0.0515
     15 Cl1         2.3183   -9.1107    3.6409 Cl        1 <0>        -0.0570
     16 O4          0.1738   -2.7606    0.2145 O.2       1 <0>        -0.3451
     17 H1          1.0053    1.8021    0.0021 H         1 <0>         0.0668
     18 H2         -0.5445    1.7859   -0.8732 H         1 <0>         0.1097
     19 H3         -0.5275    1.7763    0.9067 H         1 <0>         0.0668
     20 H4          2.4168   -2.4750    2.2722 H         1 <0>         0.1480
     21 H5          2.5983   -3.5663    4.3190 H         1 <0>         0.1421
     22 H6          3.6048   -5.0689    5.9841 H         1 <0>         0.1427
     23 H7          3.4806   -7.5071    5.6839 H         1 <0>         0.1409
     24 H8          1.3237   -6.9764    2.0429 H         1 <0>         0.1467
     25 H9          0.8840   -2.5007    3.1767 H         1 <0>         0.1480
@<TRIPOS>BOND
     1    1    2 1
     2    1   17 1
     3    1   18 1
     4    1   19 1
     5    2    3 1
     6    3    4 2
     7    3    5 1
     8    5    6 1
     9    5   16 2
    10    6    7 1
    11    6   20 1
    12    6   25 1
    13    7    8 2
    14    7    9 1
    15    9   14 ar
    16    9   10 ar
    17   10   11 ar
    18   10   21 1
    19   11   12 ar
    20   11   22 1
    21   12   13 ar
    22   12   23 1
    23   13   14 ar
    24   13   15 1
    25   14   24 1
@<TRIPOS>MOLECULE
ZINC13803778
   27    27     0     0     0
SMALL
USER_CHARGES

@<TRIPOS>ATOM
      1 C1         -0.0184    1.5028    0.0103 C.3       1 <0>        -0.1146
      2 C2          0.0021   -0.0041    0.0020 C.ar      1 <0>        -0.0921
      3 C3          0.0057   -0.6855   -1.1966 C.ar      1 <0>        -0.0713
      4 C4          0.0246   -2.0821   -1.2026 C.ar      1 <0>        -0.1112
      5 C5          0.0398   -2.7800    0.0078 C.ar      1 <0>        -0.0756
      6 C6          0.0360   -2.0873    1.1994 C.ar      1 <0>        -0.1213
      7 C7          0.0229   -0.7016    1.1987 C.ar      1 <0>        -0.0321
      8 Cl1         0.0260    0.1636    2.7037 Cl        1 <0>        -0.0821
      9 C8          0.0281   -2.8187   -2.4839 C.2       1 <0>         0.4146
     10 C9          0.0480   -4.2850   -2.4866 C.2       1 <0>        -0.4579
     11 C10         0.0512   -4.9595   -3.6599 C.2       1 <0>         0.2724
     12 O1          0.0360   -4.2809   -4.8304 O.3       1 <0>        -0.6153
     13 C11         0.0713   -6.4403   -3.6627 C.2       1 <0>         0.4689
     14 O2          0.0849   -7.0492   -2.6125 O.2       1 <0>        -0.5202
     15 O3          0.0745   -7.1117   -4.8306 O.3       1 <0>        -0.3385
     16 C12         0.0943   -8.5387   -4.7585 C.3       1 <0>         0.0285
     17 O4          0.0145   -2.2085   -3.5364 O.2       1 <0>        -0.4781
     18 H1          1.0042    1.8801    0.0026 H         1 <0>         0.0717
     19 H2         -0.5455    1.8639   -0.8728 H         1 <0>         0.0699
     20 H3         -0.5286    1.8543    0.9071 H         1 <0>         0.0698
     21 H4         -0.0065   -0.1405   -2.1290 H         1 <0>         0.1385
     22 H5          0.0541   -3.8599    0.0096 H         1 <0>         0.1431
     23 H6          0.0478   -2.6256    2.1357 H         1 <0>         0.1315
     24 H7          0.0601   -4.8267   -1.5524 H         1 <0>         0.1032
     25 H8          0.9914   -8.8635   -4.2315 H         1 <0>         0.0527
     26 H9         -0.7883   -8.8877   -4.2225 H         1 <0>         0.0527
     27 H10         0.0948   -8.9535   -5.7665 H         1 <0>         0.0929
@<TRIPOS>BOND
     1    1    2 1
     2    1   18 1
     3    1   19 1
     4    1   20 1
     5    2    7 ar
     6    2    3 ar
     7    3    4 ar
     8    3   21 1
     9    4    5 ar
    10    4    9 1
    11    5    6 ar
    12    5   22 1
    13    6    7 ar
    14    6   23 1
    15    7    8 1
    16    9   10 1
    17    9   17 2
    18   10   11 2
    19   10   24 1
    20   11   12 1
    21   11   13 1
    22   13   14 2
    23   13   15 1
    24   15   16 1
    25   16   25 1
    26   16   26 1
    27   16   27 1
@<TRIPOS>MOLECULE
ZINC13803778
   28    28     0     0     0
SMALL
USER_CHARGES
methyl (Z)-4-(4-chloro-3-methyl-phenyl)-2-hydroxy-4-oxo-but-2-enoate
@<TRIPOS>ATOM
      1 C1          3.7139   -0.7299   -0.0368 C.3       1 <0>        -0.1240
      2 C2          2.4050    0.0169   -0.0208 C.ar      1 <0>        -0.0817
      3 C3          2.3996    1.3956   -0.0129 C.ar      1 <0>        -0.0454
      4 C4          1.1855    2.0862    0.0019 C.ar      1 <0>        -0.1596
      5 C5         -0.0166    1.3742    0.0096 C.ar      1 <0>        -0.0769
      6 C6          0.0021   -0.0041    0.0020 C.ar      1 <0>        -0.1128
      7 C7          1.2097   -0.6834   -0.0136 C.ar      1 <0>        -0.0084
      8 Cl1         1.2249   -2.4193   -0.0237 Cl        1 <0>        -0.0517
      9 C8          1.1726    3.5640    0.0095 C.2       1 <0>         0.4148
     10 O1          2.2208    4.1816    0.0028 O.2       1 <0>        -0.4105
     11 C9         -0.1037    4.2861    0.0251 C.3       1 <0>        -0.2490
     12 C10        -0.1156    5.6394    0.0320 C.2       1 <0>         0.3444
     13 C11        -1.4045    6.3685    0.0478 C.2       1 <0>         0.4632
     14 O2         -2.4506    5.7523    0.0544 O.2       1 <0>        -0.4711
     15 O3         -1.4163    7.7156    0.0547 O.3       1 <0>        -0.3279
     16 C12        -2.7157    8.3633    0.0701 C.3       1 <0>         0.0300
     17 O4          1.0501    6.3261    0.0246 O.2       1 <0>        -0.4031
     18 H1          4.0200   -0.9044   -1.0683 H         1 <0>         0.0815
     19 H2          4.4752   -0.1396    0.4732 H         1 <0>         0.0765
     20 H3          3.5932   -1.6857    0.4730 H         1 <0>         0.0777
     21 H4          3.3320    1.9405   -0.0182 H         1 <0>         0.1476
     22 H5         -0.9585    1.9025    0.0169 H         1 <0>         0.1426
     23 H6         -0.9264   -0.5556    0.0079 H         1 <0>         0.1449
     24 H7         -1.0342    3.7379    0.0310 H         1 <0>         0.1870
     25 H8         -2.5824    9.4451    0.0743 H         1 <0>         0.1112
     26 H9         -3.2784    8.0701   -0.8162 H         1 <0>         0.0714
     27 H10        -3.2618    8.0611    0.9637 H         1 <0>         0.0702
     28 H11        -0.0920    3.9481    0.9662 H         1 <0>         0.1594
@<TRIPOS>BOND
     1    1    2 1
     2    1   18 1
     3    1   19 1
     4    1   20 1
     5    2    7 ar
     6    2    3 ar
     7    3    4 ar
     8    3   21 1
     9    4    5 ar
    10    4    9 1
    11    5    6 ar
    12    5   22 1
    13    6    7 ar
    14    6   23 1
    15    7    8 1
    16    9   11 1
    17    9   10 2
    18   11   28 1
    19   11   24 1
    20   11   12 1
    21   12   13 1
    22   12   17 2
    23   13   14 2
    24   13   15 1
    25   15   16 1
    26   16   25 1
    27   16   26 1
    28   16   27 1
@<TRIPOS>MOLECULE
ZINC13803780
   24    24     0     0     0
SMALL
USER_CHARGES

@<TRIPOS>ATOM
      1 C1         -0.0184    1.5028    0.0103 C.3       1 <0>        -0.1184
      2 C2          0.0021   -0.0041    0.0020 C.ar      1 <0>        -0.0903
      3 C3          0.0057   -0.6850   -1.1964 C.ar      1 <0>        -0.0558
      4 C4          0.0252   -2.0837   -1.2021 C.ar      1 <0>        -0.1487
      5 C5          0.0408   -2.7814    0.0106 C.ar      1 <0>        -0.0677
      6 C6          0.0369   -2.0873    1.2010 C.ar      1 <0>        -0.1180
      7 C7          0.0229   -0.7015    1.1989 C.ar      1 <0>        -0.0164
      8 Cl1         0.0248    0.1646    2.7034 Cl        1 <0>        -0.0676
      9 C8          0.0287   -2.8175   -2.4769 C.2       1 <0>         0.3832
     10 C9          0.0497   -4.3243   -2.4788 C.3       1 <0>        -0.2123
     11 C10         0.0492   -4.8248   -3.9003 C.2       1 <0>         0.2905
     12 O1          0.0335   -4.0389   -4.8172 O.2       1 <0>        -0.4220
     13 C11         0.0682   -6.2927   -4.1751 C.2       1 <0>         0.4696
     14 O2          0.0679   -6.6981   -5.3263 O.co2     1 <0>        -0.6515
     15 O3          0.0841   -7.0869   -3.2486 O.co2     1 <0>        -0.6684
     16 O4          0.0148   -2.2099   -3.5262 O.2       1 <0>        -0.4132
     17 H1          1.0042    1.8801    0.0026 H         1 <0>         0.0759
     18 H2         -0.5455    1.8639   -0.8728 H         1 <0>         0.0727
     19 H3         -0.5286    1.8543    0.9071 H         1 <0>         0.0736
     20 H4         -0.0067   -0.1400   -2.1287 H         1 <0>         0.1423
     21 H5          0.0555   -3.8613    0.0137 H         1 <0>         0.1480
     22 H6          0.0489   -2.6245    2.1378 H         1 <0>         0.1400
     23 H7          0.9473   -4.6759   -1.9702 H         1 <0>         0.1272
     24 H8         -0.8324   -4.7006   -1.9608 H         1 <0>         0.1272
@<TRIPOS>BOND
     1    1    2 1
     2    1   17 1
     3    1   18 1
     4    1   19 1
     5    2    7 ar
     6    2    3 ar
     7    3    4 ar
     8    3   20 1
     9    4    5 ar
    10    4    9 1
    11    5    6 ar
    12    5   21 1
    13    6    7 ar
    14    6   22 1
    15    7    8 1
    16    9   10 1
    17    9   16 2
    18   10   11 1
    19   10   23 1
    20   10   24 1
    21   11   12 2
    22   11   13 1
    23   13   14 2
    24   13   15 1
@<TRIPOS>MOLECULE
ZINC06092539
   27    27     0     0     0
SMALL
USER_CHARGES
2-amino-4-(3-nitrophenyl)-4-oxo-butanoic acid
@<TRIPOS>ATOM
      1 C1          3.1366   -1.4962   -4.6616 C.ar      1 <0>        -0.1224
      2 C2          2.3538   -1.1655   -3.5755 C.ar      1 <0>        -0.0196
      3 C3          2.9053   -0.4374   -2.5167 C.ar      1 <0>        -0.1781
      4 C4          4.2469   -0.0457   -2.5709 C.ar      1 <0>         0.0051
      5 C5          5.0176   -0.3879   -3.6616 C.ar      1 <0>        -0.0548
      6 C6          4.4644   -1.1092   -4.7055 C.ar      1 <0>        -0.0172
      7 N1          6.4387    0.0216   -3.7188 N.pl3     1 <0>         0.0237
      8 O1          7.1199   -0.2762   -4.6836 O.2       1 <0>        -0.1460
      9 O2          6.9271    0.6563   -2.8011 O.3       1 <0>        -0.1500
     10 C7          2.0767   -0.0798   -1.3542 C.2       1 <0>         0.4042
     11 O3          2.5581    0.5516   -0.4378 O.2       1 <0>        -0.4537
     12 C8          0.6299   -0.4984   -1.3027 C.3       1 <0>        -0.1586
     13 C9          0.0021   -0.0041    0.0020 C.3       1 <0>        -0.0087
     14 H1          0.5890   -0.3641    0.8470 H         1 <0>         0.1468
     15 C10        -1.4074   -0.5262    0.1106 C.2       1 <0>         0.4541
     16 O4         -2.3398    0.1885   -0.1718 O.co2     1 <0>        -0.6096
     17 H2          2.7121   -2.0585   -5.4802 H         1 <0>         0.1616
     18 H3          1.3174   -1.4676   -3.5430 H         1 <0>         0.1577
     19 H4          4.6788    0.5207   -1.7590 H         1 <0>         0.1663
     20 H5          5.0723   -1.3710   -5.5590 H         1 <0>         0.1638
     21 H6          0.5698   -1.4957   -1.3446 H         1 <0>         0.1336
     22 H7          0.0963   -0.0663   -2.1493 H         1 <0>         0.1268
     23 H8          0.9191    1.8392    0.0032 H         1 <0>         0.4244
     24 H9         -0.5563    1.8234   -0.7642 H         1 <0>         0.4320
     25 O5         -1.6270   -1.7851    0.5212 O.co2     1 <0>        -0.6951
     26 N2         -0.0294    1.4689    0.0323 N.4       1 <0>        -0.6266
     27 H10        -0.4837    1.7790    0.8993 H         1 <0>         0.4404
@<TRIPOS>BOND
     1    1    6 ar
     2    1    2 ar
     3    1   17 1
     4    2    3 ar
     5    2   18 1
     6    3    4 ar
     7    3   10 1
     8    4    5 ar
     9    4   19 1
    10    5    6 ar
    11    5    7 1
    12    6   20 1
    13    7    8 2
    14    7    9 1
    15   10   11 2
    16   10   12 1
    17   12   13 1
    18   12   21 1
    19   12   22 1
    20   13   14 1
    21   13   15 1
    22   13   26 1
    23   15   16 2
    24   15   25 1
    25   23   26 1
    26   24   26 1
    27   26   27 1
@<TRIPOS>MOLECULE
ZINC13803772
   24    24     0     0     0
SMALL
USER_CHARGES
methyl 4-(3-chloro-4-fluoro-phenyl)-2,4-dioxo-butanoate
@<TRIPOS>ATOM
      1 C1          6.2061    1.2447   -0.0505 C.3       1 <0>         0.0254
      2 O1          4.8721    0.6715   -0.0409 O.3       1 <0>        -0.3517
      3 C2          3.8373    1.5321   -0.0264 C.2       1 <0>         0.4245
      4 O2          4.0427    2.7272   -0.0219 O.2       1 <0>        -0.5127
      5 C3          2.4389    1.0161   -0.0158 C.2       1 <0>         0.3511
      6 O3          2.2343   -0.1742   -0.0202 O.3       1 <0>        -0.4807
      7 C4          1.2803    1.9797    0.0005 C.2       1 <0>        -0.5610
      8 C5         -0.0144    1.2085    0.0087 C.2       1 <0>         0.3954
      9 O4          0.0021   -0.0041    0.0020 O.2       1 <0>        -0.5088
     10 C6         -1.2974    1.9262    0.0187 C.ar      1 <0>        -0.1066
     11 C7         -1.3198    3.3255    0.0322 C.ar      1 <0>        -0.0507
     12 C8         -2.5250    3.9924    0.0352 C.ar      1 <0>        -0.1554
     13 C9         -3.7154    3.2805    0.0374 C.ar      1 <0>         0.1004
     14 C10        -3.7010    1.8926    0.0298 C.ar      1 <0>        -0.0823
     15 C11        -2.5013    1.2132    0.0205 C.ar      1 <0>        -0.0533
     16 Cl1        -5.1962    1.0106    0.0316 Cl        1 <0>        -0.0645
     17 F1         -4.8940    3.9409    0.0465 F         1 <0>        -0.1346
     18 H1          6.9523    0.4366   -0.0620 H         1 <0>         0.0930
     19 H2          6.3468    1.8610    0.8497 H         1 <0>         0.0560
     20 H3          6.3297    1.8707   -0.9465 H         1 <0>         0.0560
     21 H4          1.4666    3.0638    0.0046 H         1 <0>         0.1210
     22 H5         -0.3938    3.8814    0.0357 H         1 <0>         0.1498
     23 H6         -2.5431    5.0723    0.0407 H         1 <0>         0.1416
     24 H7         -2.4908    0.1333    0.0150 H         1 <0>         0.1482
@<TRIPOS>BOND
     1    1    2 1
     2    1   18 1
     3    1   19 1
     4    1   20 1
     5    2    3 1
     6    3    4 2
     7    3    5 1
     8    5    6 1
     9    5    7 2
    10    7    8 1
    11    7   21 1
    12    8    9 2
    13    8   10 1
    14   10   15 ar
    15   10   11 ar
    16   11   12 ar
    17   11   22 1
    18   12   13 ar
    19   12   23 1
    20   13   14 ar
    21   13   17 1
    22   14   15 ar
    23   14   16 1
    24   15   24 1
@<TRIPOS>MOLECULE
ZINC13803772
   25    25     0     0     0
SMALL
USER_CHARGES
methyl (Z)-4-(3-chloro-4-fluoro-phenyl)-2-hydroxy-4-oxo-but-2-enoate
@<TRIPOS>ATOM
      1 C1         -3.6503   -0.8641    0.1981 C.3       1 <0>         0.0300
      2 O1         -2.4192   -0.1166    0.3821 O.3       1 <0>        -0.3283
      3 C2         -1.2707   -0.7394    0.0537 C.2       1 <0>         0.4628
      4 O2         -1.2970   -1.8752   -0.3744 O.2       1 <0>        -0.4684
      5 C3          0.0239   -0.0386    0.2150 C.2       1 <0>         0.3467
      6 C4          1.1776   -0.6642   -0.1149 C.3       1 <0>        -0.2495
      7 C5          2.4401    0.0822   -0.1232 C.2       1 <0>         0.4204
      8 O3          2.4375    1.2841    0.0661 O.2       1 <0>        -0.4058
      9 C6          3.7149   -0.6253   -0.3613 C.ar      1 <0>        -0.1669
     10 C7          4.9193    0.0834   -0.3697 C.ar      1 <0>        -0.0204
     11 C8          6.1058   -0.5812   -0.5918 C.ar      1 <0>        -0.1475
     12 C9          6.1069   -1.9513   -0.8065 C.ar      1 <0>         0.1470
     13 C10         4.9142   -2.6609   -0.7989 C.ar      1 <0>        -0.0853
     14 C11         3.7213   -2.0063   -0.5732 C.ar      1 <0>        -0.0474
     15 Cl1         4.9244   -4.3760   -1.0673 Cl        1 <0>        -0.0323
     16 F1          7.2732   -2.5977   -1.0233 F         1 <0>        -0.1152
     17 O4          0.0531    1.2272    0.6922 O.2       1 <0>        -0.4043
     18 H1         -3.6219   -1.7669    0.8082 H         1 <0>         0.0703
     19 H2         -4.4978   -0.2484    0.4996 H         1 <0>         0.1112
     20 H3         -3.7556   -1.1381   -0.8517 H         1 <0>         0.0715
     21 H4          1.1687   -1.7131   -0.3721 H         1 <0>         0.1845
     22 H5          4.9201    1.1504   -0.2027 H         1 <0>         0.1570
     23 H6          7.0369   -0.0340   -0.5984 H         1 <0>         0.1582
     24 H7          2.7938   -2.5596   -0.5633 H         1 <0>         0.1530
     25 H8          1.5997   -1.0415    0.7094 H         1 <0>         0.1587
@<TRIPOS>BOND
     1    1    2 1
     2    1   18 1
     3    1   19 1
     4    1   20 1
     5    2    3 1
     6    3    4 2
     7    3    5 1
     8    5    6 1
     9    5   17 2
    10    6   25 1
    11    6   21 1
    12    6    7 1
    13    7    9 1
    14    7    8 2
    15    9   14 ar
    16    9   10 ar
    17   10   11 ar
    18   10   22 1
    19   11   12 ar
    20   11   23 1
    21   12   13 ar
    22   12   16 1
    23   13   14 ar
    24   13   15 1
    25   14   24 1
@<TRIPOS>MOLECULE
ZINC04638255
   24    24     0     0     0
SMALL
USER_CHARGES

@<TRIPOS>ATOM
      1 C1         -0.0173    1.4248    0.0099 C.3       1 <0>         0.0284
      2 O1          0.0021   -0.0041    0.0020 O.3       1 <0>        -0.3384
      3 C2         -1.1897   -0.6319    0.0100 C.2       1 <0>         0.4689
      4 O2         -2.2168    0.0154    0.0233 O.2       1 <0>        -0.5200
      5 C3         -1.2472   -2.1118    0.0026 C.2       1 <0>         0.2730
      6 O3         -0.1026   -2.8332   -0.0122 O.3       1 <0>        -0.6144
      7 C4         -2.4446   -2.7426    0.0107 C.2       1 <0>        -0.4582
      8 C5         -2.5014   -4.2079    0.0033 C.2       1 <0>         0.4129
      9 O4         -1.4722   -4.8565   -0.0100 O.2       1 <0>        -0.4769
     10 C6         -3.8091   -4.8967    0.0121 C.ar      1 <0>        -0.1033
     11 C7         -4.9927   -4.1548    0.0216 C.ar      1 <0>        -0.0768
     12 C8         -6.2093   -4.8034    0.0299 C.ar      1 <0>        -0.1054
     13 C9         -6.2595   -6.1876    0.0291 C.ar      1 <0>        -0.0863
     14 C10        -5.0896   -6.9290    0.0197 C.ar      1 <0>        -0.1045
     15 C11        -3.8667   -6.2924    0.0052 C.ar      1 <0>        -0.0775
     16 Br1        -7.9326   -7.0689    0.0417 Br        1 <0>        -0.0668
     17 H1          1.0053    1.8021    0.0021 H         1 <0>         0.0930
     18 H2         -0.5445    1.7859   -0.8732 H         1 <0>         0.0528
     19 H3         -0.5275    1.7763    0.9067 H         1 <0>         0.0528
     20 H4         -3.3582   -2.1667    0.0225 H         1 <0>         0.1035
     21 H5         -4.9548   -3.0754    0.0229 H         1 <0>         0.1433
     22 H6         -7.1251   -4.2309    0.0372 H         1 <0>         0.1309
     23 H7         -5.1354   -8.0081    0.0192 H         1 <0>         0.1302
     24 H8         -2.9552   -6.8716   -0.0070 H         1 <0>         0.1388
@<TRIPOS>BOND
     1    1    2 1
     2    1   17 1
     3    1   18 1
     4    1   19 1
     5    2    3 1
     6    3    4 2
     7    3    5 1
     8    5    6 1
     9    5    7 2
    10    7    8 1
    11    7   20 1
    12    8    9 2
    13    8   10 1
    14   10   15 ar
    15   10   11 ar
    16   11   12 ar
    17   11   21 1
    18   12   13 ar
    19   12   22 1
    20   13   14 ar
    21   13   16 1
    22   14   15 ar
    23   14   23 1
    24   15   24 1
@<TRIPOS>MOLECULE
ZINC04638255
   25    25     0     0     0
SMALL
USER_CHARGES
methyl 4-(4-bromophenyl)-2-hydroxy-4-oxo-but-2-enoate
@<TRIPOS>ATOM
      1 C1          0.4599    5.2067   -0.2944 C.3       1 <0>         0.0300
      2 O1          0.2519    3.7738   -0.1857 O.3       1 <0>        -0.3282
      3 C2          1.3520    3.0004   -0.1064 C.2       1 <0>         0.4632
      4 O2          2.4543    3.5088   -0.1275 O.2       1 <0>        -0.4699
      5 C3          1.2168    1.5299    0.0064 C.2       1 <0>         0.3455
      6 C4          2.3220    0.7529    0.0861 C.3       1 <0>        -0.2496
      7 C5          2.1933   -0.7078    0.0797 C.2       1 <0>         0.4144
      8 O3          1.1046   -1.2219   -0.0955 O.2       1 <0>        -0.4081
      9 C6          3.3863   -1.5557    0.2860 C.ar      1 <0>        -0.1533
     10 C7          4.6387   -0.9687    0.4816 C.ar      1 <0>        -0.0775
     11 C8          5.7468   -1.7651    0.6788 C.ar      1 <0>        -0.0980
     12 C9          5.6219   -3.1446    0.6718 C.ar      1 <0>        -0.0613
     13 C10         4.3838   -3.7329    0.4731 C.ar      1 <0>        -0.0980
     14 C11         3.2670   -2.9475    0.2805 C.ar      1 <0>        -0.0488
     15 Br1         7.1483   -4.2294    0.9351 Br        1 <0>        -0.0334
     16 O4         -0.0116    0.9633    0.0299 O.2       1 <0>        -0.4045
     17 H1         -0.5049    5.7108   -0.3503 H         1 <0>         0.1111
     18 H2          1.0053    5.5620    0.5799 H         1 <0>         0.0702
     19 H3          1.0355    5.4231   -1.1944 H         1 <0>         0.0714
     20 H4          3.2988    1.2087    0.1544 H         1 <0>         0.1858
     21 H5          4.7380    0.1067    0.4829 H         1 <0>         0.1424
     22 H6          6.7149   -1.3124    0.8346 H         1 <0>         0.1445
     23 H7          4.2929   -4.8090    0.4694 H         1 <0>         0.1445
     24 H8          2.3021   -3.4074    0.1260 H         1 <0>         0.1484
     25 H9          2.5276    0.5633    1.0462 H         1 <0>         0.1592
@<TRIPOS>BOND
     1    1    2 1
     2    1   17 1
     3    1   18 1
     4    1   19 1
     5    2    3 1
     6    3    4 2
     7    3    5 1
     8    5    6 1
     9    5   16 2
    10    6   25 1
    11    6   20 1
    12    6    7 1
    13    7    9 1
    14    7    8 2
    15    9   14 ar
    16    9   10 ar
    17   10   11 ar
    18   10   21 1
    19   11   12 ar
    20   11   22 1
    21   12   13 ar
    22   12   15 1
    23   13   14 ar
    24   13   23 1
    25   14   24 1
@<TRIPOS>MOLECULE
ZINC13803767
   24    24     0     0     0
SMALL
USER_CHARGES
methyl 4-(3-fluorophenyl)-2,4-dioxo-butanoate
@<TRIPOS>ATOM
      1 C1         -2.6401    4.2178    0.0375 C.3       1 <0>         0.0253
      2 O1         -1.3375    3.5762    0.0278 O.3       1 <0>        -0.3518
      3 C2         -1.3193    2.2305    0.0204 C.2       1 <0>         0.4246
      4 O2         -2.3611    1.6099    0.0220 O.2       1 <0>        -0.5132
      5 C3         -0.0184    1.5028    0.0103 C.2       1 <0>         0.3494
      6 O3          1.0193    2.1209    0.0037 O.3       1 <0>        -0.4826
      7 C4          0.0021   -0.0041    0.0020 C.2       1 <0>        -0.5601
      8 C5          1.4295   -0.4870   -0.0142 C.2       1 <0>         0.3938
      9 O4          2.3403    0.3134   -0.0186 O.2       1 <0>        -0.5101
     10 C6          1.7180   -1.9301   -0.0247 C.ar      1 <0>        -0.0832
     11 C7          0.6700   -2.8564   -0.0138 C.ar      1 <0>        -0.0927
     12 C8          0.9469   -4.2069   -0.0286 C.ar      1 <0>        -0.1088
     13 C9          2.2583   -4.6486   -0.0435 C.ar      1 <0>        -0.1574
     14 C10         3.3033   -3.7381   -0.0491 C.ar      1 <0>         0.0788
     15 C11         3.0410   -2.3819   -0.0398 C.ar      1 <0>        -0.1227
     16 F1          4.5806   -4.1778   -0.0632 F         1 <0>        -0.1479
     17 H1         -2.5107    5.3102    0.0428 H         1 <0>         0.0928
     18 H2         -3.1939    3.9097    0.9366 H         1 <0>         0.0558
     19 H3         -3.2024    3.9195   -0.8596 H         1 <0>         0.0558
     20 H4         -0.9429   -0.5670    0.0080 H         1 <0>         0.1204
     21 H5         -0.3543   -2.5142    0.0020 H         1 <0>         0.1392
     22 H6          0.1379   -4.9224   -0.0244 H         1 <0>         0.1284
     23 H7          2.4686   -5.7079   -0.0505 H         1 <0>         0.1273
     24 H8          3.8555   -1.6726   -0.0445 H         1 <0>         0.1390
@<TRIPOS>BOND
     1    1    2 1
     2    1   17 1
     3    1   18 1
     4    1   19 1
     5    2    3 1
     6    3    4 2
     7    3    5 1
     8    5    6 1
     9    5    7 2
    10    7    8 1
    11    7   20 1
    12    8    9 2
    13    8   10 1
    14   10   15 ar
    15   10   11 ar
    16   11   12 ar
    17   11   21 1
    18   12   13 ar
    19   12   22 1
    20   13   14 ar
    21   13   23 1
    22   14   15 ar
    23   14   16 1
    24   15   24 1
@<TRIPOS>MOLECULE
ZINC13803767
   25    25     0     0     0
SMALL
USER_CHARGES
methyl (Z)-4-(3-fluorophenyl)-2-hydroxy-4-oxo-but-2-enoate
@<TRIPOS>ATOM
      1 C1         -3.6505   -0.8642    0.1981 C.3       1 <0>         0.0301
      2 O1         -2.4193   -0.1167    0.3822 O.3       1 <0>        -0.3284
      3 C2         -1.2709   -0.7394    0.0538 C.2       1 <0>         0.4635
      4 O2         -1.2971   -1.8752   -0.3744 O.2       1 <0>        -0.4694
      5 C3          0.0239   -0.0386    0.2150 C.2       1 <0>         0.3460
      6 C4          1.1778   -0.6643   -0.1149 C.3       1 <0>        -0.2484
      7 C5          2.4400    0.0819   -0.1232 C.2       1 <0>         0.4161
      8 O3          2.4374    1.2837    0.0661 O.2       1 <0>        -0.4079
      9 C6          3.7159   -0.6262   -0.3615 C.ar      1 <0>        -0.1381
     10 C7          3.7228   -2.0068   -0.5735 C.ar      1 <0>        -0.0951
     11 C8          4.9152   -2.6615   -0.8006 C.ar      1 <0>        -0.0949
     12 C9          6.1056   -1.9560   -0.8081 C.ar      1 <0>        -0.1197
     13 C10         6.1079   -0.5869   -0.5934 C.ar      1 <0>         0.0957
     14 C11         4.9193    0.0815   -0.3700 C.ar      1 <0>        -0.0929
     15 F1          7.2740    0.0953   -0.6022 F         1 <0>        -0.1309
     16 O4          0.0531    1.2271    0.6922 O.2       1 <0>        -0.4050
     17 H1         -4.4979   -0.2485    0.4996 H         1 <0>         0.1110
     18 H2         -3.7557   -1.1382   -0.8516 H         1 <0>         0.0714
     19 H3         -3.6220   -1.7670    0.8082 H         1 <0>         0.0702
     20 H4          1.1689   -1.7132   -0.3721 H         1 <0>         0.1856
     21 H5          2.7954   -2.5602   -0.5633 H         1 <0>         0.1403
     22 H6          4.9203   -3.7283   -0.9689 H         1 <0>         0.1453
     23 H7          7.0369   -2.4747   -0.9817 H         1 <0>         0.1449
     24 H8          4.9213    1.1483   -0.2020 H         1 <0>         0.1513
     25 H9          1.5998   -1.0416    0.7094 H         1 <0>         0.1593
@<TRIPOS>BOND
     1    1    2 1
     2    1   17 1
     3    1   18 1
     4    1   19 1
     5    2    3 1
     6    3    4 2
     7    3    5 1
     8    5    6 1
     9    5   16 2
    10    6   25 1
    11    6   20 1
    12    6    7 1
    13    7    9 1
    14    7    8 2
    15    9   14 ar
    16    9   10 ar
    17   10   11 ar
    18   10   21 1
    19   11   12 ar
    20   11   22 1
    21   12   13 ar
    22   12   23 1
    23   13   14 ar
    24   13   15 1
    25   14   24 1
@<TRIPOS>MOLECULE
ZINC04243783
   24    24     0     0     0
SMALL
USER_CHARGES

@<TRIPOS>ATOM
      1 C1         -0.0173    1.4248    0.0099 C.3       1 <0>         0.0285
      2 O1          0.0021   -0.0041    0.0020 O.3       1 <0>        -0.3383
      3 C2          0.6203   -0.6130    1.0324 C.2       1 <0>         0.4691
      4 O2          1.1288    0.0504    1.9129 O.2       1 <0>        -0.5204
      5 C3          0.6798   -2.0917    1.0910 C.2       1 <0>         0.2729
      6 O3          0.1131   -2.8309    0.1097 O.3       1 <0>        -0.6143
      7 C4          1.3010   -2.7035    2.1262 C.2       1 <0>        -0.4581
      8 C5          1.3598   -4.1675    2.1842 C.2       1 <0>         0.4152
      9 C6          2.0384   -4.8358    3.3151 C.ar      1 <0>        -0.1147
     10 C7          2.6194   -4.0756    4.3328 C.ar      1 <0>        -0.0662
     11 C8          3.2505   -4.7050    5.3852 C.ar      1 <0>        -0.1295
     12 C9          3.3093   -6.0868    5.4349 C.ar      1 <0>        -0.0883
     13 C10         2.7360   -6.8469    4.4295 C.ar      1 <0>        -0.1022
     14 C11         2.0963   -6.2296    3.3734 C.ar      1 <0>        -0.0534
     15 Br1         2.8228   -8.7343    4.5073 Br        1 <0>        -0.0639
     16 O4          0.8503   -4.8322    1.3019 O.2       1 <0>        -0.4768
     17 H1          1.0053    1.8021    0.0021 H         1 <0>         0.0528
     18 H2         -0.5445    1.7859   -0.8732 H         1 <0>         0.0930
     19 H3         -0.5275    1.7763    0.9067 H         1 <0>         0.0528
     20 H4          1.7533   -2.1134    2.9095 H         1 <0>         0.1033
     21 H5          2.5748   -2.9972    4.2954 H         1 <0>         0.1408
     22 H6          3.7003   -4.1181    6.1724 H         1 <0>         0.1306
     23 H7          3.8047   -6.5745    6.2614 H         1 <0>         0.1279
     24 H8          1.6452   -6.8233    2.5921 H         1 <0>         0.1394
@<TRIPOS>BOND
     1    1    2 1
     2    1   17 1
     3    1   18 1
     4    1   19 1
     5    2    3 1
     6    3    4 2
     7    3    5 1
     8    5    6 1
     9    5    7 2
    10    7    8 1
    11    7   20 1
    12    8    9 1
    13    8   16 2
    14    9   14 ar
    15    9   10 ar
    16   10   11 ar
    17   10   21 1
    18   11   12 ar
    19   11   22 1
    20   12   13 ar
    21   12   23 1
    22   13   14 ar
    23   13   15 1
    24   14   24 1
@<TRIPOS>MOLECULE
ZINC04243783
   25    25     0     0     0
SMALL
USER_CHARGES
methyl (Z)-4-(3-bromophenyl)-2-hydroxy-4-oxo-but-2-enoate
@<TRIPOS>ATOM
      1 C1         -3.6505   -0.8642    0.1981 C.3       1 <0>         0.0301
      2 O1         -2.4193   -0.1167    0.3821 O.3       1 <0>        -0.3284
      3 C2         -1.2709   -0.7394    0.0538 C.2       1 <0>         0.4635
      4 O2         -1.2971   -1.8752   -0.3744 O.2       1 <0>        -0.4696
      5 C3          0.0239   -0.0386    0.2150 C.2       1 <0>         0.3459
      6 C4          1.1778   -0.6643   -0.1149 C.3       1 <0>        -0.2485
      7 C5          2.4400    0.0819   -0.1232 C.2       1 <0>         0.4166
      8 O3          2.4374    1.2837    0.0661 O.2       1 <0>        -0.4086
      9 C6          3.7159   -0.6262   -0.3615 C.ar      1 <0>        -0.1611
     10 C7          3.7229   -2.0068   -0.5734 C.ar      1 <0>        -0.0695
     11 C8          4.9159   -2.6608   -0.7995 C.ar      1 <0>        -0.1179
     12 C9          6.1058   -1.9541   -0.8068 C.ar      1 <0>        -0.0564
     13 C10         6.1070   -0.5862   -0.5927 C.ar      1 <0>        -0.1017
     14 C11         4.9195    0.0814   -0.3700 C.ar      1 <0>        -0.0286
     15 Br1         7.7388    0.3693   -0.6048 Br        1 <0>        -0.0326
     16 O4          0.0531    1.2271    0.6922 O.2       1 <0>        -0.4046
     17 H1         -3.7557   -1.1382   -0.8517 H         1 <0>         0.0714
     18 H2         -3.6220   -1.7670    0.8082 H         1 <0>         0.0702
     19 H3         -4.4979   -0.2485    0.4996 H         1 <0>         0.1111
     20 H4          1.1689   -1.7132   -0.3721 H         1 <0>         0.1846
     21 H5          2.7957   -2.5604   -0.5639 H         1 <0>         0.1400
     22 H6          4.9219   -3.7277   -0.9672 H         1 <0>         0.1445
     23 H7          7.0376   -2.4720   -0.9799 H         1 <0>         0.1422
     24 H8          4.9215    1.1483   -0.2024 H         1 <0>         0.1487
     25 H9          1.5998   -1.0416    0.7094 H         1 <0>         0.1586
@<TRIPOS>BOND
     1    1    2 1
     2    1   17 1
     3    1   18 1
     4    1   19 1
     5    2    3 1
     6    3    4 2
     7    3    5 1
     8    5    6 1
     9    5   16 2
    10    6   25 1
    11    6   20 1
    12    6    7 1
    13    7    9 1
    14    7    8 2
    15    9   14 ar
    16    9   10 ar
    17   10   11 ar
    18   10   21 1
    19   11   12 ar
    20   11   22 1
    21   12   13 ar
    22   12   23 1
    23   13   14 ar
    24   13   15 1
    25   14   24 1
@<TRIPOS>MOLECULE
ZINC13776369
   35    37     0     0     0
SMALL
USER_CHARGES

@<TRIPOS>ATOM
      1 C1         -0.0184    1.5028    0.0103 C.3       1 <0>        -0.1176
      2 C2          0.0021   -0.0041    0.0020 C.ar      1 <0>        -0.0470
      3 C3          0.0057   -0.6887   -1.1989 C.ar      1 <0>        -0.1467
      4 C4          0.0245   -2.0709   -1.2065 C.ar      1 <0>        -0.0166
      5 C5          0.0400   -2.7685   -0.0132 C.ar      1 <0>        -0.6265
      6 C6          0.0373   -2.0839    1.1877 C.ar      1 <0>        -0.0166
      7 C7          0.0229   -0.7016    1.1953 C.ar      1 <0>        -0.1467
      8 S1          0.0628   -4.5303   -0.0229 S.o2      1 <0>         2.6215
      9 O1         -0.4759   -4.9503    1.2232 O.2       1 <0>        -1.0052
     10 O2         -0.4897   -4.9367   -1.2674 O.2       1 <0>        -1.0053
     11 N1          1.6509   -4.9994   -0.0343 N.2       1 <0>        -1.0066
     12 C8          1.9753   -6.3463   -0.0434 C.2       1 <0>         0.4968
     13 N2          3.1652   -6.9185   -0.0476 N.2       1 <0>        -0.5840
     14 C9          3.2915   -8.2436   -0.0561 C.2       1 <0>         0.1371
     15 C10         2.1692   -9.0221   -0.0604 C.2       1 <0>        -0.2543
     16 S2          0.8938   -7.7692   -0.0445 S.3       1 <0>        -0.2159
     17 C11         4.6366   -8.8682   -0.0613 C.ar      1 <0>         0.0048
     18 C12         4.7631  -10.2563   -0.0764 C.ar      1 <0>        -0.0993
     19 C13         6.0170  -10.8324   -0.0812 C.ar      1 <0>        -0.1135
     20 C14         7.1482  -10.0343   -0.0704 C.ar      1 <0>        -0.0429
     21 C15         7.0280   -8.6551   -0.0554 C.ar      1 <0>        -0.1146
     22 C16         5.7787   -8.0690   -0.0568 C.ar      1 <0>        -0.0762
     23 Cl1         8.7227  -10.7653   -0.0753 Cl        1 <0>        -0.0861
     24 H1          1.0042    1.8801    0.0026 H         1 <0>         0.0745
     25 H2         -0.5455    1.8639   -0.8728 H         1 <0>         0.0682
     26 H3         -0.5286    1.8543    0.9071 H         1 <0>         0.0682
     27 H4         -0.0064   -0.1436   -2.1312 H         1 <0>         0.1279
     28 H5          0.0266   -2.6057   -2.1448 H         1 <0>         0.1386
     29 H6          0.0491   -2.6289    2.1200 H         1 <0>         0.1386
     30 H7          0.0245   -0.1667    2.1335 H         1 <0>         0.1279
     31 H8          2.0774  -10.0981   -0.0672 H         1 <0>         0.1767
     32 H9          3.8813  -10.8798   -0.0841 H         1 <0>         0.1338
     33 H10         6.1161  -11.9078   -0.0929 H         1 <0>         0.1305
     34 H11         7.9135   -8.0369   -0.0467 H         1 <0>         0.1305
     35 H12         5.6860   -6.9930   -0.0499 H         1 <0>         0.1458
@<TRIPOS>BOND
     1    1    2 1
     2    1   24 1
     3    1   25 1
     4    1   26 1
     5    2    7 ar
     6    2    3 ar
     7    3    4 ar
     8    3   27 1
     9    4    5 ar
    10    4   28 1
    11    5    6 ar
    12    5    8 1
    13    6    7 ar
    14    6   29 1
    15    7   30 1
    16    8    9 2
    17    8   10 2
    18    8   11 1
    19   11   12 1
    20   12   16 1
    21   12   13 2
    22   13   14 1
    23   14   15 2
    24   14   17 1
    25   15   16 1
    26   15   31 1
    27   17   22 ar
    28   17   18 ar
    29   18   19 ar
    30   18   32 1
    31   19   20 ar
    32   19   33 1
    33   20   21 ar
    34   20   23 1
    35   21   22 ar
    36   21   34 1
    37   22   35 1
@<TRIPOS>MOLECULE
ZINC13776369
   36    38     0     0     0
SMALL
USER_CHARGES

@<TRIPOS>ATOM
      1 C1         -0.0184    1.5028    0.0103 C.3       1 <0>        -0.1258
      2 C2          0.0021   -0.0041    0.0020 C.ar      1 <0>        -0.0261
      3 C3          0.0057   -0.6887   -1.1989 C.ar      1 <0>        -0.1424
      4 C4          0.0245   -2.0709   -1.2065 C.ar      1 <0>        -0.0127
      5 C5          0.0400   -2.7685   -0.0132 C.ar      1 <0>        -0.6470
      6 C6          0.0373   -2.0839    1.1877 C.ar      1 <0>        -0.0127
      7 C7          0.0229   -0.7016    1.1953 C.ar      1 <0>        -0.1424
      8 S1          0.0628   -4.5303   -0.0229 S.o2      1 <0>         2.6433
      9 O1         -0.4759   -4.9503    1.2232 O.2       1 <0>        -0.9597
     10 O2         -0.4897   -4.9367   -1.2674 O.2       1 <0>        -0.9598
     11 N1          1.6509   -4.9994   -0.0343 N.2       1 <0>        -0.9668
     12 C8          1.9575   -6.2726   -0.0429 C.2       1 <0>         0.5052
     13 N2          3.1994   -6.8688   -0.0473 N.pl3     1 <0>        -0.6062
     14 C9          3.2684   -8.2376   -0.0560 C.2       1 <0>         0.1344
     15 C10         2.1321   -8.9625   -0.0600 C.2       1 <0>        -0.1763
     16 S2          0.8761   -7.6937   -0.0440 S.3       1 <0>         0.0020
     17 C11         4.5826   -8.9155   -0.0615 C.ar      1 <0>        -0.0429
     18 C12         5.7587   -8.1640   -0.0521 C.ar      1 <0>        -0.0951
     19 C13         6.9817   -8.8020   -0.0574 C.ar      1 <0>        -0.1011
     20 C14         7.0440  -10.1852   -0.0720 C.ar      1 <0>        -0.0232
     21 C15         5.8807  -10.9362   -0.0814 C.ar      1 <0>        -0.1019
     22 C16         4.6518  -10.3095   -0.0704 C.ar      1 <0>        -0.0765
     23 Cl1         8.5868  -10.9811   -0.0791 Cl        1 <0>        -0.0564
     24 H1          1.0042    1.8801    0.0026 H         1 <0>         0.0807
     25 H2         -0.5455    1.8639   -0.8728 H         1 <0>         0.0742
     26 H3         -0.5286    1.8543    0.9071 H         1 <0>         0.0742
     27 H4         -0.0064   -0.1436   -2.1312 H         1 <0>         0.1357
     28 H5          0.0266   -2.6057   -2.1448 H         1 <0>         0.1418
     29 H6          0.0491   -2.6289    2.1200 H         1 <0>         0.1418
     30 H7          0.0245   -0.1667    2.1335 H         1 <0>         0.1357
     31 H8          2.0122  -10.0358   -0.0672 H         1 <0>         0.2159
     32 H9          5.7113   -7.0851   -0.0411 H         1 <0>         0.1318
     33 H10         7.8924   -8.2215   -0.0505 H         1 <0>         0.1426
     34 H11         5.9355  -12.0147   -0.0927 H         1 <0>         0.1449
     35 H12         3.7451  -10.8963   -0.0728 H         1 <0>         0.1449
     36 H13         4.0071   -6.3318   -0.0447 H         1 <0>         0.4261
@<TRIPOS>BOND
     1    1    2 1
     2    1   24 1
     3    1   25 1
     4    1   26 1
     5    2    7 ar
     6    2    3 ar
     7    3    4 ar
     8    3   27 1
     9    4    5 ar
    10    4   28 1
    11    5    6 ar
    12    5    8 1
    13    6    7 ar
    14    6   29 1
    15    7   30 1
    16    8    9 2
    17    8   10 2
    18    8   11 1
    19   11   12 2
    20   12   16 1
    21   12   13 1
    22   13   14 1
    23   13   36 1
    24   14   15 2
    25   14   17 1
    26   15   16 1
    27   15   31 1
    28   17   22 ar
    29   17   18 ar
    30   18   19 ar
    31   18   32 1
    32   19   20 ar
    33   19   33 1
    34   20   21 ar
    35   20   23 1
    36   21   22 ar
    37   21   34 1
    38   22   35 1
@<TRIPOS>MOLECULE
ZINC13776362
   22    23     0     0     0
SMALL
USER_CHARGES
5-(3-nitrophenyl)isoxazole-3-carboxylic acid
@<TRIPOS>ATOM
      1 C1         -1.2215    1.7481    0.0173 C.ar      1 <0>        -0.1090
      2 C2         -1.2472    3.1276    0.0298 C.ar      1 <0>        -0.0494
      3 C3         -0.0501    3.8447    0.0223 C.ar      1 <0>         0.0130
      4 C4          1.1663    3.1603    0.0074 C.ar      1 <0>        -0.0423
      5 C5          1.1781    1.7809    0.0004 C.ar      1 <0>        -0.0398
      6 C6         -0.0126    1.0758    0.0080 C.ar      1 <0>        -0.0575
      7 N1          2.4670    1.0535   -0.0149 N.pl3     1 <0>         0.0289
      8 O1          2.4790   -0.1645   -0.0207 O.2       1 <0>        -0.1617
      9 O2          3.5158    1.6728   -0.0215 O.3       1 <0>        -0.1546
     10 C7         -0.0702    5.3231    0.0304 C.2       1 <0>        -0.0528
     11 C8         -1.1756    6.1273    0.0393 C.2       1 <0>        -0.1558
     12 C9         -0.6388    7.4413    0.0472 C.2       1 <0>        -0.0072
     13 N2          0.6653    7.3062    0.0340 N.2       1 <0>        -0.3131
     14 O3          0.9953    6.1434    0.0246 O.3       1 <0>         0.1138
     15 C10        -1.4007    8.7130    0.0606 C.2       1 <0>         0.5262
     16 O4         -2.6146    8.6933    0.0718 O.co2     1 <0>        -0.6138
     17 H1         -2.1473    1.1919    0.0187 H         1 <0>         0.1545
     18 H2         -2.1916    3.6513    0.0413 H         1 <0>         0.1520
     19 H3          2.0962    3.7094    0.0011 H         1 <0>         0.1623
     20 H4          0.0021   -0.0041    0.0020 H         1 <0>         0.1553
     21 H5         -2.2144    5.8319    0.0417 H         1 <0>         0.1773
     22 O5         -0.7465    9.8899    0.0604 O.co2     1 <0>        -0.7264
@<TRIPOS>BOND
     1    1    6 ar
     2    1    2 ar
     3    1   17 1
     4    2    3 ar
     5    2   18 1
     6    3    4 ar
     7    3   10 1
     8    4    5 ar
     9    4   19 1
    10    5    6 ar
    11    5    7 1
    12    6   20 1
    13    7    8 2
    14    7    9 1
    15   10   14 1
    16   10   11 2
    17   11   12 1
    18   11   21 1
    19   12   13 2
    20   12   15 1
    21   13   14 1
    22   15   16 2
    23   15   22 1
@<TRIPOS>MOLECULE
ZINC03285122
   40    42     0     0     0
SMALL
USER_CHARGES

@<TRIPOS>ATOM
      1 C1         -0.0184    1.5028    0.0103 C.3       1 <0>        -0.1256
      2 C2          0.0021   -0.0041    0.0020 C.ar      1 <0>        -0.0267
      3 C3          0.0057   -0.6887   -1.1989 C.ar      1 <0>        -0.1426
      4 C4          0.0245   -2.0709   -1.2065 C.ar      1 <0>        -0.0127
      5 C5          0.0400   -2.7685   -0.0132 C.ar      1 <0>        -0.6467
      6 C6          0.0373   -2.0839    1.1877 C.ar      1 <0>        -0.0128
      7 C7          0.0229   -0.7016    1.1953 C.ar      1 <0>        -0.1426
      8 S1          0.0628   -4.5303   -0.0229 S.o2      1 <0>         2.6438
      9 O1         -0.4759   -4.9503    1.2232 O.2       1 <0>        -0.9606
     10 O2         -0.4897   -4.9367   -1.2674 O.2       1 <0>        -0.9606
     11 N1          1.6509   -4.9994   -0.0343 N.2       1 <0>        -0.9687
     12 C8          1.9575   -6.2726   -0.0429 C.2       1 <0>         0.5052
     13 N2          3.1994   -6.8690   -0.0474 N.pl3     1 <0>        -0.6063
     14 C9          3.2684   -8.2376   -0.0565 C.2       1 <0>         0.1477
     15 C10         2.1323   -8.9625   -0.0609 C.2       1 <0>        -0.1895
     16 S2          0.8762   -7.6939   -0.0440 S.3       1 <0>        -0.0044
     17 C11         4.5828   -8.9156   -0.0621 C.ar      1 <0>        -0.0903
     18 C12         5.7583   -8.1631   -0.0522 C.ar      1 <0>        -0.0647
     19 C13         6.9818   -8.7991   -0.0570 C.ar      1 <0>        -0.1441
     20 C14         7.0454  -10.1858   -0.0720 C.ar      1 <0>         0.1467
     21 C15         5.8784  -10.9379   -0.0819 C.ar      1 <0>        -0.2031
     22 C16         4.6510  -10.3096   -0.0714 C.ar      1 <0>        -0.0444
     23 O3          8.2533  -10.8089   -0.0776 O.3       1 <0>        -0.3128
     24 C17         8.2462  -12.2378   -0.0932 C.3       1 <0>         0.0235
     25 H1          1.0042    1.8801    0.0026 H         1 <0>         0.0805
     26 H2         -0.5455    1.8639   -0.8728 H         1 <0>         0.0741
     27 H3         -0.5286    1.8543    0.9071 H         1 <0>         0.0740
     28 H4         -0.0064   -0.1436   -2.1312 H         1 <0>         0.1355
     29 H5          0.0266   -2.6057   -2.1448 H         1 <0>         0.1418
     30 H6          0.0491   -2.6289    2.1200 H         1 <0>         0.1418
     31 H7          0.0245   -0.1667    2.1335 H         1 <0>         0.1355
     32 H8          2.0125  -10.0358   -0.0680 H         1 <0>         0.2132
     33 H9          5.7097   -7.0843   -0.0412 H         1 <0>         0.1293
     34 H10         7.8918   -8.2175   -0.0493 H         1 <0>         0.1400
     35 H11         5.9321  -12.0165   -0.0940 H         1 <0>         0.1390
     36 H12         3.7437  -10.8954   -0.0746 H         1 <0>         0.1380
     37 H13         9.2720  -12.6062   -0.0961 H         1 <0>         0.1046
     38 H14         7.7296  -12.6082    0.7923 H         1 <0>         0.0597
     39 H15         7.7315  -12.5888   -0.9876 H         1 <0>         0.0597
     40 H16         4.0072   -6.3320   -0.0444 H         1 <0>         0.4256
@<TRIPOS>BOND
     1    1    2 1
     2    1   25 1
     3    1   26 1
     4    1   27 1
     5    2    7 ar
     6    2    3 ar
     7    3    4 ar
     8    3   28 1
     9    4    5 ar
    10    4   29 1
    11    5    6 ar
    12    5    8 1
    13    6    7 ar
    14    6   30 1
    15    7   31 1
    16    8    9 2
    17    8   10 2
    18    8   11 1
    19   11   12 2
    20   12   16 1
    21   12   13 1
    22   13   14 1
    23   13   40 1
    24   14   15 2
    25   14   17 1
    26   15   16 1
    27   15   32 1
    28   17   22 ar
    29   17   18 ar
    30   18   19 ar
    31   18   33 1
    32   19   20 ar
    33   19   34 1
    34   20   21 ar
    35   20   23 1
    36   21   22 ar
    37   21   35 1
    38   22   36 1
    39   23   24 1
    40   24   37 1
    41   24   38 1
    42   24   39 1
@<TRIPOS>MOLECULE
ZINC03285122
   39    41     0     0     0
SMALL
USER_CHARGES

@<TRIPOS>ATOM
      1 C1         -0.0184    1.5028    0.0103 C.3       1 <0>        -0.1174
      2 C2          0.0021   -0.0041    0.0020 C.ar      1 <0>        -0.0475
      3 C3          0.0057   -0.6887   -1.1989 C.ar      1 <0>        -0.1468
      4 C4          0.0245   -2.0709   -1.2065 C.ar      1 <0>        -0.0167
      5 C5          0.0400   -2.7685   -0.0132 C.ar      1 <0>        -0.6261
      6 C6          0.0373   -2.0839    1.1877 C.ar      1 <0>        -0.0167
      7 C7          0.0229   -0.7016    1.1953 C.ar      1 <0>        -0.1468
      8 S1          0.0628   -4.5303   -0.0229 S.o2      1 <0>         2.6211
      9 O1         -0.4759   -4.9503    1.2232 O.2       1 <0>        -1.0058
     10 O2         -0.4897   -4.9367   -1.2674 O.2       1 <0>        -1.0058
     11 N1          1.6509   -4.9994   -0.0343 N.2       1 <0>        -1.0080
     12 C8          1.9753   -6.3463   -0.0434 C.2       1 <0>         0.4961
     13 N2          3.1653   -6.9186   -0.0477 N.2       1 <0>        -0.5855
     14 C9          3.2914   -8.2437   -0.0566 C.2       1 <0>         0.1471
     15 C10         2.1693   -9.0221   -0.0613 C.2       1 <0>        -0.2624
     16 S2          0.8939   -7.7693   -0.0445 S.3       1 <0>        -0.2225
     17 C11         4.6368   -8.8683   -0.0618 C.ar      1 <0>        -0.0389
     18 C12         4.7623  -10.2565   -0.0774 C.ar      1 <0>        -0.0702
     19 C13         6.0147  -10.8343   -0.0822 C.ar      1 <0>        -0.1544
     20 C14         7.1495  -10.0350   -0.0715 C.ar      1 <0>         0.1145
     21 C15         7.0279   -8.6523   -0.0555 C.ar      1 <0>        -0.2112
     22 C16         5.7783   -8.0683   -0.0569 C.ar      1 <0>        -0.0473
     23 O3          8.3822  -10.6073   -0.0762 O.3       1 <0>        -0.3222
     24 C17         9.5068   -9.7258   -0.0646 C.3       1 <0>         0.0285
     25 H1          1.0042    1.8801    0.0026 H         1 <0>         0.0743
     26 H2         -0.5455    1.8639   -0.8728 H         1 <0>         0.0681
     27 H3         -0.5286    1.8543    0.9071 H         1 <0>         0.0681
     28 H4         -0.0064   -0.1436   -2.1312 H         1 <0>         0.1277
     29 H5          0.0266   -2.6057   -2.1448 H         1 <0>         0.1385
     30 H6          0.0491   -2.6289    2.1200 H         1 <0>         0.1385
     31 H7          0.0245   -0.1667    2.1335 H         1 <0>         0.1277
     32 H8          2.0776  -10.0981   -0.0684 H         1 <0>         0.1753
     33 H9          3.8797  -10.8790   -0.0854 H         1 <0>         0.1315
     34 H10         6.1126  -11.9098   -0.0939 H         1 <0>         0.1280
     35 H11         7.9127   -8.0331   -0.0468 H         1 <0>         0.1250
     36 H12         5.6844   -6.9924   -0.0497 H         1 <0>         0.1391
     37 H13         9.4770   -9.0872   -0.9474 H         1 <0>         0.0540
     38 H14         9.4745   -9.1074    0.8325 H         1 <0>         0.0540
     39 H15        10.4268  -10.3104   -0.0699 H         1 <0>         0.0951
@<TRIPOS>BOND
     1    1    2 1
     2    1   25 1
     3    1   26 1
     4    1   27 1
     5    2    7 ar
     6    2    3 ar
     7    3    4 ar
     8    3   28 1
     9    4    5 ar
    10    4   29 1
    11    5    6 ar
    12    5    8 1
    13    6    7 ar
    14    6   30 1
    15    7   31 1
    16    8    9 2
    17    8   10 2
    18    8   11 1
    19   11   12 1
    20   12   16 1
    21   12   13 2
    22   13   14 1
    23   14   15 2
    24   14   17 1
    25   15   16 1
    26   15   32 1
    27   17   22 ar
    28   17   18 ar
    29   18   19 ar
    30   18   33 1
    31   19   20 ar
    32   19   34 1
    33   20   21 ar
    34   20   23 1
    35   21   22 ar
    36   21   35 1
    37   22   36 1
    38   23   24 1
    39   24   37 1
    40   24   38 1
    41   24   39 1
@<TRIPOS>MOLECULE
ZINC13546618
   23    23     0     0     0
SMALL
USER_CHARGES
(2S)-4-(3,4-dichlorophenyl)-2-hydroxy-4-oxo-butanoic acid
@<TRIPOS>ATOM
      1 C1          2.4679    1.5759   -0.0073 C.ar      1 <0>        -0.0557
      2 C2          3.6485    2.2873   -0.0211 C.ar      1 <0>        -0.1096
      3 C3          3.6270    3.6723   -0.0134 C.ar      1 <0>        -0.0099
      4 C4          2.4189    4.3534    0.0023 C.ar      1 <0>        -0.0446
      5 C5          1.2301    3.6545    0.0099 C.ar      1 <0>        -0.0461
      6 C6          1.2454    2.2555    0.0023 C.ar      1 <0>        -0.1417
      7 C7         -0.0184    1.5028    0.0103 C.2       1 <0>         0.3932
      8 O1         -1.0767    2.0948    0.0185 O.2       1 <0>        -0.4257
      9 C8          0.0021   -0.0041    0.0020 C.3       1 <0>        -0.1699
     10 C9         -1.4333   -0.5336    0.0129 C.3       1 <0>         0.0731
     11 H1         -1.9862   -0.1019   -0.8214 H         1 <0>         0.1041
     12 C10        -1.4159   -2.0348   -0.1192 C.2       1 <0>         0.4381
     13 O2         -1.8132   -2.7257    0.7889 O.co2     1 <0>        -0.6269
     14 O3         -2.0656   -0.1709    1.2420 O.3       1 <0>        -0.5486
     15 Cl1         2.4033    6.0893    0.0118 Cl        1 <0>        -0.0468
     16 Cl2         5.1190    4.5596   -0.0241 Cl        1 <0>        -0.0467
     17 H2          2.4867    0.4961   -0.0087 H         1 <0>         0.1536
     18 H3          4.5929    1.7634   -0.0333 H         1 <0>         0.1502
     19 H4          0.2898    4.1856    0.0222 H         1 <0>         0.1538
     20 H5          0.4702   -0.3266   -0.8208 H         1 <0>         0.1042
     21 H6          0.5293   -0.3651    0.8851 H         1 <0>         0.0982
     22 H7         -1.6261   -0.5215    2.0288 H         1 <0>         0.3665
     23 O4         -0.9591   -2.6041   -1.2456 O.co2     1 <0>        -0.7627
@<TRIPOS>BOND
     1    1    6 ar
     2    1    2 ar
     3    1   17 1
     4    2    3 ar
     5    2   18 1
     6    3    4 ar
     7    3   16 1
     8    4    5 ar
     9    4   15 1
    10    5    6 ar
    11    5   19 1
    12    6    7 1
    13    7    8 2
    14    7    9 1
    15    9   10 1
    16    9   20 1
    17    9   21 1
    18   10   11 1
    19   10   12 1
    20   10   14 1
    21   12   13 2
    22   12   23 1
    23   14   22 1
@<TRIPOS>MOLECULE
ZINC03267994
   20    20     0     0     0
SMALL
USER_CHARGES
(E)-4-(3,4-difluorophenyl)-4-oxo-but-2-enoic acid
@<TRIPOS>ATOM
      1 C1         -3.8476    6.2883    0.0545 C.ar      1 <0>        -0.0475
      2 C2         -3.8612    7.6664    0.0625 C.ar      1 <0>        -0.1391
      3 C3         -2.6695    8.3748    0.0607 C.ar      1 <0>         0.0888
      4 C4         -1.4544    7.7006    0.0518 C.ar      1 <0>         0.0575
      5 C5         -1.4289    6.3214    0.0490 C.ar      1 <0>        -0.0768
      6 C6         -2.6289    5.6033    0.0450 C.ar      1 <0>        -0.1318
      7 C7         -2.6089    4.1276    0.0369 C.2       1 <0>         0.4270
      8 O1         -3.6533    3.5056    0.0384 O.2       1 <0>        -0.4574
      9 C8         -1.3214    3.4074    0.0268 C.2       1 <0>        -0.2413
     10 C9         -1.3032    2.0633    0.0194 C.2       1 <0>        -0.0551
     11 C10        -0.0162    1.3434    0.0094 C.2       1 <0>         0.4684
     12 O2          1.0273    1.9650    0.0028 O.co2     1 <0>        -0.6208
     13 F1         -0.2966    8.3967    0.0510 F         1 <0>        -0.1251
     14 F2         -2.6895    9.7257    0.0682 F         1 <0>        -0.1265
     15 H1         -4.7771    5.7384    0.0552 H         1 <0>         0.1518
     16 H2         -4.8026    8.1958    0.0699 H         1 <0>         0.1512
     17 H3         -0.4845    5.7974    0.0459 H         1 <0>         0.1633
     18 H4         -0.3935    3.9601    0.0254 H         1 <0>         0.1389
     19 H5         -2.2311    1.5107    0.0208 H         1 <0>         0.1202
     20 O3          0.0021   -0.0041    0.0020 O.co2     1 <0>        -0.7456
@<TRIPOS>BOND
     1    1    6 ar
     2    1    2 ar
     3    1   15 1
     4    2    3 ar
     5    2   16 1
     6    3    4 ar
     7    3   14 1
     8    4    5 ar
     9    4   13 1
    10    5    6 ar
    11    5   17 1
    12    6    7 1
    13    7    8 2
    14    7    9 1
    15    9   10 2
    16    9   18 1
    17   10   11 1
    18   10   19 1
    19   11   12 2
    20   11   20 1
@<TRIPOS>MOLECULE
ZINC02383012
   20    20     0     0     0
SMALL
USER_CHARGES
4-(3,4-dichlorophenyl)-4-oxo-but-2-enoic acid
@<TRIPOS>ATOM
      1 C1         -3.8471    6.2892    0.0545 C.ar      1 <0>        -0.0507
      2 C2         -3.8596    7.6678    0.0625 C.ar      1 <0>        -0.1125
      3 C3         -2.6682    8.3745    0.0612 C.ar      1 <0>        -0.0102
      4 C4         -1.4555    7.7012    0.0518 C.ar      1 <0>        -0.0438
      5 C5         -1.4296    6.3222    0.0490 C.ar      1 <0>        -0.0501
      6 C6         -2.6290    5.6040    0.0450 C.ar      1 <0>        -0.1329
      7 C7         -2.6089    4.1277    0.0369 C.2       1 <0>         0.4261
      8 O1         -3.6533    3.5056    0.0384 O.2       1 <0>        -0.4575
      9 C8         -1.3215    3.4075    0.0268 C.2       1 <0>        -0.2411
     10 C9         -1.3033    2.0634    0.0194 C.2       1 <0>        -0.0550
     11 C10        -0.0162    1.3434    0.0094 C.2       1 <0>         0.4686
     12 O2          1.0273    1.9650    0.0028 O.co2     1 <0>        -0.6204
     13 Cl1         0.0323    8.5957    0.0502 Cl        1 <0>        -0.0433
     14 Cl2        -2.6929   10.1103    0.0719 Cl        1 <0>        -0.0479
     15 H1         -4.7769    5.7398    0.0552 H         1 <0>         0.1501
     16 H2         -4.8005    8.1980    0.0695 H         1 <0>         0.1478
     17 H3         -0.4851    5.7985    0.0462 H         1 <0>         0.1596
     18 H4         -0.3936    3.9602    0.0254 H         1 <0>         0.1390
     19 H5         -2.2311    1.5107    0.0208 H         1 <0>         0.1199
     20 O3          0.0021   -0.0041    0.0020 O.co2     1 <0>        -0.7457
@<TRIPOS>BOND
     1    1    6 ar
     2    1    2 ar
     3    1   15 1
     4    2    3 ar
     5    2   16 1
     6    3    4 ar
     7    3   14 1
     8    4    5 ar
     9    4   13 1
    10    5    6 ar
    11    5   17 1
    12    6    7 1
    13    7    8 2
    14    7    9 1
    15    9   10 2
    16    9   18 1
    17   10   11 1
    18   10   19 1
    19   11   12 2
    20   11   20 1
@<TRIPOS>MOLECULE
ZINC13546620
   23    23     0     0     0
SMALL
USER_CHARGES
(2R)-4-(3,4-dichlorophenyl)-2-hydroxy-4-oxo-butanoic acid
@<TRIPOS>ATOM
      1 C1          1.1654    2.0900    0.0022 C.ar      1 <0>        -0.0558
      2 C2         -0.0167    1.3810    0.0096 C.ar      1 <0>        -0.1096
      3 C3          0.0021   -0.0041    0.0020 C.ar      1 <0>        -0.0099
      4 C4          1.2088   -0.6876   -0.0132 C.ar      1 <0>        -0.0446
      5 C5          2.3990    0.0089   -0.0203 C.ar      1 <0>        -0.0462
      6 C6          2.3865    1.4079   -0.0127 C.ar      1 <0>        -0.1417
      7 C7          3.6518    2.1581   -0.0207 C.2       1 <0>         0.3932
      8 O1          4.7088    1.5641   -0.0340 O.2       1 <0>        -0.4258
      9 C8          3.6343    3.6650   -0.0124 C.3       1 <0>        -0.1727
     10 C9          5.0708    4.1917   -0.0233 C.3       1 <0>         0.0729
     11 H1          5.6228    3.7589    0.8110 H         1 <0>         0.1041
     12 C10         5.0564    5.6928    0.1087 C.2       1 <0>         0.4382
     13 O2          5.4550    6.3830   -0.7993 O.co2     1 <0>        -0.6270
     14 O3          5.7023    3.8277   -1.2524 O.3       1 <0>        -0.5486
     15 Cl1         1.2209   -2.4236   -0.0226 Cl        1 <0>        -0.0468
     16 Cl2        -1.4918   -0.8884    0.0109 Cl        1 <0>        -0.0467
     17 H2          1.1488    3.1698    0.0077 H         1 <0>         0.1536
     18 H3         -0.9600    1.9067    0.0169 H         1 <0>         0.1501
     19 H4          3.3382   -0.5241   -0.0314 H         1 <0>         0.1537
     20 H5          3.1513    3.9972   -0.8226 H         1 <0>         0.0893
     21 H6          3.1248    4.0176    0.8843 H         1 <0>         0.1169
     22 H7          5.2636    4.1791   -2.0392 H         1 <0>         0.3664
     23 O4          4.6007    6.2632    1.2352 O.co2     1 <0>        -0.7629
@<TRIPOS>BOND
     1    1    6 ar
     2    1    2 ar
     3    1   17 1
     4    2    3 ar
     5    2   18 1
     6    3    4 ar
     7    3   16 1
     8    4    5 ar
     9    4   15 1
    10    5    6 ar
    11    5   19 1
    12    6    7 1
    13    7    8 2
    14    7    9 1
    15    9   10 1
    16    9   20 1
    17    9   21 1
    18   10   11 1
    19   10   12 1
    20   10   14 1
    21   12   13 2
    22   12   23 1
    23   14   22 1
@<TRIPOS>MOLECULE
ZINC00346173
   22    22     0     0     0
SMALL
USER_CHARGES
4-(3,4-dichlorophenyl)-4-oxo-butanoic acid
@<TRIPOS>ATOM
      1 C1         -1.3207    3.3250    0.0322 C.ar      1 <0>        -0.0530
      2 C2         -2.5272    3.9919    0.0347 C.ar      1 <0>        -0.1104
      3 C3         -3.7158    3.2807    0.0370 C.ar      1 <0>        -0.0092
      4 C4         -3.7017    1.8939    0.0299 C.ar      1 <0>        -0.0459
      5 C5         -2.5020    1.2138    0.0205 C.ar      1 <0>        -0.0466
      6 C6         -1.2981    1.9265    0.0187 C.ar      1 <0>        -0.1441
      7 C7         -0.0144    1.2084    0.0087 C.2       1 <0>         0.3911
      8 O1          0.0021   -0.0041    0.0020 O.2       1 <0>        -0.4444
      9 C8          1.2803    1.9796    0.0005 C.3       1 <0>        -0.1349
     10 C9          2.4566    1.0013   -0.0160 C.3       1 <0>        -0.1506
     11 C10         3.7513    1.7725   -0.0242 C.2       1 <0>         0.4603
     12 O2          3.7349    2.9806   -0.0176 O.co2     1 <0>        -0.6436
     13 Cl1        -5.1972    1.0123    0.0322 Cl        1 <0>        -0.0474
     14 Cl2        -5.2302    4.1293    0.0481 Cl        1 <0>        -0.0470
     15 H1         -0.3950    3.8812    0.0357 H         1 <0>         0.1565
     16 H2         -2.5456    5.0718    0.0403 H         1 <0>         0.1504
     17 H3         -2.4919    0.1338    0.0150 H         1 <0>         0.1532
     18 H4          1.3177    2.5596   -0.8133 H         1 <0>         0.0924
     19 H5          1.3381    2.6022    0.8933 H         1 <0>         0.1019
     20 H6          2.4158    0.3692    0.8710 H         1 <0>         0.0710
     21 H7          2.3988    0.3787   -0.9088 H         1 <0>         0.0708
     22 O3          4.9227    1.1173   -0.0389 O.co2     1 <0>        -0.7706
@<TRIPOS>BOND
     1    1    6 ar
     2    1    2 ar
     3    1   15 1
     4    2    3 ar
     5    2   16 1
     6    3    4 ar
     7    3   14 1
     8    4    5 ar
     9    4   13 1
    10    5    6 ar
    11    5   17 1
    12    6    7 1
    13    7    8 2
    14    7    9 1
    15    9   10 1
    16    9   18 1
    17    9   19 1
    18   10   11 1
    19   10   20 1
    20   10   21 1
    21   11   12 2
    22   11   22 1
@<TRIPOS>MOLECULE
ZINC00022202
   25    25     0     0     0
SMALL
USER_CHARGES
4-(3,4-dichlorophenyl)-2-methyl-4-oxo-butanoic acid
@<TRIPOS>ATOM
      1 C1         -2.1103   -0.1453    1.3289 C.3       1 <0>        -0.1294
      2 C2         -1.4333   -0.5336    0.0129 C.3       1 <0>        -0.1255
      3 H1         -1.9862   -0.1019   -0.8214 H         1 <0>         0.0754
      4 C3          0.0021   -0.0041    0.0020 C.3       1 <0>        -0.1317
      5 C4         -0.0184    1.5028    0.0103 C.2       1 <0>         0.3914
      6 O1         -1.0767    2.0948    0.0185 O.2       1 <0>        -0.4396
      7 C5          1.2454    2.2555    0.0023 C.ar      1 <0>        -0.1434
      8 C6          2.4682    1.5757   -0.0073 C.ar      1 <0>        -0.0536
      9 C7          3.6485    2.2869   -0.0215 C.ar      1 <0>        -0.1103
     10 C8          3.6270    3.6723   -0.0134 C.ar      1 <0>        -0.0096
     11 C9          2.4193    4.3532    0.0023 C.ar      1 <0>        -0.0457
     12 C10         1.2301    3.6541    0.0099 C.ar      1 <0>        -0.0467
     13 Cl1         2.4036    6.0891    0.0118 Cl        1 <0>        -0.0477
     14 Cl2         5.1190    4.5596   -0.0235 Cl        1 <0>        -0.0472
     15 C11        -1.4159   -2.0348   -0.1192 C.2       1 <0>         0.4664
     16 O2         -0.3635   -2.6209   -0.2124 O.co2     1 <0>        -0.6436
     17 H2         -3.1329   -0.5225    1.3366 H         1 <0>         0.0597
     18 H3         -1.5574   -0.5770    2.1631 H         1 <0>         0.0412
     19 H4         -2.1228    0.9405    1.4244 H         1 <0>         0.0543
     20 H5          0.4701   -0.3267   -0.8207 H         1 <0>         0.0928
     21 H6          0.5293   -0.3651    0.8851 H         1 <0>         0.0996
     22 H7          2.4870    0.4959   -0.0084 H         1 <0>         0.1560
     23 H8          4.5928    1.7630   -0.0337 H         1 <0>         0.1501
     24 H9          0.2898    4.1853    0.0222 H         1 <0>         0.1532
     25 O3         -2.5696   -2.7207   -0.1332 O.co2     1 <0>        -0.7661
@<TRIPOS>BOND
     1    1    2 1
     2    1   17 1
     3    1   18 1
     4    1   19 1
     5    2    3 1
     6    2    4 1
     7    2   15 1
     8    4    5 1
     9    4   20 1
    10    4   21 1
    11    5    6 2
    12    5    7 1
    13    7   12 ar
    14    7    8 ar
    15    8    9 ar
    16    8   22 1
    17    9   10 ar
    18    9   23 1
    19   10   11 ar
    20   10   14 1
    21   11   12 ar
    22   11   13 1
    23   12   24 1
    24   15   16 2
    25   15   25 1
@<TRIPOS>MOLECULE
ZINC02539856
   25    25     0     0     0
SMALL
USER_CHARGES
(2R)-4-(3,4-dichlorophenyl)-2-methyl-4-oxo-butanoic acid
@<TRIPOS>ATOM
      1 C1          0.5222    3.6385   -1.2327 C.3       1 <0>        -0.1295
      2 C2          1.2350    3.0943    0.0069 C.3       1 <0>        -0.1255
      3 H1          0.7441    3.4725    0.9036 H         1 <0>         0.0754
      4 C3          2.6961    3.5480   -0.0046 C.3       1 <0>        -0.1317
      5 C4          2.7573    5.0480    0.1267 C.2       1 <0>         0.3914
      6 O1          1.7333    5.6908    0.2202 O.2       1 <0>        -0.4396
      7 C5          4.0592    5.7325    0.1414 C.ar      1 <0>        -0.1434
      8 C6          5.2429    4.9935    0.0394 C.ar      1 <0>        -0.0537
      9 C7          6.4591    5.6414    0.0470 C.ar      1 <0>        -0.1103
     10 C8          6.5127    7.0207    0.1683 C.ar      1 <0>        -0.0096
     11 C9          5.3444    7.7595    0.2760 C.ar      1 <0>        -0.0457
     12 C10         4.1198    7.1246    0.2631 C.ar      1 <0>        -0.0467
     13 Cl1         5.4228    9.4872    0.4270 Cl        1 <0>        -0.0477
     14 Cl2         8.0498    7.8274    0.1849 Cl        1 <0>        -0.0472
     15 C11         1.1765    1.5884   -0.0006 C.2       1 <0>         0.4664
     16 O2          2.1986    0.9442   -0.0139 O.co2     1 <0>        -0.6437
     17 H2          0.5644    4.7277   -1.2273 H         1 <0>         0.0545
     18 H3          1.0130    3.2604   -2.1295 H         1 <0>         0.0412
     19 H4         -0.5188    3.3153   -1.2245 H         1 <0>         0.0596
     20 H5          3.1821    3.1263    0.7609 H         1 <0>         0.0927
     21 H6          3.1630    3.2460   -0.9421 H         1 <0>         0.0997
     22 H7          5.2033    3.9179   -0.0500 H         1 <0>         0.1560
     23 H8          7.3731    5.0722   -0.0365 H         1 <0>         0.1501
     24 H9          3.2102    7.7008    0.3471 H         1 <0>         0.1532
     25 O3         -0.0110    0.9628    0.0073 O.co2     1 <0>        -0.7661
@<TRIPOS>BOND
     1    1    2 1
     2    1   17 1
     3    1   18 1
     4    1   19 1
     5    2    3 1
     6    2    4 1
     7    2   15 1
     8    4    5 1
     9    4   20 1
    10    4   21 1
    11    5    6 2
    12    5    7 1
    13    7   12 ar
    14    7    8 ar
    15    8    9 ar
    16    8   22 1
    17    9   10 ar
    18    9   23 1
    19   10   11 ar
    20   10   14 1
    21   11   12 ar
    22   11   13 1
    23   12   24 1
    24   15   16 2
    25   15   25 1
