@<TRIPOS>MOLECULE
ZINC05114136
   37    39     0     0     0
SMALL
USER_CHARGES
(9aS)-8-acetyl-1,3,7-trihydroxy-9a-methyl-9-oxo-dibenzofuran-4-carboxamide
@<TRIPOS>ATOM
      1 C1          1.8832   -3.0777    0.4888 C.3       1 <0>        -0.1945
      2 C2          1.1161   -2.1348   -0.4020 C.2       1 <0>         0.4329
      3 O1          0.4376   -2.5731   -1.3090 O.2       1 <0>        -0.4528
      4 C3          1.1863   -0.7415   -0.1822 C.2       1 <0>        -0.3730
      5 C4          0.0395   -0.0405    0.2295 C.2       1 <0>         0.3004
      6 C5         -0.0171    1.3612    0.2566 C.2       1 <0>        -0.2066
      7 C6          1.0713    2.1053    0.0440 C.2       1 <0>         0.1671
      8 C7          2.4333    1.4152   -0.0594 C.3       1 <0>        -0.0891
      9 C8          2.4147   -0.0570   -0.3788 C.2       1 <0>         0.4439
     10 O2          3.4045   -0.6318   -0.7852 O.2       1 <0>        -0.4316
     11 C9          3.0364    2.1882   -1.2067 C.ar      1 <0>        -0.1881
     12 C10         4.0513    1.9490   -2.1107 C.ar      1 <0>         0.2140
     13 C11         4.3650    2.8966   -3.0787 C.ar      1 <0>        -0.1800
     14 C12         3.6571    4.0838   -3.1377 C.ar      1 <0>         0.1972
     15 C13         2.6244    4.3343   -2.2215 C.ar      1 <0>        -0.1634
     16 C14         2.3125    3.3785   -1.2417 C.ar      1 <0>         0.1435
     17 O3          1.3823    3.3857   -0.2393 O.3       1 <0>        -0.2027
     18 C15         1.8712    5.5955   -2.2868 C.2       1 <0>         0.5799
     19 O4          0.8681    5.6701   -2.9711 O.2       1 <0>        -0.5289
     20 N1          2.2921    6.6687   -1.5887 N.am      1 <0>        -0.8374
     21 O5          3.9623    5.0078   -4.0830 O.3       1 <0>        -0.4817
     22 O6          4.7461    0.7845   -2.0543 O.3       1 <0>        -0.4694
     23 C16         3.2511    1.6557    1.2111 C.3       1 <0>        -0.1225
     24 O7         -1.0471   -0.7416    0.6133 O.3       1 <0>        -0.4277
     25 H1          2.3560   -2.5140    1.2930 H         1 <0>         0.0766
     26 H2          1.1998   -3.8131    0.9135 H         1 <0>         0.0912
     27 H3          2.6485   -3.5881   -0.0959 H         1 <0>         0.0958
     28 H4         -0.9614    1.8486    0.4490 H         1 <0>         0.1643
     29 H5          5.1608    2.7062   -3.7836 H         1 <0>         0.1589
     30 H6          3.0919    6.6092   -1.0431 H         1 <0>         0.4055
     31 H7          1.7952    7.5007   -1.6318 H         1 <0>         0.4084
     32 H8          3.4708    4.9024   -4.9091 H         1 <0>         0.4076
     33 H9          4.3676    0.0743   -2.5904 H         1 <0>         0.4039
     34 H10         4.2752    1.3173    1.0536 H         1 <0>         0.0893
     35 H11         3.2522    2.7200    1.4464 H         1 <0>         0.0755
     36 H12         2.8084    1.1012    2.0385 H         1 <0>         0.0762
     37 H13        -1.7761   -0.1094    0.8759 H         1 <0>         0.4169
@<TRIPOS>BOND
     1    1    2 1
     2    1   25 1
     3    1   26 1
     4    1   27 1
     5    2    3 2
     6    2    4 1
     7    4    9 1
     8    4    5 2
     9    5    6 1
    10    5   24 1
    11    6    7 2
    12    6   28 1
    13    7   17 1
    14    7    8 1
    15    8    9 1
    16    8   11 1
    17    8   23 1
    18    9   10 2
    19   11   16 ar
    20   11   12 ar
    21   12   13 ar
    22   12   22 1
    23   13   14 ar
    24   13   29 1
    25   14   15 ar
    26   14   21 1
    27   15   16 ar
    28   15   18 1
    29   16   17 1
    30   18   19 2
    31   18   20 am
    32   20   30 1
    33   20   31 1
    34   21   32 1
    35   22   33 1
    36   23   34 1
    37   23   35 1
    38   23   36 1
    39   24   37 1
