@<TRIPOS>MOLECULE
ZINC03915682
   58    61     0     0     0
SMALL
USER_CHARGES
[dihydroxy-(hydroxymethyl)-tetramethyl-oxo-BLAHyl] acetate
@<TRIPOS>ATOM
      1 C1          0.9974    3.6575   -1.3140 C.3       1 <0>        -0.1589
      2 C2          1.8259    3.0269   -0.1633 C.3       1 <0>        -0.1228
      3 H1          1.5131    3.5748    0.7220 H         1 <0>         0.0972
      4 C3          3.2878    3.1931   -0.5175 C.3       1 <0>        -0.0688
      5 C4          4.1781    2.2603    0.2525 C.3       1 <0>         0.1123
      6 C5          3.6473    1.1852    1.0666 C.3       1 <0>        -0.1020
      7 H2          4.1874    0.1795    1.0360 H         1 <0>         0.1260
      8 C6          4.3991    2.3460    1.7148 C.3       1 <0>        -0.1292
      9 C7          5.8084    2.0483    2.1984 C.3       1 <0>        -0.1217
     10 C8          3.6454    3.3785    2.5701 C.3       1 <0>        -0.1170
     11 C9          2.1769    1.0993    1.2829 C.3       1 <0>        -0.0254
     12 H3          1.8053    1.7438    2.1256 H         1 <0>         0.1187
     13 C10         1.4719    1.5081   -0.0039 C.3       1 <0>         0.1787
     14 C11        -0.0139    1.1713    0.0085 C.3       1 <0>        -0.0969
     15 H4          0.0021   -0.0041    0.0020 H         1 <0>         0.1161
     16 C12        -0.9307    1.5805   -1.0523 C.2       1 <0>        -0.0777
     17 C13        -2.1091    1.9055   -0.6109 C.2       1 <0>        -0.2115
     18 C14        -2.1174    1.7423    0.9190 C.2       1 <0>         0.3603
     19 O1         -3.1351    1.8027    1.5585 O.2       1 <0>        -0.4215
     20 C15        -0.6798    1.4842    1.3392 C.3       1 <0>         0.1260
     21 C16        -0.5240    0.4032    2.3550 C.3       1 <0>        -0.1000
     22 C17         0.5360   -0.5245    2.0904 C.2       1 <0>        -0.1416
     23 C18         1.6940   -0.3273    1.6098 C.2       1 <0>        -0.0858
     24 C19         0.2471   -2.0234    2.4576 C.3       1 <0>         0.1012
     25 O2          1.3940   -2.8186    2.1505 O.3       1 <0>        -0.5690
     26 O3         -0.2179    2.6813    1.8448 O.3       1 <0>        -0.5247
     27 C20        -3.2801    2.3013   -1.4763 C.3       1 <0>        -0.0966
     28 O4          2.0449    0.8205   -1.1548 O.3       1 <0>        -0.5540
     29 O5          5.3931    1.9049   -0.5751 O.3       1 <0>        -0.3444
     30 C21         5.8795    2.8590   -1.3844 C.2       1 <0>         0.4583
     31 O6          5.3482    3.9433   -1.4273 O.2       1 <0>        -0.5102
     32 C22         7.0882    2.5777   -2.2393 C.3       1 <0>        -0.1504
     33 H5         -0.0653    3.5622   -1.0910 H         1 <0>         0.0658
     34 H6          1.2550    4.7121   -1.4116 H         1 <0>         0.0587
     35 H7          1.2205    3.1411   -2.2476 H         1 <0>         0.0480
     36 H8          3.3640    3.0871   -1.5410 H         1 <0>         0.0828
     37 H9          3.5132    4.2655   -0.1857 H         1 <0>         0.0801
     38 H10         6.2626    2.9630    2.5793 H         1 <0>         0.0606
     39 H11         5.7700    1.3034    2.9932 H         1 <0>         0.0637
     40 H12         6.4035    1.6650    1.3695 H         1 <0>         0.0665
     41 H13         2.8786    3.8615    1.9645 H         1 <0>         0.0665
     42 H14         3.1770    2.8765    3.4167 H         1 <0>         0.0661
     43 H15         4.3464    4.1291    2.9352 H         1 <0>         0.0648
     44 H16        -0.6281    1.6131   -2.1492 H         1 <0>         0.1464
     45 H17        -1.5420   -0.1083    2.4121 H         1 <0>         0.0897
     46 H18        -0.3650    0.8889    3.2728 H         1 <0>         0.0919
     47 H19         2.3511   -1.0976    1.4940 H         1 <0>         0.1276
     48 H20         0.0259   -2.1006    3.5221 H         1 <0>         0.0561
     49 H21        -0.6071   -2.3803    1.8822 H         1 <0>         0.0525
     50 H22         1.2866   -3.7582    2.3522 H         1 <0>         0.3840
     51 H23        -0.6111    2.9279    2.6931 H         1 <0>         0.3867
     52 H24        -4.1578    2.4596   -0.8497 H         1 <0>         0.0690
     53 H25        -3.0432    3.2222   -2.0092 H         1 <0>         0.0723
     54 H26        -3.4851    1.5080   -2.1951 H         1 <0>         0.0715
     55 H27         1.6594    1.0831   -2.0019 H         1 <0>         0.3700
     56 H28         6.7676    2.1800   -3.2022 H         1 <0>         0.1023
     57 H29         7.6459    3.5012   -2.3951 H         1 <0>         0.1008
     58 H30         7.7254    1.8485   -1.7390 H         1 <0>         0.0909
@<TRIPOS>BOND
     1    1    2 1
     2    1   33 1
     3    1   34 1
     4    1   35 1
     5    2    3 1
     6    2   13 1
     7    2    4 1
     8    4    5 1
     9    4   36 1
    10    4   37 1
    11    5    8 1
    12    5    6 1
    13    5   29 1
    14    6    7 1
    15    6    8 1
    16    6   11 1
    17    8    9 1
    18    8   10 1
    19    9   38 1
    20    9   39 1
    21    9   40 1
    22   10   41 1
    23   10   42 1
    24   10   43 1
    25   11   12 1
    26   11   23 1
    27   11   13 1
    28   13   14 1
    29   13   28 1
    30   14   15 1
    31   14   20 1
    32   14   16 1
    33   16   17 2
    34   16   44 1
    35   17   18 1
    36   17   27 1
    37   18   19 2
    38   18   20 1
    39   20   21 1
    40   20   26 1
    41   21   22 1
    42   21   45 1
    43   21   46 1
    44   22   23 2
    45   22   24 1
    46   23   47 1
    47   24   25 1
    48   24   48 1
    49   24   49 1
    50   25   50 1
    51   26   51 1
    52   27   52 1
    53   27   53 1
    54   27   54 1
    55   28   55 1
    56   29   30 1
    57   30   31 2
    58   30   32 1
    59   32   56 1
    60   32   57 1
    61   32   58 1
@<TRIPOS>MOLECULE
ZINC08214428
   60    59     0     0     0
SMALL
USER_CHARGES
[1-(hydroxymethyl)-2-octanoyloxy-ethyl] octanoate
@<TRIPOS>ATOM
      1 C1         -0.6348    1.4999  -11.1176 C.3       1 <0>        -0.1542
      2 C2          0.0507    1.0305   -9.8328 C.3       1 <0>        -0.1265
      3 C3         -0.7188    1.5606   -8.6213 C.3       1 <0>        -0.1208
      4 C4         -0.0332    1.0912   -7.3365 C.3       1 <0>        -0.1211
      5 C5         -0.8027    1.6212   -6.1249 C.3       1 <0>        -0.1195
      6 C6         -0.1172    1.1518   -4.8402 C.3       1 <0>        -0.1101
      7 C7         -0.8867    1.6818   -3.6286 C.3       1 <0>        -0.1107
      8 C8         -0.2114    1.2195   -2.3631 C.2       1 <0>         0.4565
      9 O1          0.7832    0.5362   -2.4240 O.2       1 <0>        -0.5170
     10 O2         -0.7150    1.5668   -1.1683 O.3       1 <0>        -0.3165
     11 C9         -0.0127    1.0858    0.0080 C.3       1 <0>         0.0738
     12 C10        -0.7288    1.5792    1.2668 C.3       1 <0>         0.0916
     13 H1         -0.2550    1.1461    2.1477 H         1 <0>         0.1192
     14 C11        -2.1980    1.1548    1.2173 C.3       1 <0>         0.0617
     15 O3         -2.7890    1.6250    0.0042 O.3       1 <0>        -0.5420
     16 O4         -0.6454    3.0272    1.3350 O.3       1 <0>        -0.3358
     17 C12        -0.6349    3.5801    2.5580 C.2       1 <0>         0.4592
     18 O5         -0.6934    2.8775    3.5392 O.2       1 <0>        -0.5101
     19 C13        -0.5500    5.0773    2.7074 C.3       1 <0>        -0.1140
     20 C14        -0.5551    5.4427    4.1932 C.3       1 <0>        -0.1098
     21 C15        -0.4690    6.9627    4.3448 C.3       1 <0>        -0.1201
     22 C16        -0.4740    7.3281    5.8306 C.3       1 <0>        -0.1209
     23 C17        -0.3879    8.8481    5.9822 C.3       1 <0>        -0.1210
     24 C18        -0.3930    9.2135    7.4680 C.3       1 <0>        -0.1265
     25 C19        -0.3068   10.7335    7.6196 C.3       1 <0>        -0.1543
     26 H2         -1.6570    1.1223  -11.1428 H         1 <0>         0.0533
     27 H3         -0.6492    2.5895  -11.1445 H         1 <0>         0.0534
     28 H4         -0.0866    1.1223  -11.9807 H         1 <0>         0.0533
     29 H5          1.0729    1.4081   -9.8076 H         1 <0>         0.0606
     30 H6          0.0651   -0.0590   -9.8059 H         1 <0>         0.0605
     31 H7         -1.7410    1.1830   -8.6465 H         1 <0>         0.0612
     32 H8         -0.7331    2.6501   -8.6482 H         1 <0>         0.0613
     33 H9          0.9890    1.4688   -7.3113 H         1 <0>         0.0625
     34 H10        -0.0188    0.0016   -7.3095 H         1 <0>         0.0623
     35 H11        -1.8249    1.2436   -6.1501 H         1 <0>         0.0644
     36 H12        -0.8171    2.7108   -6.1519 H         1 <0>         0.0646
     37 H13         0.9050    1.5294   -4.8150 H         1 <0>         0.0710
     38 H14        -0.1028    0.0622   -4.8132 H         1 <0>         0.0708
     39 H15        -1.9089    1.3042   -3.6538 H         1 <0>         0.1053
     40 H16        -0.9010    2.7714   -3.6555 H         1 <0>         0.1049
     41 H17         0.0021   -0.0041    0.0020 H         1 <0>         0.0908
     42 H18         1.0099    1.4631    0.0003 H         1 <0>         0.0794
     43 H19        -2.2635    0.0674    1.2557 H         1 <0>         0.0633
     44 H20        -2.7282    1.5811    2.0689 H         1 <0>         0.0539
     45 H21        -3.7222    1.3917   -0.0949 H         1 <0>         0.3749
     46 H22         0.3708    5.4367    2.2480 H         1 <0>         0.1066
     47 H23        -1.4059    5.5405    2.2164 H         1 <0>         0.1075
     48 H24        -1.4759    5.0833    4.6526 H         1 <0>         0.0719
     49 H25         0.3007    4.9795    4.6842 H         1 <0>         0.0720
     50 H26         0.4518    7.3221    3.8854 H         1 <0>         0.0650
     51 H27        -1.3248    7.4259    3.8539 H         1 <0>         0.0650
     52 H28        -1.3948    6.9687    6.2900 H         1 <0>         0.0626
     53 H29         0.3818    6.8649    6.3216 H         1 <0>         0.0627
     54 H30         0.5329    9.2075    5.5228 H         1 <0>         0.0614
     55 H31        -1.2437    9.3113    5.4913 H         1 <0>         0.0614
     56 H32        -1.3138    8.8541    7.9274 H         1 <0>         0.0606
     57 H33         0.4629    8.7503    7.9590 H         1 <0>         0.0606
     58 H34         0.6140   11.0929    7.1602 H         1 <0>         0.0534
     59 H35        -1.1627   11.1967    7.1287 H         1 <0>         0.0534
     60 H36        -0.3104   10.9938    8.6781 H         1 <0>         0.0535
@<TRIPOS>BOND
     1    1    2 1
     2    1   26 1
     3    1   27 1
     4    1   28 1
     5    2    3 1
     6    2   29 1
     7    2   30 1
     8    3    4 1
     9    3   31 1
    10    3   32 1
    11    4    5 1
    12    4   33 1
    13    4   34 1
    14    5    6 1
    15    5   35 1
    16    5   36 1
    17    6    7 1
    18    6   37 1
    19    6   38 1
    20    7    8 1
    21    7   39 1
    22    7   40 1
    23    8    9 2
    24    8   10 1
    25   10   11 1
    26   11   12 1
    27   11   41 1
    28   11   42 1
    29   12   13 1
    30   12   14 1
    31   12   16 1
    32   14   15 1
    33   14   43 1
    34   14   44 1
    35   15   45 1
    36   16   17 1
    37   17   18 2
    38   17   19 1
    39   19   20 1
    40   19   46 1
    41   19   47 1
    42   20   21 1
    43   20   48 1
    44   20   49 1
    45   21   22 1
    46   21   50 1
    47   21   51 1
    48   22   23 1
    49   22   52 1
    50   22   53 1
    51   23   24 1
    52   23   54 1
    53   23   55 1
    54   24   25 1
    55   24   56 1
    56   24   57 1
    57   25   58 1
    58   25   59 1
    59   25   60 1
@<TRIPOS>MOLECULE
ZINC04096162
   76    79     0     0     0
SMALL
USER_CHARGES
[butanoyloxy-dihydroxy-(hydroxymethyl)-tetramethyl-oxo-BLAHyl] butanoate
@<TRIPOS>ATOM
      1 C1         -4.3158   -4.1578    5.3474 C.3       1 <0>        -0.1529
      2 C2         -3.3657   -2.9840    5.5934 C.3       1 <0>        -0.1108
      3 C3         -3.1437   -2.2245    4.2839 C.3       1 <0>        -0.1127
      4 C4         -2.2079   -1.0684    4.5263 C.2       1 <0>         0.4770
      5 O1         -1.7640   -0.8721    5.6328 O.2       1 <0>        -0.5117
      6 O2         -1.8674   -0.2567    3.5128 O.3       1 <0>        -0.3254
      7 C5         -0.9614    0.8370    3.8195 C.3       1 <0>         0.1417
      8 H1         -0.2852    0.4892    4.6158 H         1 <0>         0.0862
      9 C6         -1.7698    2.0121    4.3813 C.3       1 <0>        -0.1169
     10 H2         -2.6720    2.1423    3.7768 H         1 <0>         0.1061
     11 C7         -0.9280    3.2754    4.3387 C.3       1 <0>         0.1895
     12 C8         -0.7874    3.6804    2.8631 C.3       1 <0>        -0.0296
     13 H3         -1.7903    3.7394    2.4520 H         1 <0>         0.1088
     14 C9         -0.1903    5.0408    2.7376 C.2       1 <0>        -0.0972
     15 C10        -0.8307    6.1312    2.9956 C.2       1 <0>        -0.1449
     16 C11        -2.2363    6.2040    3.4704 C.3       1 <0>        -0.1006
     17 C12        -2.6003    5.1937    4.5148 C.3       1 <0>         0.1087
     18 C13        -1.4012    4.4677    5.1058 C.3       1 <0>        -0.0901
     19 H4         -0.5584    5.2014    5.0559 H         1 <0>         0.1183
     20 C14        -1.6847    4.3239    6.5679 C.2       1 <0>        -0.0571
     21 C15        -2.7337    5.0847    6.8934 C.2       1 <0>        -0.2180
     22 C16        -3.2821    5.7889    5.7277 C.2       1 <0>         0.3759
     23 O3         -4.1177    6.6727    5.7346 O.2       1 <0>        -0.4258
     24 C17        -3.2874    5.2023    8.2914 C.3       1 <0>        -0.1021
     25 O4         -3.4960    4.2472    3.9300 O.3       1 <0>        -0.5348
     26 C18        -0.0977    7.4310    2.7979 C.3       1 <0>         0.1108
     27 O5          1.2301    7.1645    2.3420 O.3       1 <0>        -0.5682
     28 C19         0.0052    2.6152    2.1277 C.3       1 <0>        -0.0784
     29 H5          0.9992    2.9261    1.7890 H         1 <0>         0.1223
     30 C20        -0.1276    1.1678    2.6046 C.3       1 <0>         0.0689
     31 C21        -0.7331    1.5822    1.2744 C.3       1 <0>        -0.1040
     32 C22        -0.0127    1.0858    0.0080 C.3       1 <0>        -0.1124
     33 C23        -2.2525    1.6447    1.1457 C.3       1 <0>        -0.1244
     34 O6          1.0975    0.3827    2.5011 O.3       1 <0>        -0.3217
     35 C24         1.0296   -0.9047    2.8751 C.2       1 <0>         0.4546
     36 O7         -0.0141   -1.3633    3.2754 O.2       1 <0>        -0.4924
     37 C25         2.2552   -1.7780    2.7958 C.3       1 <0>        -0.1142
     38 C26         1.9085   -3.1884    3.2769 C.3       1 <0>        -0.1112
     39 C27         3.1528   -4.0750    3.1964 C.3       1 <0>        -0.1531
     40 O8          0.3907    2.9492    4.8055 O.3       1 <0>        -0.5495
     41 C28        -2.1926    1.6409    5.8057 C.3       1 <0>        -0.1519
     42 H6         -3.8800   -4.8290    4.6074 H         1 <0>         0.0561
     43 H7         -4.4740   -4.6989    6.2802 H         1 <0>         0.0596
     44 H8         -5.2703   -3.7816    4.9792 H         1 <0>         0.0556
     45 H9         -2.4112   -3.3602    5.9616 H         1 <0>         0.0703
     46 H10        -3.8015   -2.3128    6.3334 H         1 <0>         0.0685
     47 H11        -4.0982   -1.8483    3.9158 H         1 <0>         0.0972
     48 H12        -2.7079   -2.8958    3.5439 H         1 <0>         0.1026
     49 H13         0.8345    5.1180    2.4135 H         1 <0>         0.1308
     50 H14        -2.8944    6.0607    2.6160 H         1 <0>         0.0970
     51 H15        -2.4080    7.1961    3.8817 H         1 <0>         0.0836
     52 H16        -1.1259    3.7178    7.2691 H         1 <0>         0.1529
     53 H17        -4.1409    5.8803    8.2884 H         1 <0>         0.0698
     54 H18        -3.6052    4.2197    8.6402 H         1 <0>         0.0731
     55 H19        -2.5163    5.5919    8.9560 H         1 <0>         0.0722
     56 H20        -4.2839    4.6439    3.5339 H         1 <0>         0.3848
     57 H21        -0.6219    8.0348    2.0571 H         1 <0>         0.0581
     58 H22        -0.0555    7.9718    3.7434 H         1 <0>         0.0547
     59 H23         1.7617    7.9585    2.1931 H         1 <0>         0.3840
     60 H24         0.0021   -0.0041    0.0020 H         1 <0>         0.0581
     61 H25         1.0099    1.4631    0.0003 H         1 <0>         0.0626
     62 H26        -0.5399    1.4469   -0.8751 H         1 <0>         0.0651
     63 H27        -2.6775    0.6686    1.3797 H         1 <0>         0.0738
     64 H28        -2.6457    2.3880    1.8393 H         1 <0>         0.0667
     65 H29        -2.5197    1.9222    0.1260 H         1 <0>         0.0644
     66 H30         2.6042   -1.8216    1.7641 H         1 <0>         0.1032
     67 H31         3.0398   -1.3613    3.4275 H         1 <0>         0.1030
     68 H32         1.5595   -3.1448    4.3086 H         1 <0>         0.0701
     69 H33         1.1239   -3.6051    2.6453 H         1 <0>         0.0706
     70 H34         3.5018   -4.1186    2.1647 H         1 <0>         0.0567
     71 H35         3.9373   -3.6583    3.8281 H         1 <0>         0.0566
     72 H36         2.9058   -5.0798    3.5392 H         1 <0>         0.0608
     73 H37         0.4236    2.6771    5.7328 H         1 <0>         0.3711
     74 H38        -2.7814    2.4526    6.2331 H         1 <0>         0.0614
     75 H39        -2.7922    0.7310    5.7813 H         1 <0>         0.0735
     76 H40        -1.3053    1.4751    6.4166 H         1 <0>         0.0548
@<TRIPOS>BOND
     1    1    2 1
     2    1   42 1
     3    1   43 1
     4    1   44 1
     5    2    3 1
     6    2   45 1
     7    2   46 1
     8    3    4 1
     9    3   47 1
    10    3   48 1
    11    4    5 2
    12    4    6 1
    13    6    7 1
    14    7    8 1
    15    7   30 1
    16    7    9 1
    17    9   10 1
    18    9   11 1
    19    9   41 1
    20   11   18 1
    21   11   12 1
    22   11   40 1
    23   12   13 1
    24   12   14 1
    25   12   28 1
    26   14   15 2
    27   14   49 1
    28   15   16 1
    29   15   26 1
    30   16   17 1
    31   16   50 1
    32   16   51 1
    33   17   22 1
    34   17   18 1
    35   17   25 1
    36   18   19 1
    37   18   20 1
    38   20   21 2
    39   20   52 1
    40   21   22 1
    41   21   24 1
    42   22   23 2
    43   24   53 1
    44   24   54 1
    45   24   55 1
    46   25   56 1
    47   26   27 1
    48   26   57 1
    49   26   58 1
    50   27   59 1
    51   28   29 1
    52   28   31 1
    53   28   30 1
    54   30   31 1
    55   30   34 1
    56   31   32 1
    57   31   33 1
    58   32   60 1
    59   32   61 1
    60   32   62 1
    61   33   63 1
    62   33   64 1
    63   33   65 1
    64   34   35 1
    65   35   36 2
    66   35   37 1
    67   37   38 1
    68   37   66 1
    69   37   67 1
    70   38   39 1
    71   38   68 1
    72   38   69 1
    73   39   70 1
    74   39   71 1
    75   39   72 1
    76   40   73 1
    77   41   74 1
    78   41   75 1
    79   41   76 1
@<TRIPOS>MOLECULE
ZINC13779357
   74    77     0     0     0
SMALL
USER_CHARGES
hydroxymethyl-diisopropyl-trimethyl-vinyl-BLAHone
@<TRIPOS>ATOM
      1 C1          1.9991   -1.0181   -0.1229 C.3       1 <0>        -0.4156
      2 C2          1.6434    0.1091    0.8486 C.3       1 <0>        -0.1004
      3 C3          2.1446    1.4419    0.2889 C.3       1 <0>        -0.1689
      4 C4          0.1249    0.1692    1.0260 C.3       1 <0>         0.0641
      5 H1         -0.1147    0.6315    1.9836 H         1 <0>         0.1078
      6 C5         -0.4868    0.9762   -0.0956 C.2       1 <0>         0.5372
      7 O1         -1.2502    1.8587    0.2350 O.2       1 <0>        -0.5689
      8 N1         -0.2871    0.8325   -1.4032 N.am      1 <0>        -0.6845
      9 C6          0.5481   -0.2594   -1.8805 C.3       1 <0>        -0.0586
     10 H2          1.2556   -0.5404   -1.1003 H         1 <0>         0.2598
     11 C7         -0.3181   -1.4702   -2.2402 C.3       1 <0>        -0.0523
     12 C8          0.4380   -2.6725   -1.7486 C.2       1 <0>        -0.1606
     13 C9          0.8466   -3.7500   -2.4177 C.2       1 <0>         0.0455
     14 N2          1.5802   -4.5571   -1.5834 N.pl3     1 <0>        -0.5784
     15 H3          1.9781   -5.4051   -1.8353 H         1 <0>         0.4183
     16 C10         1.6666   -3.9815   -0.3354 C.ar      1 <0>         0.1183
     17 C11         0.8802   -2.8177   -0.3597 C.ar      1 <0>        -0.1357
     18 C12         0.6456   -2.1293    0.8356 C.ar      1 <0>         0.2166
     19 C13         1.3983   -2.4303    1.9505 C.ar      1 <0>        -0.2377
     20 C14         2.2758   -3.5162    1.9388 C.ar      1 <0>         0.0057
     21 C15         2.3833   -4.3075    0.8211 C.ar      1 <0>        -0.0989
     22 C16         3.2462   -5.5421    0.7826 C.3       1 <0>         0.0162
     23 C17         4.2954   -5.5035    1.8910 C.3       1 <0>        -0.1066
     24 C18         3.5892   -5.2077    3.2189 C.3       1 <0>        -0.1142
     25 C19         3.0833   -3.7673    3.1864 C.3       1 <0>        -0.0110
     26 C20         4.2784   -2.8123    3.2143 C.3       1 <0>        -0.1414
     27 C21         2.2067   -3.5128    4.4142 C.3       1 <0>        -0.0821
     28 C22         0.8595   -4.2152    4.2335 C.3       1 <0>        -0.1560
     29 C23         2.9042   -4.0604    5.6611 C.3       1 <0>        -0.1535
     30 C24         2.3644   -6.7788    0.9666 C.3       1 <0>        -0.1415
     31 C25         3.9395   -5.6214   -0.5531 C.2       1 <0>        -0.1553
     32 C26         4.3543   -6.7777   -1.0081 C.2       1 <0>        -0.1890
     33 N3         -0.4449   -1.2182    0.9772 N.pl3     1 <0>        -0.4852
     34 C27        -1.2217   -1.5113    2.1891 C.3       1 <0>         0.0196
     35 C28         1.3175    0.1963   -3.1220 C.3       1 <0>         0.0667
     36 O2          2.2254    1.2399   -2.7634 O.3       1 <0>        -0.5665
     37 H4          2.9577   -1.4528    0.1602 H         1 <0>         0.0710
     38 H5          1.2268   -1.7865   -0.0864 H         1 <0>         0.2672
     39 H6          2.0661   -0.6182   -1.1347 H         1 <0>         0.1537
     40 H7          2.1146   -0.0802    1.8130 H         1 <0>         0.0835
     41 H8          1.6988    1.6153   -0.6905 H         1 <0>         0.0910
     42 H9          1.8622    2.2490    0.9648 H         1 <0>         0.0528
     43 H10         3.2300    1.4108    0.1936 H         1 <0>         0.0605
     44 H11        -0.6943    1.4489   -2.0318 H         1 <0>         0.3964
     45 H12        -1.2844   -1.4033   -1.7403 H         1 <0>         0.0910
     46 H13        -0.4567   -1.5261   -3.3199 H         1 <0>         0.0687
     47 H14         0.6339   -3.9565   -3.4562 H         1 <0>         0.1718
     48 H15         1.3084   -1.8226    2.8387 H         1 <0>         0.1307
     49 H16         4.8000   -6.4677    1.9514 H         1 <0>         0.0670
     50 H17         5.0243   -4.7214    1.6782 H         1 <0>         0.0706
     51 H18         2.7478   -5.8888    3.3460 H         1 <0>         0.0729
     52 H19         4.2919   -5.3307    4.0430 H         1 <0>         0.0729
     53 H20         3.9208   -1.7827    3.2117 H         1 <0>         0.0561
     54 H21         4.8651   -2.9908    4.1154 H         1 <0>         0.0610
     55 H22         4.9006   -2.9831    2.3358 H         1 <0>         0.0587
     56 H23         2.0451   -2.4411    4.5295 H         1 <0>         0.0695
     57 H24         0.2350   -4.0340    5.1083 H         1 <0>         0.0515
     58 H25         0.3627   -3.8252    3.3452 H         1 <0>         0.0668
     59 H26         1.0212   -5.2870    4.1183 H         1 <0>         0.0537
     60 H27         3.8001   -3.4735    5.8635 H         1 <0>         0.0547
     61 H28         2.2277   -3.9965    6.5134 H         1 <0>         0.0540
     62 H29         3.1816   -5.1013    5.4947 H         1 <0>         0.0613
     63 H30         1.6278   -6.8225    0.1644 H         1 <0>         0.0523
     64 H31         2.9848   -7.6746    0.9395 H         1 <0>         0.0612
     65 H32         1.8525   -6.7204    1.9271 H         1 <0>         0.0639
     66 H33         4.0943   -4.7251   -1.1353 H         1 <0>         0.1091
     67 H34         4.8511   -6.8346   -1.9653 H         1 <0>         0.0988
     68 H35         4.1995   -7.6741   -0.4259 H         1 <0>         0.1027
     69 H36        -2.0424   -0.7992    2.2757 H         1 <0>         0.0830
     70 H37        -1.6231   -2.5228    2.1277 H         1 <0>         0.0810
     71 H38        -0.5758   -1.4292    3.0633 H         1 <0>         0.0451
     72 H39         1.8751   -0.6452   -3.5331 H         1 <0>         0.0563
     73 H40         0.6153    0.5665   -3.8690 H         1 <0>         0.0456
     74 H41         2.7480    1.5781   -3.5034 H         1 <0>         0.3786
@<TRIPOS>BOND
     1    1    2 1
     2    1   37 1
     3    1   38 1
     4    1   39 1
     5    2    3 1
     6    2    4 1
     7    2   40 1
     8    3   41 1
     9    3   42 1
    10    3   43 1
    11    4    5 1
    12    4   33 1
    13    4    6 1
    14    6    7 2
    15    6    8 am
    16    8    9 1
    17    8   44 1
    18    9   10 1
    19    9   11 1
    20    9   35 1
    21   11   12 1
    22   11   45 1
    23   11   46 1
    24   12   17 1
    25   12   13 2
    26   13   14 1
    27   13   47 1
    28   14   15 1
    29   14   16 1
    30   16   21 ar
    31   16   17 ar
    32   17   18 ar
    33   18   19 ar
    34   18   33 1
    35   19   20 ar
    36   19   48 1
    37   20   25 1
    38   20   21 ar
    39   21   22 1
    40   22   23 1
    41   22   30 1
    42   22   31 1
    43   23   24 1
    44   23   49 1
    45   23   50 1
    46   24   25 1
    47   24   51 1
    48   24   52 1
    49   25   26 1
    50   25   27 1
    51   26   53 1
    52   26   54 1
    53   26   55 1
    54   27   28 1
    55   27   29 1
    56   27   56 1
    57   28   57 1
    58   28   58 1
    59   28   59 1
    60   29   60 1
    61   29   61 1
    62   29   62 1
    63   30   63 1
    64   30   64 1
    65   30   65 1
    66   31   32 2
    67   31   66 1
    68   32   67 1
    69   32   68 1
    70   33   34 1
    71   34   69 1
    72   34   70 1
    73   34   71 1
    74   35   36 1
    75   35   72 1
    76   35   73 1
    77   36   74 1
