@<TRIPOS>MOLECULE
ZINC00591953
   63    68     0     0     0
SMALL
USER_CHARGES

@<TRIPOS>ATOM
      1 C1         -0.0178    1.4608    0.0101 C.3       1 <0>         0.0726
      2 N1          0.0021   -0.0041    0.0020 N.pl3     1 <0>        -0.4749
      3 C2          0.0078   -0.7756   -1.1193 C.2       1 <0>         0.1102
      4 C3          0.0272   -2.0937   -0.7697 C.2       1 <0>        -0.1473
      5 C4          0.0340   -2.1368    0.7032 C.ar      1 <0>        -0.0734
      6 C5          0.0236   -0.7983    1.1297 C.ar      1 <0>         0.0958
      7 C6          0.0323   -0.5163    2.4916 C.ar      1 <0>        -0.1199
      8 C7          0.0546   -1.5463    3.4071 C.ar      1 <0>        -0.1019
      9 C8          0.0691   -2.8675    2.9845 C.ar      1 <0>        -0.1411
     10 C9          0.0515   -3.1678    1.6397 C.ar      1 <0>        -0.0792
     11 C10         0.0386   -3.2475   -1.6846 C.2       1 <0>        -0.0124
     12 C11         1.1160   -3.7128   -2.4294 C.2       1 <0>        -0.0445
     13 C12         0.6193   -4.8843   -3.1804 C.2       1 <0>         0.5559
     14 O1          1.2728   -5.5643   -3.9462 O.2       1 <0>        -0.4477
     15 N2         -0.6758   -5.0722   -2.8752 N.am      1 <0>        -0.6903
     16 C13        -1.0913   -4.1487   -1.9919 C.2       1 <0>         0.5510
     17 O2         -2.2104   -4.0662   -1.5265 O.2       1 <0>        -0.4383
     18 C14         2.4770   -3.1515   -2.4634 C.2       1 <0>        -0.1072
     19 C15         2.9761   -2.1055   -3.3737 C.ar      1 <0>        -0.0768
     20 C16         2.3987   -1.3663   -4.4042 C.ar      1 <0>        -0.0735
     21 C17         3.1550   -0.4365   -5.0832 C.ar      1 <0>        -0.1333
     22 C18         4.4856   -0.2346   -4.7452 C.ar      1 <0>        -0.0909
     23 C19         5.0694   -0.9584   -3.7287 C.ar      1 <0>        -0.1280
     24 C20         4.3227   -1.9025   -3.0304 C.ar      1 <0>         0.1049
     25 N3          4.6223   -2.7584   -1.9913 N.pl3     1 <0>        -0.4790
     26 C21         3.5184   -3.4930   -1.6564 C.2       1 <0>         0.1097
     27 C22         3.4894   -4.5246   -0.5514 C.3       1 <0>        -0.0500
     28 C23         4.7179   -4.3078    0.3404 C.3       1 <0>        -0.1190
     29 H1          4.5933   -3.3903    0.9155 H         1 <0>         0.1048
     30 C24         5.9643   -4.1936   -0.5419 C.3       1 <0>        -0.1431
     31 C25         5.9259   -2.8788   -1.3218 C.3       1 <0>         0.1139
     32 C26         4.8723   -5.4931    1.2955 C.3       1 <0>        -0.0072
     33 N4          5.9761   -5.2297    2.2283 N.4       1 <0>        -0.3888
     34 C27         5.6329   -4.0847    3.0823 C.3       1 <0>        -0.0547
     35 C28         6.2024   -6.4150    3.0662 C.3       1 <0>        -0.0480
     36 H2          1.0048    1.8381    0.0023 H         1 <0>         0.0743
     37 H3         -0.5450    1.8219   -0.8730 H         1 <0>         0.0895
     38 H4         -0.5280    1.8123    0.9069 H         1 <0>         0.0864
     39 H5         -0.0018   -0.4009   -2.1322 H         1 <0>         0.1746
     40 H6          0.0219    0.5088    2.8314 H         1 <0>         0.1217
     41 H7          0.0613   -1.3227    4.4637 H         1 <0>         0.1270
     42 H8          0.0869   -3.6646    3.7130 H         1 <0>         0.1226
     43 H9          0.0641   -4.1972    1.3134 H         1 <0>         0.1164
     44 H10        -1.2322   -5.7787   -3.2388 H         1 <0>         0.4312
     45 H11         1.3634   -1.5218   -4.6694 H         1 <0>         0.1224
     46 H12         2.7103    0.1378   -5.8825 H         1 <0>         0.1288
     47 H13         5.0693    0.4968   -5.2844 H         1 <0>         0.1302
     48 H14         6.1059   -0.7935   -3.4741 H         1 <0>         0.1200
     49 H15         2.5809   -4.4054    0.0390 H         1 <0>         0.1041
     50 H16         3.5199   -5.5255   -0.9821 H         1 <0>         0.0994
     51 H17         6.8561   -4.2199    0.0843 H         1 <0>         0.0792
     52 H18         5.9895   -5.0266   -1.2445 H         1 <0>         0.0962
     53 H19         6.7216   -2.8643   -2.0666 H         1 <0>         0.0982
     54 H20         6.0579   -2.0487   -0.6277 H         1 <0>         0.0811
     55 H21         3.9477   -5.6307    1.8562 H         1 <0>         0.1387
     56 H22         5.0878   -6.3953    0.7230 H         1 <0>         0.1366
     57 H23         6.4519   -3.8893    3.7744 H         1 <0>         0.1263
     58 H24         5.4649   -3.2053    2.4606 H         1 <0>         0.1227
     59 H25         4.7272   -4.3100    3.6454 H         1 <0>         0.1263
     60 H26         6.4571   -7.2645    2.4326 H         1 <0>         0.1245
     61 H27         7.0215   -6.2196    3.7584 H         1 <0>         0.1258
     62 H28         5.2967   -6.6402    3.6293 H         1 <0>         0.1244
     63 H29         6.8145   -5.0212    1.7071 H         1 <0>         0.4230
@<TRIPOS>BOND
     1    1    2 1
     2    1   36 1
     3    1   37 1
     4    1   38 1
     5    2    6 1
     6    2    3 1
     7    3    4 2
     8    3   39 1
     9    4    5 1
    10    4   11 1
    11    5   10 ar
    12    5    6 ar
    13    6    7 ar
    14    7    8 ar
    15    7   40 1
    16    8    9 ar
    17    8   41 1
    18    9   10 ar
    19    9   42 1
    20   10   43 1
    21   11   16 1
    22   11   12 2
    23   12   13 1
    24   12   18 1
    25   13   14 2
    26   13   15 am
    27   15   16 am
    28   15   44 1
    29   16   17 2
    30   18   26 2
    31   18   19 1
    32   19   24 ar
    33   19   20 ar
    34   20   21 ar
    35   20   45 1
    36   21   22 ar
    37   21   46 1
    38   22   23 ar
    39   22   47 1
    40   23   24 ar
    41   23   48 1
    42   24   25 1
    43   25   31 1
    44   25   26 1
    45   26   27 1
    46   27   28 1
    47   27   49 1
    48   27   50 1
    49   28   29 1
    50   28   30 1
    51   28   32 1
    52   30   31 1
    53   30   51 1
    54   30   52 1
    55   31   53 1
    56   31   54 1
    57   32   33 1
    58   32   55 1
    59   32   56 1
    60   33   34 1
    61   33   35 1
    62   33   63 1
    63   34   57 1
    64   34   58 1
    65   34   59 1
    66   35   60 1
    67   35   61 1
    68   35   62 1
@<TRIPOS>MOLECULE
ZINC03783756
   63    68     0     0     0
SMALL
USER_CHARGES

@<TRIPOS>ATOM
      1 C1          1.8486    2.2781    0.2550 C.3       1 <0>         0.0719
      2 N1          1.5677    0.8458    0.1299 N.pl3     1 <0>        -0.4740
      3 C2          1.5578    0.1547   -1.0426 C.2       1 <0>         0.1126
      4 C3          1.2609   -1.1544   -0.8017 C.2       1 <0>        -0.1524
      5 C4          1.0705   -1.2801    0.6541 C.ar      1 <0>        -0.0730
      6 C5          1.2812    0.0037    1.1844 C.ar      1 <0>         0.0956
      7 C6          1.1737    0.2008    2.5569 C.ar      1 <0>        -0.1174
      8 C7          0.8666   -0.8596    3.3821 C.ar      1 <0>        -0.1009
      9 C8          0.6629   -2.1275    2.8576 C.ar      1 <0>        -0.1384
     10 C9          0.7559   -2.3415    1.4995 C.ar      1 <0>        -0.0827
     11 C10         1.1516   -2.2310   -1.8004 C.2       1 <0>        -0.0067
     12 C11         2.1964   -2.8738   -2.4540 C.2       1 <0>        -0.0498
     13 C12         1.5694   -3.8681   -3.3493 C.2       1 <0>         0.5559
     14 O1          2.1615   -4.6284   -4.0891 O.2       1 <0>        -0.4512
     15 N2          0.2353   -3.7912   -3.2088 N.am      1 <0>        -0.6911
     16 C13        -0.0908   -2.8509   -2.3059 C.2       1 <0>         0.5492
     17 O2         -1.2191   -2.5569   -1.9648 O.2       1 <0>        -0.4354
     18 C14         3.6367   -2.6158   -2.2880 C.2       1 <0>        -0.1085
     19 C15         4.4522   -1.6518   -3.0478 C.ar      1 <0>        -0.0783
     20 C16         4.1757   -0.7499   -4.0733 C.ar      1 <0>        -0.0746
     21 C17         5.1875    0.0327   -4.5846 C.ar      1 <0>        -0.1330
     22 C18         6.4768   -0.0741   -4.0830 C.ar      1 <0>        -0.0904
     23 C19         6.7647   -0.9618   -3.0695 C.ar      1 <0>        -0.1268
     24 C20         5.7567   -1.7611   -2.5390 C.ar      1 <0>         0.1056
     25 N3          5.7385   -2.7174   -1.5453 N.pl3     1 <0>        -0.4763
     26 C21         4.4737   -3.2168   -1.3990 C.2       1 <0>         0.1095
     27 C22         4.0931   -4.2809   -0.3945 C.3       1 <0>        -0.0689
     28 C23         5.3789   -4.9473    0.1098 C.3       1 <0>        -0.1208
     29 H1          5.8068   -5.5603   -0.6834 H         1 <0>         0.1047
     30 C24         6.3806   -3.8621    0.5151 C.3       1 <0>        -0.1248
     31 C25         6.8924   -3.1491   -0.7427 C.3       1 <0>         0.1102
     32 C26         5.0583   -5.8271    1.3198 C.3       1 <0>        -0.0056
     33 N4          4.1912   -6.9369    0.9022 N.4       1 <0>        -0.3904
     34 C27         4.9311   -7.8205   -0.0087 C.3       1 <0>        -0.0540
     35 C28         3.7660   -7.6978    2.0847 C.3       1 <0>        -0.0484
     36 H2          2.9194    2.4276    0.3938 H         1 <0>         0.0754
     37 H3          1.5242    2.7924   -0.6496 H         1 <0>         0.0896
     38 H4          1.3114    2.6801    1.1140 H         1 <0>         0.0869
     39 H5          1.7549    0.5787   -2.0162 H         1 <0>         0.1745
     40 H6          1.3310    1.1838    2.9758 H         1 <0>         0.1227
     41 H7          0.7842   -0.7019    4.4473 H         1 <0>         0.1283
     42 H8          0.4233   -2.9493    3.5160 H         1 <0>         0.1228
     43 H9          0.5981   -3.3300    1.0939 H         1 <0>         0.1136
     44 H10        -0.4034   -4.3408   -3.6893 H         1 <0>         0.4308
     45 H11         3.1731   -0.6650   -4.4656 H         1 <0>         0.1216
     46 H12         4.9763    0.7325   -5.3797 H         1 <0>         0.1288
     47 H13         7.2624    0.5444   -4.4913 H         1 <0>         0.1306
     48 H14         7.7718   -1.0371   -2.6868 H         1 <0>         0.1214
     49 H15         3.5634   -3.8244    0.4416 H         1 <0>         0.1043
     50 H16         3.4559   -5.0255   -0.8715 H         1 <0>         0.0846
     51 H17         5.8913   -3.1436    1.1726 H         1 <0>         0.0900
     52 H18         7.2200   -4.3200    1.0383 H         1 <0>         0.1002
     53 H19         7.5135   -3.8251   -1.3304 H         1 <0>         0.0868
     54 H20         7.4771   -2.2783   -0.4461 H         1 <0>         0.0965
     55 H21         5.9841   -6.2257    1.7346 H         1 <0>         0.1370
     56 H22         4.5476   -5.2319    2.0767 H         1 <0>         0.1366
     57 H23         4.3279   -8.7008   -0.2307 H         1 <0>         0.1270
     58 H24         5.1503   -7.2874   -0.9338 H         1 <0>         0.1235
     59 H25         5.8643   -8.1290    0.4627 H         1 <0>         0.1250
     60 H26         3.2170   -7.0422    2.7605 H         1 <0>         0.1250
     61 H27         3.1226   -8.5213    1.7748 H         1 <0>         0.1261
     62 H28         4.6431   -8.0946    2.5961 H         1 <0>         0.1239
     63 H29         3.3793   -6.5696    0.4288 H         1 <0>         0.4249
@<TRIPOS>BOND
     1    1    2 1
     2    1   36 1
     3    1   37 1
     4    1   38 1
     5    2    6 1
     6    2    3 1
     7    3    4 2
     8    3   39 1
     9    4    5 1
    10    4   11 1
    11    5   10 ar
    12    5    6 ar
    13    6    7 ar
    14    7    8 ar
    15    7   40 1
    16    8    9 ar
    17    8   41 1
    18    9   10 ar
    19    9   42 1
    20   10   43 1
    21   11   16 1
    22   11   12 2
    23   12   13 1
    24   12   18 1
    25   13   14 2
    26   13   15 am
    27   15   16 am
    28   15   44 1
    29   16   17 2
    30   18   26 2
    31   18   19 1
    32   19   24 ar
    33   19   20 ar
    34   20   21 ar
    35   20   45 1
    36   21   22 ar
    37   21   46 1
    38   22   23 ar
    39   22   47 1
    40   23   24 ar
    41   23   48 1
    42   24   25 1
    43   25   31 1
    44   25   26 1
    45   26   27 1
    46   27   28 1
    47   27   49 1
    48   27   50 1
    49   28   29 1
    50   28   30 1
    51   28   32 1
    52   30   31 1
    53   30   51 1
    54   30   52 1
    55   31   53 1
    56   31   54 1
    57   32   33 1
    58   32   55 1
    59   32   56 1
    60   33   34 1
    61   33   35 1
    62   33   63 1
    63   34   57 1
    64   34   58 1
    65   34   59 1
    66   35   60 1
    67   35   61 1
    68   35   62 1
@<TRIPOS>MOLECULE
ZINC13447673
   52    59     0     0     0
SMALL
USER_CHARGES
hydroxy-methyl-oxo-BLAHcarboxylic acid
@<TRIPOS>ATOM
      1 C1          3.9692   -0.6942   -1.2730 C.3       1 <0>        -0.1543
      2 C2          2.5839   -0.0869   -1.5032 C.3       1 <0>         0.3542
      3 C3          2.0945    0.6337   -0.2303 C.3       1 <0>         0.0591
      4 C4          0.6233    0.2014   -0.0622 C.3       1 <0>        -0.1896
      5 C5          0.3420   -0.7422   -1.2500 C.3       1 <0>         0.3085
      6 H1         -0.2062   -1.6229   -0.9154 H         1 <0>         0.1438
      7 O1          1.6254   -1.1150   -1.7536 O.3       1 <0>        -0.3464
      8 N1         -0.4111   -0.0096   -2.2723 N.pl3     1 <0>        -0.5047
      9 C6         -1.7686   -0.0190   -2.4699 C.ar      1 <0>         0.1535
     10 C7         -2.7912   -0.6222   -1.7385 C.ar      1 <0>        -0.1519
     11 C8         -4.0814   -0.4783   -2.2186 C.ar      1 <0>        -0.0797
     12 C9         -4.3648    0.2314   -3.3727 C.ar      1 <0>        -0.1671
     13 C10        -3.3704    0.8441   -4.1151 C.ar      1 <0>        -0.0393
     14 C11        -2.0618    0.7148   -3.6456 C.ar      1 <0>        -0.1068
     15 C12        -0.7919    1.2251   -4.1528 C.ar      1 <0>        -0.0096
     16 C13         0.1746    0.7821   -3.2513 C.ar      1 <0>         0.1110
     17 C14         1.5117    1.1661   -3.4042 C.ar      1 <0>         0.1694
     18 N2          2.6085    0.8701   -2.6138 N.pl3     1 <0>        -0.4724
     19 C15         3.6905    1.5802   -3.0742 C.ar      1 <0>         0.1659
     20 C16         4.9962    1.6601   -2.5919 C.ar      1 <0>        -0.1282
     21 C17         5.8806    2.4632   -3.2920 C.ar      1 <0>        -0.0915
     22 C18         5.5024    3.1650   -4.4227 C.ar      1 <0>        -0.1546
     23 C19         4.2105    3.1083   -4.9184 C.ar      1 <0>        -0.0657
     24 C20         3.3039    2.3076   -4.2246 C.ar      1 <0>        -0.0998
     25 C21         1.8861    2.0208   -4.4492 C.ar      1 <0>        -0.0704
     26 C22         0.9325    2.4155   -5.3820 C.ar      1 <0>        -0.0411
     27 C23        -0.3978    2.0237   -5.2520 C.ar      1 <0>        -0.1489
     28 C24        -1.1576    2.5848   -6.3798 C.2       1 <0>         0.5712
     29 O2         -2.3474    2.4161   -6.5668 O.2       1 <0>        -0.5327
     30 N3         -0.3525    3.3099   -7.1742 N.am      1 <0>        -0.7269
     31 C25         1.0064    3.2715   -6.6226 C.3       1 <0>         0.1471
     32 C26         2.9085    0.2003    0.9616 C.2       1 <0>         0.4562
     33 O3          2.5246   -0.7106    1.6564 O.co2     1 <0>        -0.6168
     34 O4          2.1790    2.0502   -0.3988 O.3       1 <0>        -0.5278
     35 H2          4.3944   -1.0017   -2.2284 H         1 <0>         0.0680
     36 H3          4.6185    0.0478   -0.8083 H         1 <0>         0.1184
     37 H4          3.8816   -1.5613   -0.6184 H         1 <0>         0.0913
     38 H5         -0.0336    1.0702   -0.1054 H         1 <0>         0.0891
     39 H6          0.4900   -0.3280    0.8813 H         1 <0>         0.1188
     40 H7         -2.5851   -1.1782   -0.8359 H         1 <0>         0.1295
     41 H8         -4.8947   -0.9348   -1.6740 H         1 <0>         0.1218
     42 H9         -5.3901    0.3087   -3.7032 H         1 <0>         0.1200
     43 H10        -3.5960    1.3960   -5.0156 H         1 <0>         0.1484
     44 H11         5.3048    1.1182   -1.7102 H         1 <0>         0.1450
     45 H12         6.8996    2.5448   -2.9435 H         1 <0>         0.1227
     46 H13         6.2345    3.7739   -4.9324 H         1 <0>         0.1189
     47 H14         3.9190    3.6581   -5.8010 H         1 <0>         0.1295
     48 H15        -0.6242    3.7798   -7.9781 H         1 <0>         0.4227
     49 H16         1.3346    4.2783   -6.3644 H         1 <0>         0.0972
     50 H17         1.6923    2.8275   -7.3440 H         1 <0>         0.0969
     51 H18         1.8840    2.5561    0.3707 H         1 <0>         0.3777
     52 O5          4.0600    0.8262    1.2514 O.co2     1 <0>        -0.7295
@<TRIPOS>BOND
     1    1    2 1
     2    1   35 1
     3    1   36 1
     4    1   37 1
     5    2    7 1
     6    2   18 1
     7    2    3 1
     8    3    4 1
     9    3   32 1
    10    3   34 1
    11    4    5 1
    12    4   38 1
    13    4   39 1
    14    5    6 1
    15    5    7 1
    16    5    8 1
    17    8   16 1
    18    8    9 1
    19    9   14 ar
    20    9   10 ar
    21   10   11 ar
    22   10   40 1
    23   11   12 ar
    24   11   41 1
    25   12   13 ar
    26   12   42 1
    27   13   14 ar
    28   13   43 1
    29   14   15 1
    30   15   27 ar
    31   15   16 ar
    32   16   17 ar
    33   17   25 ar
    34   17   18 1
    35   18   19 1
    36   19   24 ar
    37   19   20 ar
    38   20   21 ar
    39   20   44 1
    40   21   22 ar
    41   21   45 1
    42   22   23 ar
    43   22   46 1
    44   23   24 ar
    45   23   47 1
    46   24   25 1
    47   25   26 ar
    48   26   31 1
    49   26   27 ar
    50   27   28 1
    51   28   29 2
    52   28   30 am
    53   30   31 1
    54   30   48 1
    55   31   49 1
    56   31   50 1
    57   32   33 2
    58   32   52 1
    59   34   51 1
@<TRIPOS>MOLECULE
ZINC03814434
   62    69     0     0     0
SMALL
USER_CHARGES

@<TRIPOS>ATOM
      1 C1         -0.1295    1.5952   -0.2973 C.3       1 <0>        -0.1687
      2 C2         -0.0862    0.0696   -0.1900 C.3       1 <0>         0.3342
      3 C3          0.5692   -0.4501   -1.4637 C.3       1 <0>         0.0405
      4 H1          1.4796    0.1159   -1.6612 H         1 <0>         0.1372
      5 C4          0.9167   -1.9328   -1.2889 C.3       1 <0>        -0.0061
      6 H2          1.3963   -2.3075   -2.1932 H         1 <0>         0.1555
      7 C5          1.8785   -2.0596   -0.1021 C.3       1 <0>        -0.1827
      8 C6          1.2061   -1.5198    1.1541 C.3       1 <0>         0.2999
      9 H3          1.9797   -1.4243    1.9161 H         1 <0>         0.1550
     10 O1          0.6555   -0.2442    0.9666 O.3       1 <0>        -0.3234
     11 N1          0.2189   -2.4746    1.6600 N.pl3     1 <0>        -0.5366
     12 C7          0.4705   -3.5508    2.4739 C.ar      1 <0>         0.1469
     13 C8          1.6649   -4.0152    3.0240 C.ar      1 <0>        -0.1522
     14 C9          1.5948   -5.1456    3.8201 C.ar      1 <0>        -0.0582
     15 C10         0.4006   -5.7997    4.0696 C.ar      1 <0>        -0.1457
     16 C11        -0.7984   -5.3597    3.5358 C.ar      1 <0>        -0.0280
     17 C12        -0.7487   -4.2198    2.7307 C.ar      1 <0>        -0.1131
     18 C13        -1.7893   -3.4830    2.0197 C.ar      1 <0>         0.0276
     19 C14        -1.1442   -2.4197    1.3841 C.ar      1 <0>         0.0376
     20 C15        -1.8806   -1.5095    0.6175 C.ar      1 <0>         0.0894
     21 N2         -1.4718   -0.3951   -0.1095 N.pl3     1 <0>        -0.5183
     22 C16        -2.5611    0.1913   -0.7090 C.ar      1 <0>         0.1618
     23 C17        -2.6521    1.3277   -1.5118 C.ar      1 <0>        -0.1305
     24 C18        -3.9109    1.6745   -1.9733 C.ar      1 <0>        -0.0737
     25 C19        -5.0393    0.9368   -1.6616 C.ar      1 <0>        -0.1358
     26 C20        -4.9745   -0.1955   -0.8662 C.ar      1 <0>        -0.0503
     27 C21        -3.7147   -0.5596   -0.3919 C.ar      1 <0>        -0.1042
     28 C22        -3.2693   -1.6660    0.4845 C.ar      1 <0>        -0.0360
     29 C23        -3.9084   -2.7313    1.1102 C.ar      1 <0>        -0.0288
     30 C24        -3.1873   -3.6421    1.8754 C.ar      1 <0>        -0.1255
     31 C25        -4.1221   -4.6480    2.4030 C.2       1 <0>         0.5632
     32 O2         -3.8062   -5.5851    3.1110 O.2       1 <0>        -0.5106
     33 N3         -5.3744   -4.3851    1.9926 N.am      1 <0>        -0.7162
     34 C26        -5.3495   -3.1771    1.1601 C.3       1 <0>         0.1358
     35 N4         -0.3067   -2.7008   -1.0216 N.4       1 <0>        -0.5252
     36 C27         0.0145   -4.1336   -0.9773 C.3       1 <0>        -0.0497
     37 O3         -0.3340   -0.2979   -2.5607 O.3       1 <0>        -0.3614
     38 C28         0.3101   -0.0933   -3.8198 C.3       1 <0>         0.0162
     39 H4          0.8261    2.0094    0.0240 H         1 <0>         0.0984
     40 H5         -0.3202    1.8814   -1.3317 H         1 <0>         0.1036
     41 H6         -0.9255    1.9818    0.3392 H         1 <0>         0.0921
     42 H7          2.1370   -3.1081    0.0458 H         1 <0>         0.1233
     43 H8          2.7835   -1.4869   -0.3048 H         1 <0>         0.1455
     44 H9          2.6036   -3.5149    2.8368 H         1 <0>         0.1365
     45 H10         2.5026   -5.5304    4.2610 H         1 <0>         0.1359
     46 H11         0.4045   -6.6780    4.6980 H         1 <0>         0.1352
     47 H12        -1.7278   -5.8736    3.7323 H         1 <0>         0.1600
     48 H13        -1.7792    1.9122   -1.7624 H         1 <0>         0.1440
     49 H14        -4.0153    2.5500   -2.5970 H         1 <0>         0.1336
     50 H15        -5.9967    1.2527   -2.0488 H         1 <0>         0.1332
     51 H16        -5.8575   -0.7687   -0.6249 H         1 <0>         0.1415
     52 H17        -6.1628   -4.9065    2.2103 H         1 <0>         0.4348
     53 H18        -5.9671   -2.3994    1.6094 H         1 <0>         0.1115
     54 H19        -5.7060   -3.4063    0.1559 H         1 <0>         0.1103
     55 H20        -0.6958   -2.4158   -0.1353 H         1 <0>         0.4186
     56 H21         0.4349   -4.4415   -1.9347 H         1 <0>         0.1256
     57 H22         0.7403   -4.3189   -0.1854 H         1 <0>         0.1191
     58 H23        -0.8932   -4.7035   -0.7789 H         1 <0>         0.1256
     59 H24         0.9168    0.8112   -3.7748 H         1 <0>         0.0633
     60 H25         0.9482   -0.9479   -4.0446 H         1 <0>         0.0514
     61 H26        -0.4433    0.0130   -4.6003 H         1 <0>         0.1100
     62 H27        -0.9785   -2.5293   -1.7546 H         1 <0>         0.4274
@<TRIPOS>BOND
     1    1    2 1
     2    1   39 1
     3    1   40 1
     4    1   41 1
     5    2   10 1
     6    2   21 1
     7    2    3 1
     8    3    4 1
     9    3    5 1
    10    3   37 1
    11    5    6 1
    12    5    7 1
    13    5   35 1
    14    7    8 1
    15    7   42 1
    16    7   43 1
    17    8    9 1
    18    8   10 1
    19    8   11 1
    20   11   19 1
    21   11   12 1
    22   12   17 ar
    23   12   13 ar
    24   13   14 ar
    25   13   44 1
    26   14   15 ar
    27   14   45 1
    28   15   16 ar
    29   15   46 1
    30   16   17 ar
    31   16   47 1
    32   17   18 1
    33   18   30 ar
    34   18   19 ar
    35   19   20 ar
    36   20   28 ar
    37   20   21 1
    38   21   22 1
    39   22   27 ar
    40   22   23 ar
    41   23   24 ar
    42   23   48 1
    43   24   25 ar
    44   24   49 1
    45   25   26 ar
    46   25   50 1
    47   26   27 ar
    48   26   51 1
    49   27   28 1
    50   28   29 ar
    51   29   34 1
    52   29   30 ar
    53   30   31 1
    54   31   32 2
    55   31   33 am
    56   33   34 1
    57   33   52 1
    58   34   53 1
    59   34   54 1
    60   35   36 1
    61   35   55 1
    62   35   62 1
    63   36   56 1
    64   36   57 1
    65   36   58 1
    66   37   38 1
    67   38   59 1
    68   38   60 1
    69   38   61 1
@<TRIPOS>MOLECULE
ZINC02560264
   37    42     0     0     0
SMALL
USER_CHARGES

@<TRIPOS>ATOM
      1 C1         -0.0166    1.3740    0.0096 C.ar      1 <0>        -0.1440
      2 C2          1.1716    2.0886    0.0021 C.ar      1 <0>        -0.0817
      3 C3          2.3839    1.4333   -0.0130 C.ar      1 <0>        -0.1381
      4 C4          2.4234    0.0421   -0.0208 C.ar      1 <0>         0.1368
      5 C5          1.2204   -0.6789   -0.0132 C.ar      1 <0>        -0.0962
      6 C6          0.0021   -0.0041    0.0020 C.ar      1 <0>        -0.0609
      7 C7          1.5891   -2.1077   -0.0244 C.ar      1 <0>        -0.0649
      8 C8          0.8454   -3.2819   -0.0236 C.ar      1 <0>        -0.0450
      9 C9          1.4816   -4.5185   -0.0365 C.ar      1 <0>        -0.1358
     10 C10         2.8940   -4.5714   -0.0501 C.ar      1 <0>        -0.0059
     11 C11         3.8569   -5.6841   -0.0662 C.ar      1 <0>        -0.1090
     12 C12         3.7202   -7.0720   -0.0736 C.ar      1 <0>        -0.0448
     13 C13         4.8431   -7.8694   -0.0897 C.ar      1 <0>        -0.1554
     14 C14         6.1070   -7.2977   -0.0979 C.ar      1 <0>        -0.0739
     15 C15         6.2575   -5.9282   -0.0907 C.ar      1 <0>        -0.1504
     16 C16         5.1356   -5.1043   -0.0750 C.ar      1 <0>         0.1441
     17 N1          4.9880   -3.7311   -0.0653 N.pl3     1 <0>        -0.6105
     18 H1          5.7195   -3.0941   -0.0687 H         1 <0>         0.4165
     19 C17         3.6443   -3.3949   -0.0504 C.ar      1 <0>         0.1138
     20 C18         2.9910   -2.1538   -0.0381 C.ar      1 <0>         0.1603
     21 N2          3.4713   -0.8601   -0.0356 N.pl3     1 <0>        -0.6071
     22 H2          4.4105   -0.6179   -0.0435 H         1 <0>         0.4182
     23 C19         0.4534   -5.5701   -0.0322 C.2       1 <0>         0.5671
     24 O1          0.6821   -6.7645   -0.0405 O.2       1 <0>        -0.5235
     25 N3         -0.7748   -5.0244   -0.0172 N.am      1 <0>        -0.7239
     26 C20        -0.6370   -3.5635   -0.0107 C.3       1 <0>         0.1438
     27 H3         -0.9602    1.8992    0.0259 H         1 <0>         0.1299
     28 H4          1.1469    3.1683    0.0077 H         1 <0>         0.1312
     29 H5          3.3035    1.9995   -0.0190 H         1 <0>         0.1253
     30 H6         -0.9246   -0.5587    0.0075 H         1 <0>         0.1280
     31 H7          2.7375   -7.5198   -0.0665 H         1 <0>         0.1456
     32 H8          4.7391   -8.9443   -0.0955 H         1 <0>         0.1286
     33 H9          6.9811   -7.9319   -0.1098 H         1 <0>         0.1300
     34 H10         7.2462   -5.4938   -0.0972 H         1 <0>         0.1240
     35 H11        -1.6120   -5.5143   -0.0117 H         1 <0>         0.4271
     36 H12        -1.0897   -3.1483    0.8897 H         1 <0>         0.1004
     37 H13        -1.1071   -3.1386   -0.8976 H         1 <0>         0.1004
@<TRIPOS>BOND
     1    1    6 ar
     2    1    2 ar
     3    1   27 1
     4    2    3 ar
     5    2   28 1
     6    3    4 ar
     7    3   29 1
     8    4   21 1
     9    4    5 ar
    10    5    6 ar
    11    5    7 1
    12    6   30 1
    13    7   20 ar
    14    7    8 ar
    15    8   26 1
    16    8    9 ar
    17    9   10 ar
    18    9   23 1
    19   10   19 ar
    20   10   11 1
    21   11   16 ar
    22   11   12 ar
    23   12   13 ar
    24   12   31 1
    25   13   14 ar
    26   13   32 1
    27   14   15 ar
    28   14   33 1
    29   15   16 ar
    30   15   34 1
    31   16   17 1
    32   17   18 1
    33   17   19 1
    34   19   20 ar
    35   20   21 1
    36   21   22 1
    37   23   24 2
    38   23   25 am
    39   25   26 1
    40   25   35 1
    41   26   36 1
    42   26   37 1
@<TRIPOS>MOLECULE
ZINC03915682
   58    61     0     0     0
SMALL
USER_CHARGES
[dihydroxy-(hydroxymethyl)-tetramethyl-oxo-BLAHyl] acetate
@<TRIPOS>ATOM
      1 C1          0.9974    3.6575   -1.3140 C.3       1 <0>        -0.1589
      2 C2          1.8259    3.0269   -0.1633 C.3       1 <0>        -0.1228
      3 H1          1.5131    3.5748    0.7220 H         1 <0>         0.0972
      4 C3          3.2878    3.1931   -0.5175 C.3       1 <0>        -0.0688
      5 C4          4.1781    2.2603    0.2525 C.3       1 <0>         0.1123
      6 C5          3.6473    1.1852    1.0666 C.3       1 <0>        -0.1020
      7 H2          4.1874    0.1795    1.0360 H         1 <0>         0.1260
      8 C6          4.3991    2.3460    1.7148 C.3       1 <0>        -0.1292
      9 C7          5.8084    2.0483    2.1984 C.3       1 <0>        -0.1217
     10 C8          3.6454    3.3785    2.5701 C.3       1 <0>        -0.1170
     11 C9          2.1769    1.0993    1.2829 C.3       1 <0>        -0.0254
     12 H3          1.8053    1.7438    2.1256 H         1 <0>         0.1187
     13 C10         1.4719    1.5081   -0.0039 C.3       1 <0>         0.1787
     14 C11        -0.0139    1.1713    0.0085 C.3       1 <0>        -0.0969
     15 H4          0.0021   -0.0041    0.0020 H         1 <0>         0.1161
     16 C12        -0.9307    1.5805   -1.0523 C.2       1 <0>        -0.0777
     17 C13        -2.1091    1.9055   -0.6109 C.2       1 <0>        -0.2115
     18 C14        -2.1174    1.7423    0.9190 C.2       1 <0>         0.3603
     19 O1         -3.1351    1.8027    1.5585 O.2       1 <0>        -0.4215
     20 C15        -0.6798    1.4842    1.3392 C.3       1 <0>         0.1260
     21 C16        -0.5240    0.4032    2.3550 C.3       1 <0>        -0.1000
     22 C17         0.5360   -0.5245    2.0904 C.2       1 <0>        -0.1416
     23 C18         1.6940   -0.3273    1.6098 C.2       1 <0>        -0.0858
     24 C19         0.2471   -2.0234    2.4576 C.3       1 <0>         0.1012
     25 O2          1.3940   -2.8186    2.1505 O.3       1 <0>        -0.5690
     26 O3         -0.2179    2.6813    1.8448 O.3       1 <0>        -0.5247
     27 C20        -3.2801    2.3013   -1.4763 C.3       1 <0>        -0.0966
     28 O4          2.0449    0.8205   -1.1548 O.3       1 <0>        -0.5540
     29 O5          5.3931    1.9049   -0.5751 O.3       1 <0>        -0.3444
     30 C21         5.8795    2.8590   -1.3844 C.2       1 <0>         0.4583
     31 O6          5.3482    3.9433   -1.4273 O.2       1 <0>        -0.5102
     32 C22         7.0882    2.5777   -2.2393 C.3       1 <0>        -0.1504
     33 H5         -0.0653    3.5622   -1.0910 H         1 <0>         0.0658
     34 H6          1.2550    4.7121   -1.4116 H         1 <0>         0.0587
     35 H7          1.2205    3.1411   -2.2476 H         1 <0>         0.0480
     36 H8          3.3640    3.0871   -1.5410 H         1 <0>         0.0828
     37 H9          3.5132    4.2655   -0.1857 H         1 <0>         0.0801
     38 H10         6.2626    2.9630    2.5793 H         1 <0>         0.0606
     39 H11         5.7700    1.3034    2.9932 H         1 <0>         0.0637
     40 H12         6.4035    1.6650    1.3695 H         1 <0>         0.0665
     41 H13         2.8786    3.8615    1.9645 H         1 <0>         0.0665
     42 H14         3.1770    2.8765    3.4167 H         1 <0>         0.0661
     43 H15         4.3464    4.1291    2.9352 H         1 <0>         0.0648
     44 H16        -0.6281    1.6131   -2.1492 H         1 <0>         0.1464
     45 H17        -1.5420   -0.1083    2.4121 H         1 <0>         0.0897
     46 H18        -0.3650    0.8889    3.2728 H         1 <0>         0.0919
     47 H19         2.3511   -1.0976    1.4940 H         1 <0>         0.1276
     48 H20         0.0259   -2.1006    3.5221 H         1 <0>         0.0561
     49 H21        -0.6071   -2.3803    1.8822 H         1 <0>         0.0525
     50 H22         1.2866   -3.7582    2.3522 H         1 <0>         0.3840
     51 H23        -0.6111    2.9279    2.6931 H         1 <0>         0.3867
     52 H24        -4.1578    2.4596   -0.8497 H         1 <0>         0.0690
     53 H25        -3.0432    3.2222   -2.0092 H         1 <0>         0.0723
     54 H26        -3.4851    1.5080   -2.1951 H         1 <0>         0.0715
     55 H27         1.6594    1.0831   -2.0019 H         1 <0>         0.3700
     56 H28         6.7676    2.1800   -3.2022 H         1 <0>         0.1023
     57 H29         7.6459    3.5012   -2.3951 H         1 <0>         0.1008
     58 H30         7.7254    1.8485   -1.7390 H         1 <0>         0.0909
@<TRIPOS>BOND
     1    1    2 1
     2    1   33 1
     3    1   34 1
     4    1   35 1
     5    2    3 1
     6    2   13 1
     7    2    4 1
     8    4    5 1
     9    4   36 1
    10    4   37 1
    11    5    8 1
    12    5    6 1
    13    5   29 1
    14    6    7 1
    15    6    8 1
    16    6   11 1
    17    8    9 1
    18    8   10 1
    19    9   38 1
    20    9   39 1
    21    9   40 1
    22   10   41 1
    23   10   42 1
    24   10   43 1
    25   11   12 1
    26   11   23 1
    27   11   13 1
    28   13   14 1
    29   13   28 1
    30   14   15 1
    31   14   20 1
    32   14   16 1
    33   16   17 2
    34   16   44 1
    35   17   18 1
    36   17   27 1
    37   18   19 2
    38   18   20 1
    39   20   21 1
    40   20   26 1
    41   21   22 1
    42   21   45 1
    43   21   46 1
    44   22   23 2
    45   22   24 1
    46   23   47 1
    47   24   25 1
    48   24   48 1
    49   24   49 1
    50   25   50 1
    51   26   51 1
    52   27   52 1
    53   27   53 1
    54   27   54 1
    55   28   55 1
    56   29   30 1
    57   30   31 2
    58   30   32 1
    59   32   56 1
    60   32   57 1
    61   32   58 1
@<TRIPOS>MOLECULE
ZINC06475935
   37    41     0     0     0
SMALL
USER_CHARGES

@<TRIPOS>ATOM
      1 C1         -0.0167    1.3792    0.0096 C.ar      1 <0>        -0.1062
      2 C2          1.1685    2.0927    0.0021 C.ar      1 <0>        -0.1241
      3 C3          2.3774    1.4276   -0.0135 C.ar      1 <0>        -0.0971
      4 C4          2.4028    0.0333   -0.0212 C.ar      1 <0>        -0.0698
      5 C5          1.2047   -0.6805   -0.0131 C.ar      1 <0>        -0.0699
      6 C6          0.0021   -0.0041    0.0020 C.ar      1 <0>        -0.1189
      7 C7          3.6973   -0.6869   -0.0384 C.ar      1 <0>         0.0669
      8 C8          4.6754   -0.3384   -0.9678 C.ar      1 <0>        -0.1132
      9 C9          5.8922   -1.0065   -0.9938 C.ar      1 <0>         0.1759
     10 C10         6.1423   -2.0459   -0.0730 C.ar      1 <0>        -0.0351
     11 C11         7.4991   -2.5393   -0.3607 C.ar      1 <0>        -0.0961
     12 C12         8.2934   -3.5392    0.1999 C.ar      1 <0>        -0.0753
     13 C13         9.5594   -3.7717   -0.3037 C.ar      1 <0>         0.0785
     14 C14        10.0393   -3.0111   -1.3648 C.ar      1 <0>        -0.0961
     15 C15         9.2614   -2.0209   -1.9249 C.ar      1 <0>        -0.1252
     16 C16         7.9844   -1.7730   -1.4314 C.ar      1 <0>         0.1387
     17 N1          7.0072   -0.8611   -1.7955 N.pl3     1 <0>        -0.6077
     18 H1          7.0938   -0.2127   -2.5117 H         1 <0>         0.4258
     19 O1         10.3376   -4.7456    0.2396 O.3       1 <0>        -0.4931
     20 C17         5.1676   -2.4003    0.8608 C.ar      1 <0>        -0.0787
     21 C18         3.9391   -1.7132    0.8827 C.ar      1 <0>        -0.1638
     22 C19         3.1555   -2.3189    1.9736 C.2       1 <0>         0.5798
     23 O2          2.0310   -1.9966    2.3024 O.2       1 <0>        -0.4523
     24 N2          3.8925   -3.2886    2.5445 N.am      1 <0>        -0.6803
     25 C20         5.0881   -3.4048    1.9386 C.2       1 <0>         0.5787
     26 O3          5.9616   -4.1941    2.2386 O.2       1 <0>        -0.4558
     27 H2         -0.9604    1.9042    0.0260 H         1 <0>         0.1242
     28 H3          1.1476    3.1725    0.0082 H         1 <0>         0.1259
     29 H4          3.3020    1.9857   -0.0200 H         1 <0>         0.1250
     30 H5          1.2181   -1.7604   -0.0194 H         1 <0>         0.1216
     31 H6         -0.9264   -0.5557    0.0079 H         1 <0>         0.1258
     32 H7          4.4855    0.4570   -1.6732 H         1 <0>         0.1471
     33 H8          7.9210   -4.1292    1.0243 H         1 <0>         0.1476
     34 H9         11.0297   -3.1978   -1.7528 H         1 <0>         0.1402
     35 H10         9.6439   -1.4363   -2.7485 H         1 <0>         0.1347
     36 H11        10.2282   -5.6129   -0.1739 H         1 <0>         0.3907
     37 H12         3.5977   -3.8372    3.2881 H         1 <0>         0.4317
@<TRIPOS>BOND
     1    1    6 ar
     2    1    2 ar
     3    1   27 1
     4    2    3 ar
     5    2   28 1
     6    3    4 ar
     7    3   29 1
     8    4    5 ar
     9    4    7 1
    10    5    6 ar
    11    5   30 1
    12    6   31 1
    13    7   21 ar
    14    7    8 ar
    15    8    9 ar
    16    8   32 1
    17    9   17 1
    18    9   10 ar
    19   10   11 1
    20   10   20 ar
    21   11   16 ar
    22   11   12 ar
    23   12   13 ar
    24   12   33 1
    25   13   14 ar
    26   13   19 1
    27   14   15 ar
    28   14   34 1
    29   15   16 ar
    30   15   35 1
    31   16   17 1
    32   17   18 1
    33   19   36 1
    34   20   25 1
    35   20   21 ar
    36   21   22 1
    37   22   23 2
    38   22   24 am
    39   24   25 am
    40   24   37 1
    41   25   26 2
@<TRIPOS>MOLECULE
ZINC19203131
   79    83     0     0     0
SMALL
USER_CHARGES

@<TRIPOS>ATOM
      1 C1          0.4728    1.2638   -2.5373 C.3       1 <0>        -0.1453
      2 C2          0.5659   -0.2603   -2.5689 C.3       1 <0>        -0.0436
      3 C3         -0.7274   -0.8397   -3.1412 C.3       1 <0>        -0.1021
      4 C4         -1.9076   -0.5242   -2.2273 C.3       1 <0>        -0.0883
      5 C5         -1.6737   -1.0494   -0.8135 C.3       1 <0>        -0.1254
      6 C6         -0.3635   -0.5044   -0.2441 C.3       1 <0>        -0.0766
      7 C7          0.8019   -0.8177   -1.1676 C.3       1 <0>        -0.0495
      8 H1          0.9219   -1.9079   -1.2407 H         1 <0>         0.0798
      9 C8          2.0968   -0.2452   -0.6259 C.2       1 <0>        -0.0068
     10 C9          2.0888    0.2608    0.6067 C.2       1 <0>        -0.2597
     11 C10         3.3159    0.8078    1.2119 C.2       1 <0>         0.3996
     12 O1          3.2472    1.4848    2.2154 O.2       1 <0>        -0.4514
     13 C11         4.6120    0.4416    0.5262 C.3       1 <0>        -0.1125
     14 H2          4.7766   -0.6430    0.7099 H         1 <0>         0.0950
     15 C12         5.8177    1.1540    1.1304 C.3       1 <0>        -0.0230
     16 C13         6.0278    0.6085    2.5540 C.3       1 <0>        -0.1166
     17 C14         7.2812    1.2327    3.1599 C.3       1 <0>        -0.1468
     18 C15         8.5107    0.8346    2.3542 C.3       1 <0>         0.1188
     19 H3          8.6616   -0.2474    2.4399 H         1 <0>         0.0474
     20 C16         8.3805    1.1993    0.8761 C.3       1 <0>        -0.0368
     21 C17         7.0445    0.7997    0.2951 C.3       1 <0>        -0.0597
     22 H4          7.0507   -0.3175    0.2270 H         1 <0>         0.0593
     23 C18         6.8452    1.2956   -1.1367 C.3       1 <0>        -0.1137
     24 C19         5.7031    0.4800   -1.7608 C.3       1 <0>        -0.1071
     25 C20         4.4163    0.6494   -0.9686 C.3       1 <0>        -0.0216
     26 C21         3.3288   -0.2993   -1.4852 C.3       1 <0>        -0.0139
     27 C22         3.0390   -0.0304   -2.9542 C.3       1 <0>        -0.1046
     28 C23         1.7502   -0.6848   -3.4418 C.3       1 <0>        -0.1101
     29 C24         3.8613   -1.7371   -1.3874 C.3       1 <0>        -0.1491
     30 C25         3.8884    2.0744   -1.2110 C.3       1 <0>        -0.1707
     31 C26         9.4833    0.4010    0.1348 C.3       1 <0>        -0.1463
     32 C27         8.6956    2.6818    0.6756 C.3       1 <0>        -0.1327
     33 O2          9.6631    1.4926    2.8961 O.3       1 <0>        -0.5663
     34 C28         5.6034    2.6605    1.2285 C.3       1 <0>        -0.1601
     35 C29        -1.6538   -2.5782   -0.8159 C.3       1 <0>        -0.1185
     36 C30        -2.8131   -0.5861    0.0688 C.2       1 <0>         0.4997
     37 O3         -3.9583   -0.9123   -0.1929 O.co2     1 <0>        -0.7001
     38 O4         -2.5855    0.1133    1.0412 O.co2     1 <0>        -0.6966
     39 H5          1.4030    1.6767   -2.1470 H         1 <0>         0.0565
     40 H6          0.3044    1.6385   -3.5470 H         1 <0>         0.0486
     41 H7         -0.3555    1.5640   -1.8956 H         1 <0>         0.0641
     42 H8         -0.9070   -0.3913   -4.1254 H         1 <0>         0.0521
     43 H9         -0.6208   -1.9161   -3.2703 H         1 <0>         0.0580
     44 H10        -2.0885    0.5497   -2.1934 H         1 <0>         0.0539
     45 H11        -2.8078   -1.0027   -2.6337 H         1 <0>         0.0579
     46 H12        -0.4517    0.5698   -0.0832 H         1 <0>         0.0694
     47 H13        -0.1860   -0.9801    0.7303 H         1 <0>         0.0545
     48 H14         1.1756    0.2770    1.1841 H         1 <0>         0.1443
     49 H15         5.1612    0.8568    3.1640 H         1 <0>         0.0820
     50 H16         6.1422   -0.4741    2.5041 H         1 <0>         0.0567
     51 H17         7.1963    2.3129    3.2228 H         1 <0>         0.0774
     52 H18         7.3962    0.8516    4.1861 H         1 <0>         0.0560
     53 H19         6.6122    2.3509   -1.1698 H         1 <0>         0.0709
     54 H20         7.7484    1.1145   -1.7252 H         1 <0>         0.0629
     55 H21         5.5508    0.8257   -2.7879 H         1 <0>         0.0676
     56 H22         6.0226   -0.5618   -1.7899 H         1 <0>         0.0668
     57 H23         3.0207    1.0230   -3.2073 H         1 <0>         0.0738
     58 H24         3.8698   -0.4674   -3.5442 H         1 <0>         0.0569
     59 H25         1.8467   -1.7704   -3.4156 H         1 <0>         0.0606
     60 H26         1.5557   -0.3753   -4.4732 H         1 <0>         0.0615
     61 H27         3.1022   -2.4310   -1.7484 H         1 <0>         0.0616
     62 H28         4.7605   -1.8337   -1.9958 H         1 <0>         0.0639
     63 H29         4.0989   -1.9667   -0.3487 H         1 <0>         0.0560
     64 H30         4.6488    2.7983   -0.9179 H         1 <0>         0.0676
     65 H31         3.6551    2.2005   -2.2683 H         1 <0>         0.0645
     66 H32         2.9874    2.2339   -0.6186 H         1 <0>         0.0600
     67 H33         9.3261   -0.6663    0.2905 H         1 <0>         0.0486
     68 H34         9.4381    0.6231   -0.9314 H         1 <0>         0.0555
     69 H35        10.4611    0.6848    0.5239 H         1 <0>         0.0593
     70 H36         9.7493    2.8614    0.8889 H         1 <0>         0.0584
     71 H37         8.4806    2.9627   -0.3554 H         1 <0>         0.0517
     72 H38         8.0815    3.2782    1.3503 H         1 <0>         0.0569
     73 H39         9.8421    1.2742    3.8210 H         1 <0>         0.3732
     74 H40         4.6128    2.8608    1.6367 H         1 <0>         0.0742
     75 H41         6.3602    3.0933    1.8827 H         1 <0>         0.0601
     76 H42         5.6841    3.1044    0.2362 H         1 <0>         0.0592
     77 H43        -0.8518   -2.9301   -1.4649 H         1 <0>         0.0380
     78 H44        -1.4862   -2.9410    0.1982 H         1 <0>         0.0413
     79 H45        -2.6091   -2.9534   -1.1829 H         1 <0>         0.0539
@<TRIPOS>BOND
     1    1    2 1
     2    1   39 1
     3    1   40 1
     4    1   41 1
     5    2    7 1
     6    2   28 1
     7    2    3 1
     8    3    4 1
     9    3   42 1
    10    3   43 1
    11    4    5 1
    12    4   44 1
    13    4   45 1
    14    5    6 1
    15    5   35 1
    16    5   36 1
    17    6    7 1
    18    6   46 1
    19    6   47 1
    20    7    8 1
    21    7    9 1
    22    9   26 1
    23    9   10 2
    24   10   11 1
    25   10   48 1
    26   11   12 2
    27   11   13 1
    28   13   14 1
    29   13   25 1
    30   13   15 1
    31   15   21 1
    32   15   16 1
    33   15   34 1
    34   16   17 1
    35   16   49 1
    36   16   50 1
    37   17   18 1
    38   17   51 1
    39   17   52 1
    40   18   19 1
    41   18   20 1
    42   18   33 1
    43   20   21 1
    44   20   31 1
    45   20   32 1
    46   21   22 1
    47   21   23 1
    48   23   24 1
    49   23   53 1
    50   23   54 1
    51   24   25 1
    52   24   55 1
    53   24   56 1
    54   25   26 1
    55   25   30 1
    56   26   27 1
    57   26   29 1
    58   27   28 1
    59   27   57 1
    60   27   58 1
    61   28   59 1
    62   28   60 1
    63   29   61 1
    64   29   62 1
    65   29   63 1
    66   30   64 1
    67   30   65 1
    68   30   66 1
    69   31   67 1
    70   31   68 1
    71   31   69 1
    72   32   70 1
    73   32   71 1
    74   32   72 1
    75   33   73 1
    76   34   74 1
    77   34   75 1
    78   34   76 1
    79   35   77 1
    80   35   78 1
    81   35   79 1
    82   36   37 2
    83   36   38 1
@<TRIPOS>MOLECULE
ZINC19203131
   79    83     0     0     0
SMALL
USER_CHARGES

@<TRIPOS>ATOM
      1 C1          0.6456    1.7280   -2.5152 C.3       1 <0>        -0.1468
      2 C2          0.6518    0.1970   -2.6000 C.3       1 <0>        -0.0447
      3 C3         -0.6848   -0.2429   -3.1979 C.3       1 <0>        -0.1006
      4 C4         -0.7983   -1.7627   -3.2148 C.3       1 <0>        -0.0867
      5 C5         -0.6469   -2.3346   -1.8057 C.3       1 <0>        -0.1308
      6 C6          0.6905   -1.8984   -1.2096 C.3       1 <0>        -0.0666
      7 C7          0.8269   -0.3802   -1.1995 C.3       1 <0>        -0.0489
      8 H1          0.0653    0.0529   -0.5359 H         1 <0>         0.1118
      9 C8          2.1956   -0.0004   -0.6658 C.2       1 <0>         0.0093
     10 C9          2.2431    0.3732    0.6187 C.2       1 <0>        -0.2654
     11 C10         3.5050    0.7729    1.2574 C.2       1 <0>         0.4015
     12 O1          3.4908    1.2728    2.3648 O.2       1 <0>        -0.4605
     13 C11         4.7755    0.5041    0.4842 C.3       1 <0>        -0.1130
     14 H2          4.9710   -0.5882    0.5585 H         1 <0>         0.0967
     15 C12         5.9968    1.1756    1.1081 C.3       1 <0>        -0.0223
     16 C13         6.2668    0.5019    2.4653 C.3       1 <0>        -0.1186
     17 C14         7.5457    1.0708    3.0731 C.3       1 <0>        -0.1465
     18 C15         8.7380    0.7505    2.1811 C.3       1 <0>         0.1179
     19 H3          8.8771   -0.3354    2.1410 H         1 <0>         0.0474
     20 C16         8.5467    1.2746    0.7575 C.3       1 <0>        -0.0367
     21 C17         7.1909    0.9192    0.1935 C.3       1 <0>        -0.0601
     22 H4          7.2045   -0.1851    0.0186 H         1 <0>         0.0594
     23 C18         6.9293    1.5468   -1.1745 C.3       1 <0>        -0.1134
     24 C19         5.7696    0.7824   -1.8319 C.3       1 <0>        -0.1067
     25 C20         4.5187    0.8570   -0.9725 C.3       1 <0>        -0.0239
     26 C21         3.4148   -0.0527   -1.5342 C.3       1 <0>        -0.0148
     27 C22         3.1328    0.2991   -2.9871 C.3       1 <0>        -0.1033
     28 C23         1.8055   -0.2685   -3.4816 C.3       1 <0>        -0.1081
     29 C24         3.9437   -1.4937   -1.5089 C.3       1 <0>        -0.1536
     30 C25         3.9623    2.2877   -1.0594 C.3       1 <0>        -0.1702
     31 C26         9.6271    0.5811   -0.1099 C.3       1 <0>        -0.1461
     32 C27         8.8355    2.7751    0.7129 C.3       1 <0>        -0.1331
     33 O2          9.9195    1.3359    2.7401 O.3       1 <0>        -0.5661
     34 C28         5.7635    2.6614    1.3574 C.3       1 <0>        -0.1571
     35 C29        -0.6693   -3.8687   -1.8928 C.3       1 <0>        -0.1216
     36 C30        -1.7831   -1.8866   -0.9274 C.2       1 <0>         0.5075
     37 O3         -2.9311   -2.1716   -1.2230 O.co2     1 <0>        -0.7014
     38 O4         -1.5560   -1.2384    0.0799 O.co2     1 <0>        -0.6930
     39 H5          1.5894    2.0723   -2.0923 H         1 <0>         0.0573
     40 H6          0.5207    2.1467   -3.5138 H         1 <0>         0.0482
     41 H7         -0.1776    2.0534   -1.8792 H         1 <0>         0.0546
     42 H8         -1.5018    0.1991   -2.6316 H         1 <0>         0.0653
     43 H9         -0.7422    0.1284   -4.2285 H         1 <0>         0.0478
     44 H10        -1.7739   -2.0497   -3.6162 H         1 <0>         0.0592
     45 H11        -0.0202   -2.1807   -3.8586 H         1 <0>         0.0444
     46 H12         0.7656   -2.2770   -0.1853 H         1 <0>         0.0555
     47 H13         1.4905   -2.3449   -1.8038 H         1 <0>         0.0434
     48 H14         1.3291    0.3819    1.1968 H         1 <0>         0.1347
     49 H15         5.4279    0.6968    3.1338 H         1 <0>         0.0852
     50 H16         6.3728   -0.5717    2.3148 H         1 <0>         0.0565
     51 H17         7.4651    2.1408    3.2332 H         1 <0>         0.0764
     52 H18         7.7039    0.5997    4.0543 H         1 <0>         0.0559
     53 H19         6.6826    2.5986   -1.0936 H         1 <0>         0.0701
     54 H20         7.8089    1.4405   -1.8139 H         1 <0>         0.0628
     55 H21         5.5698    1.2324   -2.8096 H         1 <0>         0.0677
     56 H22         6.0904   -0.2480   -1.9838 H         1 <0>         0.0670
     57 H23         3.1728    1.3627   -3.1865 H         1 <0>         0.0715
     58 H24         3.9326   -0.1572   -3.6049 H         1 <0>         0.0561
     59 H25         1.8481   -1.3584   -3.4851 H         1 <0>         0.0668
     60 H26         1.6326    0.0715   -4.5080 H         1 <0>         0.0575
     61 H27         3.1774   -2.1687   -1.8900 H         1 <0>         0.0693
     62 H28         4.8340   -1.5650   -2.1336 H         1 <0>         0.0628
     63 H29         4.1952   -1.7705   -0.4850 H         1 <0>         0.0558
     64 H30         4.7333    2.9963   -0.7568 H         1 <0>         0.0655
     65 H31         3.6583    2.4976   -2.0849 H         1 <0>         0.0648
     66 H32         3.1011    2.3834   -0.3983 H         1 <0>         0.0605
     67 H33         9.4879   -0.4992   -0.0686 H         1 <0>         0.0487
     68 H34         9.5371    0.9199   -1.1420 H         1 <0>         0.0555
     69 H35        10.6165    0.8347    0.2707 H         1 <0>         0.0594
     70 H36         9.8913    2.9483    0.9212 H         1 <0>         0.0585
     71 H37         8.5919    3.1627   -0.2763 H         1 <0>         0.0516
     72 H38         8.2291    3.2842    1.4620 H         1 <0>         0.0568
     73 H39        10.1330    1.0190    3.6284 H         1 <0>         0.3731
     74 H40         4.7879    2.8030    1.8225 H         1 <0>         0.0701
     75 H41         6.5404    3.0452    2.0186 H         1 <0>         0.0597
     76 H42         5.7954    3.1983    0.4094 H         1 <0>         0.0596
     77 H43         0.1537   -4.2090   -2.5213 H         1 <0>         0.0357
     78 H44        -0.5621   -4.2909   -0.8937 H         1 <0>         0.0427
     79 H45        -1.6154   -4.1942   -2.3252 H         1 <0>         0.0551
@<TRIPOS>BOND
     1    1    2 1
     2    1   39 1
     3    1   40 1
     4    1   41 1
     5    2    7 1
     6    2   28 1
     7    2    3 1
     8    3    4 1
     9    3   42 1
    10    3   43 1
    11    4    5 1
    12    4   44 1
    13    4   45 1
    14    5    6 1
    15    5   35 1
    16    5   36 1
    17    6    7 1
    18    6   46 1
    19    6   47 1
    20    7    8 1
    21    7    9 1
    22    9   26 1
    23    9   10 2
    24   10   11 1
    25   10   48 1
    26   11   12 2
    27   11   13 1
    28   13   14 1
    29   13   25 1
    30   13   15 1
    31   15   21 1
    32   15   16 1
    33   15   34 1
    34   16   17 1
    35   16   49 1
    36   16   50 1
    37   17   18 1
    38   17   51 1
    39   17   52 1
    40   18   19 1
    41   18   20 1
    42   18   33 1
    43   20   21 1
    44   20   31 1
    45   20   32 1
    46   21   22 1
    47   21   23 1
    48   23   24 1
    49   23   53 1
    50   23   54 1
    51   24   25 1
    52   24   55 1
    53   24   56 1
    54   25   26 1
    55   25   30 1
    56   26   27 1
    57   26   29 1
    58   27   28 1
    59   27   57 1
    60   27   58 1
    61   28   59 1
    62   28   60 1
    63   29   61 1
    64   29   62 1
    65   29   63 1
    66   30   64 1
    67   30   65 1
    68   30   66 1
    69   31   67 1
    70   31   68 1
    71   31   69 1
    72   32   70 1
    73   32   71 1
    74   32   72 1
    75   33   73 1
    76   34   74 1
    77   34   75 1
    78   34   76 1
    79   35   77 1
    80   35   78 1
    81   35   79 1
    82   36   37 2
    83   36   38 1
@<TRIPOS>MOLECULE
ZINC02560262
   38    42     0     0     0
SMALL
USER_CHARGES
3,4-bis(1H-indol-3-yl)pyrrole-2,5-dione
@<TRIPOS>ATOM
      1 C1          2.3783    1.4372   -0.0129 C.ar      1 <0>        -0.1378
      2 C2          2.3986    0.0500   -0.0201 C.ar      1 <0>        -0.0992
      3 C3          1.2234   -0.6696   -0.0130 C.ar      1 <0>        -0.1252
      4 C4          0.0021   -0.0041    0.0020 C.ar      1 <0>         0.0932
      5 C5         -0.0170    1.4005    0.0097 C.ar      1 <0>        -0.0762
      6 C6          1.1790    2.1150    0.0022 C.ar      1 <0>        -0.0746
      7 C7         -1.4387    1.7873    0.0313 C.2       1 <0>        -0.1393
      8 C8         -2.1564    0.6276    0.0268 C.2       1 <0>         0.1036
      9 N1         -1.3078   -0.4365    0.0127 N.pl3     1 <0>        -0.5847
     10 H1         -1.5846   -1.3661    0.0104 H         1 <0>         0.4208
     11 C9         -1.9786    3.1572    0.0460 C.2       1 <0>        -0.0287
     12 C10        -2.5428    3.8215    1.1288 C.2       1 <0>        -0.0283
     13 C11        -2.9252    5.1602    0.6339 C.2       1 <0>         0.5560
     14 O1         -3.4500    6.0359    1.2924 O.2       1 <0>        -0.4468
     15 N2         -2.6005    5.2457   -0.6672 N.am      1 <0>        -0.6911
     16 C12        -2.0361    4.1015   -1.0890 C.2       1 <0>         0.5560
     17 O2         -1.6390    3.8805   -2.2156 O.2       1 <0>        -0.4469
     18 C13        -2.7216    3.2977    2.4934 C.2       1 <0>        -0.1393
     19 C14        -1.7506    3.1292    3.4361 C.2       1 <0>         0.1037
     20 N3         -2.3001    2.6255    4.5750 N.pl3     1 <0>        -0.5848
     21 H2         -1.8075    2.4236    5.3858 H         1 <0>         0.4208
     22 C15        -3.6566    2.4375    4.4094 C.ar      1 <0>         0.0933
     23 C16        -3.9836    2.8469    3.1061 C.ar      1 <0>        -0.0762
     24 C17        -5.3006    2.7671    2.6589 C.ar      1 <0>        -0.0746
     25 C18        -6.2790    2.2863    3.5014 C.ar      1 <0>        -0.1378
     26 C19        -5.9574    1.8812    4.7888 C.ar      1 <0>        -0.0992
     27 C20        -4.6588    1.9542    5.2442 C.ar      1 <0>        -0.1252
     28 H3          3.3071    1.9883   -0.0193 H         1 <0>         0.1249
     29 H4          3.3446   -0.4710   -0.0317 H         1 <0>         0.1271
     30 H5          1.2506   -1.7492   -0.0194 H         1 <0>         0.1217
     31 H6          1.1660    3.1949    0.0080 H         1 <0>         0.1195
     32 H7         -3.2345    0.5634    0.0366 H         1 <0>         0.1766
     33 H8         -2.7524    6.0250   -1.2244 H         1 <0>         0.4287
     34 H9         -0.7049    3.3627    3.3006 H         1 <0>         0.1766
     35 H10        -5.5536    3.0819    1.6573 H         1 <0>         0.1194
     36 H11        -7.3010    2.2242    3.1580 H         1 <0>         0.1249
     37 H12        -6.7323    1.5052    5.4404 H         1 <0>         0.1271
     38 H13        -4.4196    1.6368    6.2484 H         1 <0>         0.1217
@<TRIPOS>BOND
     1    1    6 ar
     2    1    2 ar
     3    1   28 1
     4    2    3 ar
     5    2   29 1
     6    3    4 ar
     7    3   30 1
     8    4    9 1
     9    4    5 ar
    10    5    6 ar
    11    5    7 1
    12    6   31 1
    13    7    8 2
    14    7   11 1
    15    8    9 1
    16    8   32 1
    17    9   10 1
    18   11   16 1
    19   11   12 2
    20   12   13 1
    21   12   18 1
    22   13   14 2
    23   13   15 am
    24   15   16 am
    25   15   33 1
    26   16   17 2
    27   18   23 1
    28   18   19 2
    29   19   20 1
    30   19   34 1
    31   20   21 1
    32   20   22 1
    33   22   27 ar
    34   22   23 ar
    35   23   24 ar
    36   24   25 ar
    37   24   35 1
    38   25   26 ar
    39   25   36 1
    40   26   27 ar
    41   26   37 1
    42   27   38 1
@<TRIPOS>MOLECULE
ZINC12354940
   36    41     0     0     0
SMALL
USER_CHARGES

@<TRIPOS>ATOM
      1 C1         -0.0166    1.3735    0.0096 C.ar      1 <0>        -0.1479
      2 C2          1.1715    2.0889    0.0021 C.ar      1 <0>        -0.0724
      3 C3          2.3842    1.4344   -0.0130 C.ar      1 <0>        -0.1443
      4 C4          2.4249    0.0433   -0.0208 C.ar      1 <0>         0.1440
      5 C5          1.2217   -0.6796   -0.0132 C.ar      1 <0>        -0.1070
      6 C6          0.0021   -0.0041    0.0020 C.ar      1 <0>        -0.0471
      7 C7          1.5900   -2.1053   -0.0244 C.ar      1 <0>        -0.0113
      8 C8          0.8450   -3.2914   -0.0236 C.ar      1 <0>        -0.1089
      9 C9          1.5048   -4.5329   -0.0368 C.ar      1 <0>        -0.1090
     10 C10         2.9047   -4.5788   -0.0507 C.ar      1 <0>        -0.0113
     11 C11         3.8802   -5.6817   -0.0671 C.ar      1 <0>        -0.1071
     12 C12         3.7578   -7.0705   -0.0742 C.ar      1 <0>        -0.0471
     13 C13         4.8890   -7.8567   -0.0904 C.ar      1 <0>        -0.1479
     14 C14         6.1466   -7.2721   -0.0996 C.ar      1 <0>        -0.0724
     15 C15         6.2826   -5.9007   -0.0927 C.ar      1 <0>        -0.1443
     16 C16         5.1525   -5.0888   -0.0765 C.ar      1 <0>         0.1440
     17 N1          4.9928   -3.7159   -0.0666 N.pl3     1 <0>        -0.6062
     18 H1          5.7195   -3.0734   -0.0704 H         1 <0>         0.4202
     19 C17         3.6507   -3.3893   -0.0512 C.ar      1 <0>         0.1470
     20 C18         2.9933   -2.1524   -0.0381 C.ar      1 <0>         0.1470
     21 N2          3.4735   -0.8571   -0.0356 N.pl3     1 <0>        -0.6063
     22 H2          4.4125   -0.6141   -0.0429 H         1 <0>         0.4202
     23 C19         0.4437   -5.5556   -0.0320 C.2       1 <0>         0.5841
     24 O1          0.6177   -6.7581   -0.0399 O.2       1 <0>        -0.4586
     25 N3         -0.7498   -4.9352   -0.0170 N.am      1 <0>        -0.6811
     26 C20        -0.5964   -3.5989   -0.0112 C.2       1 <0>         0.5840
     27 O2         -1.4957   -2.7819    0.0023 O.2       1 <0>        -0.4587
     28 H3         -0.9603    1.8985    0.0259 H         1 <0>         0.1315
     29 H4          1.1462    3.1686    0.0077 H         1 <0>         0.1328
     30 H5          3.3035    2.0013   -0.0190 H         1 <0>         0.1270
     31 H6         -0.9246   -0.5587    0.0082 H         1 <0>         0.1419
     32 H7          2.7797   -7.5284   -0.0668 H         1 <0>         0.1419
     33 H8          4.7961   -8.9327   -0.0956 H         1 <0>         0.1315
     34 H9          7.0273   -7.8971   -0.1119 H         1 <0>         0.1328
     35 H10         7.2667   -5.4559   -0.0996 H         1 <0>         0.1270
     36 H11        -1.6062   -5.3906   -0.0108 H         1 <0>         0.4318
@<TRIPOS>BOND
     1    1    6 ar
     2    1    2 ar
     3    1   28 1
     4    2    3 ar
     5    2   29 1
     6    3    4 ar
     7    3   30 1
     8    4   21 1
     9    4    5 ar
    10    5    6 ar
    11    5    7 1
    12    6   31 1
    13    7   20 ar
    14    7    8 ar
    15    8   26 1
    16    8    9 ar
    17    9   10 ar
    18    9   23 1
    19   10   19 ar
    20   10   11 1
    21   11   16 ar
    22   11   12 ar
    23   12   13 ar
    24   12   32 1
    25   13   14 ar
    26   13   33 1
    27   14   15 ar
    28   14   34 1
    29   15   16 ar
    30   15   35 1
    31   16   17 1
    32   17   18 1
    33   17   19 1
    34   19   20 ar
    35   20   21 1
    36   21   22 1
    37   23   24 2
    38   23   25 am
    39   25   26 am
    40   25   36 1
    41   26   27 2
@<TRIPOS>MOLECULE
ZINC02517049
   45    47     0     0     0
SMALL
USER_CHARGES
hydroxymethyl-isopropyl-methyl-BLAHone
@<TRIPOS>ATOM
      1 C1         -1.0840    0.1136    0.7982 C.3       1 <0>        -0.3027
      2 C2         -1.7402    0.5789    2.0996 C.3       1 <0>        -0.1010
      3 C3         -3.1416   -0.0254    2.2085 C.3       1 <0>        -0.1744
      4 C4         -0.8938    0.1220    3.2894 C.3       1 <0>         0.0624
      5 H1         -1.0222    0.8142    4.1215 H         1 <0>         0.1086
      6 C5         -1.3191   -1.2649    3.7123 C.2       1 <0>         0.5375
      7 O1         -1.5613   -1.4149    4.8912 O.2       1 <0>        -0.5647
      8 N1         -1.4593   -2.3406    2.9419 N.am      1 <0>        -0.6891
      9 C6         -1.0932   -2.2710    1.5349 C.3       1 <0>         0.0045
     10 H2         -1.1922   -1.2431    1.1860 H         1 <0>         0.2066
     11 C7          0.3413   -2.7342    1.3388 C.3       1 <0>        -0.0582
     12 C8          0.9409   -1.8006    0.3227 C.2       1 <0>        -0.1837
     13 C9          1.4594   -2.0701   -0.8734 C.2       1 <0>         0.0695
     14 N2          1.7338   -0.8949   -1.5287 N.pl3     1 <0>        -0.5914
     15 H3          2.1422   -0.8281   -2.4060 H         1 <0>         0.4195
     16 C10         1.3422    0.1751   -0.7541 C.ar      1 <0>         0.0897
     17 C11         0.9284   -0.3443    0.4863 C.ar      1 <0>        -0.0903
     18 C12         0.6409    0.5301    1.5410 C.ar      1 <0>         0.1655
     19 C13         0.5522    1.8874    1.3001 C.ar      1 <0>        -0.2082
     20 C14         0.8885    2.3913    0.0506 C.ar      1 <0>        -0.0839
     21 C15         1.3144    1.5512   -0.9560 C.ar      1 <0>        -0.1356
     22 N3          0.5523    0.0748    2.8911 N.pl3     1 <0>        -0.4847
     23 C16         1.3712    0.9073    3.7823 C.3       1 <0>         0.0192
     24 C17        -2.0235   -3.1744    0.7231 C.3       1 <0>         0.0693
     25 O2         -3.3584   -2.6693    0.7929 O.3       1 <0>        -0.5648
     26 H4         -1.8401   -0.3236    0.1461 H         1 <0>         0.0647
     27 H5         -0.6224    0.9656    0.2991 H         1 <0>         0.0976
     28 H6         -0.3218   -0.6328    1.0222 H         1 <0>         0.2102
     29 H7         -1.8124    1.6666    2.1014 H         1 <0>         0.0828
     30 H8         -3.0801   -1.1080    2.0977 H         1 <0>         0.0994
     31 H9         -3.5669    0.2165    3.1826 H         1 <0>         0.0528
     32 H10        -3.7763    0.3848    1.4230 H         1 <0>         0.0606
     33 H11        -1.8038   -3.1666    3.3158 H         1 <0>         0.4003
     34 H12         0.3611   -3.7586    0.9670 H         1 <0>         0.0763
     35 H13         0.8840   -2.6637    2.2815 H         1 <0>         0.0938
     36 H14         1.6362   -3.0599   -1.2678 H         1 <0>         0.1751
     37 H15         0.2262    2.5558    2.0832 H         1 <0>         0.1278
     38 H16         0.8160    3.4528   -0.1345 H         1 <0>         0.1285
     39 H17         1.6270    1.9627   -1.9043 H         1 <0>         0.1224
     40 H18         1.0687    1.9500    3.6851 H         1 <0>         0.0438
     41 H19         1.2308    0.5828    4.8134 H         1 <0>         0.0813
     42 H20         2.4218    0.8069    3.5097 H         1 <0>         0.0796
     43 H21        -1.6960   -3.1930   -0.3164 H         1 <0>         0.0578
     44 H22        -1.9956   -4.1849    1.1309 H         1 <0>         0.0470
     45 H23        -4.0038   -3.1940    0.2997 H         1 <0>         0.3786
@<TRIPOS>BOND
     1    1    2 1
     2    1   26 1
     3    1   27 1
     4    1   28 1
     5    2    3 1
     6    2    4 1
     7    2   29 1
     8    3   30 1
     9    3   31 1
    10    3   32 1
    11    4    5 1
    12    4   22 1
    13    4    6 1
    14    6    7 2
    15    6    8 am
    16    8    9 1
    17    8   33 1
    18    9   10 1
    19    9   11 1
    20    9   24 1
    21   11   12 1
    22   11   34 1
    23   11   35 1
    24   12   17 1
    25   12   13 2
    26   13   14 1
    27   13   36 1
    28   14   15 1
    29   14   16 1
    30   16   21 ar
    31   16   17 ar
    32   17   18 ar
    33   18   19 ar
    34   18   22 1
    35   19   20 ar
    36   19   37 1
    37   20   21 ar
    38   20   38 1
    39   21   39 1
    40   22   23 1
    41   23   40 1
    42   23   41 1
    43   23   42 1
    44   24   25 1
    45   24   43 1
    46   24   44 1
    47   25   45 1
@<TRIPOS>MOLECULE
ZINC04096162
   76    79     0     0     0
SMALL
USER_CHARGES
[butanoyloxy-dihydroxy-(hydroxymethyl)-tetramethyl-oxo-BLAHyl] butanoate
@<TRIPOS>ATOM
      1 C1         -4.3158   -4.1578    5.3474 C.3       1 <0>        -0.1529
      2 C2         -3.3657   -2.9840    5.5934 C.3       1 <0>        -0.1108
      3 C3         -3.1437   -2.2245    4.2839 C.3       1 <0>        -0.1127
      4 C4         -2.2079   -1.0684    4.5263 C.2       1 <0>         0.4770
      5 O1         -1.7640   -0.8721    5.6328 O.2       1 <0>        -0.5117
      6 O2         -1.8674   -0.2567    3.5128 O.3       1 <0>        -0.3254
      7 C5         -0.9614    0.8370    3.8195 C.3       1 <0>         0.1417
      8 H1         -0.2852    0.4892    4.6158 H         1 <0>         0.0862
      9 C6         -1.7698    2.0121    4.3813 C.3       1 <0>        -0.1169
     10 H2         -2.6720    2.1423    3.7768 H         1 <0>         0.1061
     11 C7         -0.9280    3.2754    4.3387 C.3       1 <0>         0.1895
     12 C8         -0.7874    3.6804    2.8631 C.3       1 <0>        -0.0296
     13 H3         -1.7903    3.7394    2.4520 H         1 <0>         0.1088
     14 C9         -0.1903    5.0408    2.7376 C.2       1 <0>        -0.0972
     15 C10        -0.8307    6.1312    2.9956 C.2       1 <0>        -0.1449
     16 C11        -2.2363    6.2040    3.4704 C.3       1 <0>        -0.1006
     17 C12        -2.6003    5.1937    4.5148 C.3       1 <0>         0.1087
     18 C13        -1.4012    4.4677    5.1058 C.3       1 <0>        -0.0901
     19 H4         -0.5584    5.2014    5.0559 H         1 <0>         0.1183
     20 C14        -1.6847    4.3239    6.5679 C.2       1 <0>        -0.0571
     21 C15        -2.7337    5.0847    6.8934 C.2       1 <0>        -0.2180
     22 C16        -3.2821    5.7889    5.7277 C.2       1 <0>         0.3759
     23 O3         -4.1177    6.6727    5.7346 O.2       1 <0>        -0.4258
     24 C17        -3.2874    5.2023    8.2914 C.3       1 <0>        -0.1021
     25 O4         -3.4960    4.2472    3.9300 O.3       1 <0>        -0.5348
     26 C18        -0.0977    7.4310    2.7979 C.3       1 <0>         0.1108
     27 O5          1.2301    7.1645    2.3420 O.3       1 <0>        -0.5682
     28 C19         0.0052    2.6152    2.1277 C.3       1 <0>        -0.0784
     29 H5          0.9992    2.9261    1.7890 H         1 <0>         0.1223
     30 C20        -0.1276    1.1678    2.6046 C.3       1 <0>         0.0689
     31 C21        -0.7331    1.5822    1.2744 C.3       1 <0>        -0.1040
     32 C22        -0.0127    1.0858    0.0080 C.3       1 <0>        -0.1124
     33 C23        -2.2525    1.6447    1.1457 C.3       1 <0>        -0.1244
     34 O6          1.0975    0.3827    2.5011 O.3       1 <0>        -0.3217
     35 C24         1.0296   -0.9047    2.8751 C.2       1 <0>         0.4546
     36 O7         -0.0141   -1.3633    3.2754 O.2       1 <0>        -0.4924
     37 C25         2.2552   -1.7780    2.7958 C.3       1 <0>        -0.1142
     38 C26         1.9085   -3.1884    3.2769 C.3       1 <0>        -0.1112
     39 C27         3.1528   -4.0750    3.1964 C.3       1 <0>        -0.1531
     40 O8          0.3907    2.9492    4.8055 O.3       1 <0>        -0.5495
     41 C28        -2.1926    1.6409    5.8057 C.3       1 <0>        -0.1519
     42 H6         -3.8800   -4.8290    4.6074 H         1 <0>         0.0561
     43 H7         -4.4740   -4.6989    6.2802 H         1 <0>         0.0596
     44 H8         -5.2703   -3.7816    4.9792 H         1 <0>         0.0556
     45 H9         -2.4112   -3.3602    5.9616 H         1 <0>         0.0703
     46 H10        -3.8015   -2.3128    6.3334 H         1 <0>         0.0685
     47 H11        -4.0982   -1.8483    3.9158 H         1 <0>         0.0972
     48 H12        -2.7079   -2.8958    3.5439 H         1 <0>         0.1026
     49 H13         0.8345    5.1180    2.4135 H         1 <0>         0.1308
     50 H14        -2.8944    6.0607    2.6160 H         1 <0>         0.0970
     51 H15        -2.4080    7.1961    3.8817 H         1 <0>         0.0836
     52 H16        -1.1259    3.7178    7.2691 H         1 <0>         0.1529
     53 H17        -4.1409    5.8803    8.2884 H         1 <0>         0.0698
     54 H18        -3.6052    4.2197    8.6402 H         1 <0>         0.0731
     55 H19        -2.5163    5.5919    8.9560 H         1 <0>         0.0722
     56 H20        -4.2839    4.6439    3.5339 H         1 <0>         0.3848
     57 H21        -0.6219    8.0348    2.0571 H         1 <0>         0.0581
     58 H22        -0.0555    7.9718    3.7434 H         1 <0>         0.0547
     59 H23         1.7617    7.9585    2.1931 H         1 <0>         0.3840
     60 H24         0.0021   -0.0041    0.0020 H         1 <0>         0.0581
     61 H25         1.0099    1.4631    0.0003 H         1 <0>         0.0626
     62 H26        -0.5399    1.4469   -0.8751 H         1 <0>         0.0651
     63 H27        -2.6775    0.6686    1.3797 H         1 <0>         0.0738
     64 H28        -2.6457    2.3880    1.8393 H         1 <0>         0.0667
     65 H29        -2.5197    1.9222    0.1260 H         1 <0>         0.0644
     66 H30         2.6042   -1.8216    1.7641 H         1 <0>         0.1032
     67 H31         3.0398   -1.3613    3.4275 H         1 <0>         0.1030
     68 H32         1.5595   -3.1448    4.3086 H         1 <0>         0.0701
     69 H33         1.1239   -3.6051    2.6453 H         1 <0>         0.0706
     70 H34         3.5018   -4.1186    2.1647 H         1 <0>         0.0567
     71 H35         3.9373   -3.6583    3.8281 H         1 <0>         0.0566
     72 H36         2.9058   -5.0798    3.5392 H         1 <0>         0.0608
     73 H37         0.4236    2.6771    5.7328 H         1 <0>         0.3711
     74 H38        -2.7814    2.4526    6.2331 H         1 <0>         0.0614
     75 H39        -2.7922    0.7310    5.7813 H         1 <0>         0.0735
     76 H40        -1.3053    1.4751    6.4166 H         1 <0>         0.0548
@<TRIPOS>BOND
     1    1    2 1
     2    1   42 1
     3    1   43 1
     4    1   44 1
     5    2    3 1
     6    2   45 1
     7    2   46 1
     8    3    4 1
     9    3   47 1
    10    3   48 1
    11    4    5 2
    12    4    6 1
    13    6    7 1
    14    7    8 1
    15    7   30 1
    16    7    9 1
    17    9   10 1
    18    9   11 1
    19    9   41 1
    20   11   18 1
    21   11   12 1
    22   11   40 1
    23   12   13 1
    24   12   14 1
    25   12   28 1
    26   14   15 2
    27   14   49 1
    28   15   16 1
    29   15   26 1
    30   16   17 1
    31   16   50 1
    32   16   51 1
    33   17   22 1
    34   17   18 1
    35   17   25 1
    36   18   19 1
    37   18   20 1
    38   20   21 2
    39   20   52 1
    40   21   22 1
    41   21   24 1
    42   22   23 2
    43   24   53 1
    44   24   54 1
    45   24   55 1
    46   25   56 1
    47   26   27 1
    48   26   57 1
    49   26   58 1
    50   27   59 1
    51   28   29 1
    52   28   31 1
    53   28   30 1
    54   30   31 1
    55   30   34 1
    56   31   32 1
    57   31   33 1
    58   32   60 1
    59   32   61 1
    60   32   62 1
    61   33   63 1
    62   33   64 1
    63   33   65 1
    64   34   35 1
    65   35   36 2
    66   35   37 1
    67   37   38 1
    68   37   66 1
    69   37   67 1
    70   38   39 1
    71   38   68 1
    72   38   69 1
    73   39   70 1
    74   39   71 1
    75   39   72 1
    76   40   73 1
    77   41   74 1
    78   41   75 1
    79   41   76 1
@<TRIPOS>MOLECULE
ZINC03776578
   56    63     0     0     0
SMALL
USER_CHARGES
methyl hydroxy-methyl-oxo-BLAHcarboxylate
@<TRIPOS>ATOM
      1 C1          4.6411   -0.1552   -1.5714 C.3       1 <0>        -0.1724
      2 C2          4.4710    1.3091   -1.1615 C.3       1 <0>         0.3586
      3 C3          5.8472    1.9657   -0.9322 C.3       1 <0>         0.1093
      4 C4          5.6918    2.7845    0.3660 C.3       1 <0>        -0.1926
      5 C5          4.2338    2.5571    0.8137 C.3       1 <0>         0.3158
      6 H1          4.1890    2.3795    1.8883 H         1 <0>         0.1542
      7 O1          3.7815    1.4144    0.0850 O.3       1 <0>        -0.3341
      8 N1          3.4363    3.7347    0.4570 N.pl3     1 <0>        -0.5142
      9 C6          3.0900    4.7819    1.2719 C.ar      1 <0>         0.1513
     10 C7          3.4566    5.0737    2.5852 C.ar      1 <0>        -0.1538
     11 C8          2.9047    6.2060    3.1589 C.ar      1 <0>        -0.0734
     12 C9          2.0254    7.0269    2.4737 C.ar      1 <0>        -0.1590
     13 C10         1.6490    6.7645    1.1680 C.ar      1 <0>        -0.0355
     14 C11         2.1977    5.6288    0.5690 C.ar      1 <0>        -0.1059
     15 C12         2.0390    5.0598   -0.7658 C.ar      1 <0>         0.0013
     16 C13         2.8485    3.9253   -0.7871 C.ar      1 <0>         0.1057
     17 C14         2.9848    3.1753   -1.9604 C.ar      1 <0>         0.1613
     18 N2          3.7535    2.0503   -2.2040 N.pl3     1 <0>        -0.4850
     19 C15         3.6695    1.7360   -3.5382 C.ar      1 <0>         0.1607
     20 C16         4.2932    0.7313   -4.2764 C.ar      1 <0>        -0.1427
     21 C17         3.9828    0.6508   -5.6236 C.ar      1 <0>        -0.0834
     22 C18         3.0908    1.5188   -6.2276 C.ar      1 <0>        -0.1490
     23 C19         2.4592    2.5264   -5.5176 C.ar      1 <0>        -0.0558
     24 C20         2.7650    2.6286   -4.1610 C.ar      1 <0>        -0.0939
     25 C21         2.3180    3.5661   -3.1293 C.ar      1 <0>        -0.0589
     26 C22         1.4700    4.6682   -3.0944 C.ar      1 <0>        -0.0412
     27 C23         1.3181    5.4163   -1.9294 C.ar      1 <0>        -0.1369
     28 C24         0.3653    6.5044   -2.1982 C.2       1 <0>         0.5681
     29 O2          0.0084    7.3316   -1.3812 O.2       1 <0>        -0.5250
     30 N3         -0.0544    6.4563   -3.4736 N.am      1 <0>        -0.7236
     31 C25         0.5947    5.3204   -4.1370 C.3       1 <0>         0.1440
     32 C26         6.9085    0.9097   -0.7607 C.2       1 <0>         0.4485
     33 O3          7.1677    0.4870    0.3412 O.2       1 <0>        -0.4814
     34 O4          7.5660    0.4387   -1.8319 O.3       1 <0>        -0.3416
     35 C27         8.5751   -0.5773   -1.5919 C.3       1 <0>         0.0291
     36 O5          6.1766    2.8260   -2.0247 O.3       1 <0>        -0.5068
     37 H2          5.4271   -0.2333   -2.3224 H         1 <0>         0.1044
     38 H3          4.9129   -0.7478   -0.6979 H         1 <0>         0.0943
     39 H4          3.7042   -0.5276   -1.9859 H         1 <0>         0.0974
     40 H5          5.8665    3.8423    0.1694 H         1 <0>         0.1167
     41 H6          6.3822    2.4214    1.1273 H         1 <0>         0.1245
     42 H7          4.1421    4.4429    3.1316 H         1 <0>         0.1297
     43 H8          3.1693    6.4579    4.1753 H         1 <0>         0.1262
     44 H9          1.6218    7.8959    2.9719 H         1 <0>         0.1254
     45 H10         0.9627    7.4078    0.6374 H         1 <0>         0.1521
     46 H11         4.9893    0.0450   -3.8172 H         1 <0>         0.1354
     47 H12         4.4524   -0.1154   -6.2226 H         1 <0>         0.1258
     48 H13         2.8815    1.4079   -7.2813 H         1 <0>         0.1249
     49 H14         1.7657    3.2040   -5.9934 H         1 <0>         0.1353
     50 H15        -0.6822    7.0698   -3.8866 H         1 <0>         0.4268
     51 H16         1.2029    5.6709   -4.9708 H         1 <0>         0.1005
     52 H17        -0.1554    4.6137   -4.4918 H         1 <0>         0.1004
     53 H18         8.1114   -1.4473   -1.1270 H         1 <0>         0.0685
     54 H19         9.0287   -0.8699   -2.5389 H         1 <0>         0.1101
     55 H20         9.3429   -0.1775   -0.9295 H         1 <0>         0.0678
     56 H21         7.0129    3.2989   -1.9146 H         1 <0>         0.3918
@<TRIPOS>BOND
     1    1    2 1
     2    1   37 1
     3    1   38 1
     4    1   39 1
     5    2    7 1
     6    2   18 1
     7    2    3 1
     8    3    4 1
     9    3   32 1
    10    3   36 1
    11    4    5 1
    12    4   40 1
    13    4   41 1
    14    5    6 1
    15    5    7 1
    16    5    8 1
    17    8   16 1
    18    8    9 1
    19    9   14 ar
    20    9   10 ar
    21   10   11 ar
    22   10   42 1
    23   11   12 ar
    24   11   43 1
    25   12   13 ar
    26   12   44 1
    27   13   14 ar
    28   13   45 1
    29   14   15 1
    30   15   27 ar
    31   15   16 ar
    32   16   17 ar
    33   17   25 ar
    34   17   18 1
    35   18   19 1
    36   19   24 ar
    37   19   20 ar
    38   20   21 ar
    39   20   46 1
    40   21   22 ar
    41   21   47 1
    42   22   23 ar
    43   22   48 1
    44   23   24 ar
    45   23   49 1
    46   24   25 1
    47   25   26 ar
    48   26   31 1
    49   26   27 ar
    50   27   28 1
    51   28   29 2
    52   28   30 am
    53   30   31 1
    54   30   50 1
    55   31   51 1
    56   31   52 1
    57   32   33 2
    58   32   34 1
    59   34   35 1
    60   35   53 1
    61   35   54 1
    62   35   55 1
    63   36   56 1
@<TRIPOS>MOLECULE
ZINC03872984
   56    63     0     0     0
SMALL
USER_CHARGES

@<TRIPOS>ATOM
      1 C1         -1.1449    0.9207   -2.2992 C.3       1 <0>        -0.1734
      2 C2         -0.8443   -0.1869   -1.2874 C.3       1 <0>         0.3608
      3 C3          0.6608   -0.5271   -1.2917 C.3       1 <0>         0.1089
      4 C4          1.0548   -0.6349    0.1959 C.3       1 <0>        -0.1931
      5 C5         -0.2437   -0.3496    0.9788 C.3       1 <0>         0.3159
      6 H1         -0.0464    0.3283    1.8093 H         1 <0>         0.1526
      7 O1         -1.1290    0.2586    0.0385 O.3       1 <0>        -0.3365
      8 N1         -0.7907   -1.6169    1.4725 N.pl3     1 <0>        -0.5139
      9 C6         -0.6316   -2.1589    2.7227 C.ar      1 <0>         0.1521
     10 C7          0.1280   -1.7303    3.8106 C.ar      1 <0>        -0.1535
     11 C8          0.0716   -2.4964    4.9622 C.ar      1 <0>        -0.0728
     12 C9         -0.6995   -3.6426    5.0489 C.ar      1 <0>        -0.1588
     13 C10        -1.4586   -4.0939    3.9832 C.ar      1 <0>        -0.0351
     14 C11        -1.4138   -3.3367    2.8110 C.ar      1 <0>        -0.1065
     15 C12        -2.0522   -3.5178    1.5109 C.ar      1 <0>         0.0000
     16 C13        -1.6151   -2.4505    0.7283 C.ar      1 <0>         0.1116
     17 C14        -1.9686   -2.3749   -0.6239 C.ar      1 <0>         0.1598
     18 N2         -1.6213   -1.3899   -1.6007 N.pl3     1 <0>        -0.5050
     19 C15        -2.1482   -1.7391   -2.8210 C.ar      1 <0>         0.1774
     20 C16        -2.0102   -1.1429   -4.0736 C.ar      1 <0>        -0.1496
     21 C17        -2.6914   -1.7253   -5.1291 C.ar      1 <0>        -0.0801
     22 C18        -3.4791   -2.8511   -4.9669 C.ar      1 <0>        -0.1542
     23 C19        -3.6271   -3.4663   -3.7348 C.ar      1 <0>        -0.0533
     24 C20        -2.9440   -2.8977   -2.6603 C.ar      1 <0>        -0.0998
     25 C21        -2.7951   -3.3523   -1.1935 C.ar      1 <0>        -0.0500
     26 C22        -3.2927   -4.3756   -0.3931 C.ar      1 <0>        -0.0443
     27 C23        -2.9346   -4.4703    0.9497 C.ar      1 <0>        -0.1321
     28 C24        -3.6117   -5.6413    1.5281 C.2       1 <0>         0.5681
     29 O2         -3.5170   -5.9945    2.6881 O.2       1 <0>        -0.5237
     30 N3         -4.3501   -6.2651    0.5950 N.am      1 <0>        -0.7231
     31 C25        -4.2144   -5.5378   -0.6718 C.3       1 <0>         0.1445
     32 C26         1.4435    0.5727   -1.9615 C.2       1 <0>         0.4474
     33 O3          1.9444    1.4488   -1.2970 O.2       1 <0>        -0.4796
     34 O4          1.5843    0.5792   -3.2964 O.3       1 <0>        -0.3367
     35 C27         2.3389    1.6518   -3.8640 C.3       1 <0>         0.0263
     36 O5          0.8858   -1.7724   -1.9557 O.3       1 <0>        -0.5063
     37 H2         -0.8247    1.8803   -1.8932 H         1 <0>         0.0927
     38 H3         -0.6079    0.7211   -3.2265 H         1 <0>         0.1054
     39 H4         -2.2161    0.9498   -2.4986 H         1 <0>         0.0969
     40 H5          1.4184   -1.6379    0.4192 H         1 <0>         0.1158
     41 H6          1.8148    0.1070    0.4406 H         1 <0>         0.1253
     42 H7          0.7351   -0.8387    3.7568 H         1 <0>         0.1302
     43 H8          0.6489   -2.1895    5.8218 H         1 <0>         0.1266
     44 H9         -0.7088   -4.2005    5.9737 H         1 <0>         0.1257
     45 H10        -2.0581   -4.9894    4.0552 H         1 <0>         0.1522
     46 H11        -1.3985   -0.2640   -4.2147 H         1 <0>         0.1366
     47 H12        -2.6051   -1.2859   -6.1119 H         1 <0>         0.1259
     48 H13        -3.9928   -3.2611   -5.8239 H         1 <0>         0.1251
     49 H14        -4.2422   -4.3455   -3.6122 H         1 <0>         0.1356
     50 H15        -4.8835   -7.0630    0.7354 H         1 <0>         0.4273
     51 H16        -5.1877   -5.1737   -1.0009 H         1 <0>         0.1006
     52 H17        -3.7798   -6.1869   -1.4321 H         1 <0>         0.1012
     53 H18         2.3752    1.5370   -4.9473 H         1 <0>         0.1105
     54 H19         1.8648    2.6011   -3.6149 H         1 <0>         0.0661
     55 H20         3.3522    1.6353   -3.4627 H         1 <0>         0.0654
     56 H21         1.8150   -2.0380   -1.9892 H         1 <0>         0.3910
@<TRIPOS>BOND
     1    1    2 1
     2    1   37 1
     3    1   38 1
     4    1   39 1
     5    2    7 1
     6    2   18 1
     7    2    3 1
     8    3    4 1
     9    3   32 1
    10    3   36 1
    11    4    5 1
    12    4   40 1
    13    4   41 1
    14    5    6 1
    15    5    7 1
    16    5    8 1
    17    8   16 1
    18    8    9 1
    19    9   14 ar
    20    9   10 ar
    21   10   11 ar
    22   10   42 1
    23   11   12 ar
    24   11   43 1
    25   12   13 ar
    26   12   44 1
    27   13   14 ar
    28   13   45 1
    29   14   15 1
    30   15   27 ar
    31   15   16 ar
    32   16   17 ar
    33   17   25 ar
    34   17   18 1
    35   18   19 1
    36   19   24 ar
    37   19   20 ar
    38   20   21 ar
    39   20   46 1
    40   21   22 ar
    41   21   47 1
    42   22   23 ar
    43   22   48 1
    44   23   24 ar
    45   23   49 1
    46   24   25 1
    47   25   26 ar
    48   26   31 1
    49   26   27 ar
    50   27   28 1
    51   28   29 2
    52   28   30 am
    53   30   31 1
    54   30   50 1
    55   31   51 1
    56   31   52 1
    57   32   33 2
    58   32   34 1
    59   34   35 1
    60   35   53 1
    61   35   54 1
    62   35   55 1
    63   36   56 1
@<TRIPOS>MOLECULE
ZINC01494900
   69    75     0     0     0
SMALL
USER_CHARGES
3-(1-methylindol-3-yl)-4-[1-[1-(2-pyridylmethyl)-4-piperidyl]indol-3-yl]-pyrrole-2,5-dione
@<TRIPOS>ATOM
      1 C1          3.1861    6.2356   -1.5397 C.3       1 <0>         0.0734
      2 N1          2.6240    5.2024   -0.6664 N.pl3     1 <0>        -0.4763
      3 C2          2.3262    3.9326   -1.0557 C.2       1 <0>         0.1066
      4 C3          1.8214    3.2346    0.0016 C.2       1 <0>        -0.1460
      5 C4          1.8014    4.1628    1.1458 C.ar      1 <0>        -0.0749
      6 C5          2.3214    5.3774    0.6681 C.ar      1 <0>         0.0944
      7 C6          2.4318    6.4599    1.5343 C.ar      1 <0>        -0.1231
      8 C7          2.0384    6.3316    2.8490 C.ar      1 <0>        -0.0993
      9 C8          1.5310    5.1299    3.3210 C.ar      1 <0>        -0.1377
     10 C9          1.4133    4.0459    2.4785 C.ar      1 <0>        -0.0770
     11 C10         1.3774    1.8305   -0.0013 C.2       1 <0>        -0.0122
     12 C11         2.1845    0.6989   -0.0150 C.2       1 <0>        -0.0486
     13 C12         1.2664   -0.4588   -0.0125 C.2       1 <0>         0.5575
     14 O1          1.5993   -1.6272   -0.0219 O.2       1 <0>        -0.4481
     15 N2          0.0021   -0.0041    0.0020 N.am      1 <0>        -0.6899
     16 C13        -0.0161    1.3395    0.0094 C.2       1 <0>         0.5514
     17 O2         -1.0124    2.0347    0.0181 O.2       1 <0>        -0.4386
     18 C14         3.6565    0.6615   -0.0300 C.2       1 <0>        -0.1044
     19 C15         4.4896    0.9175    1.0189 C.2       1 <0>         0.0813
     20 N3          5.7839    0.7834    0.6195 N.pl3     1 <0>        -0.4773
     21 C16         5.8397    0.4327   -0.7135 C.ar      1 <0>         0.0995
     22 C17         4.5181    0.3339   -1.1797 C.ar      1 <0>        -0.0763
     23 C18         4.2699   -0.0030   -2.5083 C.ar      1 <0>        -0.0676
     24 C19         5.3261   -0.2494   -3.3583 C.ar      1 <0>        -0.1328
     25 C20         6.6314   -0.1579   -2.8978 C.ar      1 <0>        -0.0892
     26 C21         6.8918    0.1798   -1.5872 C.ar      1 <0>        -0.1316
     27 C22         6.9511    0.9825    1.4822 C.3       1 <0>         0.1368
     28 C23         6.8909    0.0040    2.6584 C.3       1 <0>        -0.1605
     29 C24         8.0798    0.2577    3.5881 C.3       1 <0>        -0.0021
     30 C25         8.1380    2.5998    2.9687 C.3       1 <0>         0.0042
     31 C26         6.9509    2.4160    2.0205 C.3       1 <0>        -0.1610
     32 C27         9.0806    1.8809    5.0795 C.3       1 <0>         0.0614
     33 C28         8.7995    1.0523    6.3064 C.ar      1 <0>         0.0502
     34 C29         9.4029   -0.1831    6.4495 C.ar      1 <0>        -0.1466
     35 C30         9.1380   -0.9372    7.5821 C.ar      1 <0>        -0.0672
     36 C31         8.2721   -0.4183    8.5328 C.ar      1 <0>        -0.1343
     37 C32         7.7061    0.8244    8.3212 C.ar      1 <0>         0.1118
     38 N4          7.9850    1.5164    7.2336 N.ar      1 <0>        -0.4666
     39 H1          2.3765    6.7929   -2.0110 H         1 <0>         0.0768
     40 H2          3.7999    6.9159   -0.9494 H         1 <0>         0.0840
     41 H3          3.8002    5.7667   -2.3087 H         1 <0>         0.0868
     42 H4          2.4678    3.5378   -2.0509 H         1 <0>         0.1742
     43 H5          2.8251    7.4001    1.1771 H         1 <0>         0.1209
     44 H6          2.1256    7.1749    3.5180 H         1 <0>         0.1275
     45 H7          1.2266    5.0436    4.3536 H         1 <0>         0.1248
     46 H8          1.0176    3.1115    2.8484 H         1 <0>         0.1183
     47 H9         -0.7876   -0.5673    0.0062 H         1 <0>         0.4314
     48 H10         4.1708    1.1856    2.0153 H         1 <0>         0.1699
     49 H11         3.2546   -0.0756   -2.8691 H         1 <0>         0.1234
     50 H12         5.1368   -0.5153   -4.3877 H         1 <0>         0.1294
     51 H13         7.4516   -0.3534   -3.5728 H         1 <0>         0.1302
     52 H14         7.9119    0.2482   -1.2391 H         1 <0>         0.1177
     53 H15         7.8617    0.8088    0.9089 H         1 <0>         0.1153
     54 H16         5.9612    0.1521    3.2078 H         1 <0>         0.0957
     55 H17         6.9338   -1.0186    2.2836 H         1 <0>         0.1224
     56 H18         9.0090    0.0960    3.0418 H         1 <0>         0.1377
     57 H19         8.0320   -0.4279    4.4341 H         1 <0>         0.1320
     58 H20         9.0670    2.4271    2.4253 H         1 <0>         0.1369
     59 H21         8.1324    3.6152    3.3650 H         1 <0>         0.1389
     60 H22         7.0367    3.1166    1.1900 H         1 <0>         0.1216
     61 H23         6.0218    2.6022    2.5593 H         1 <0>         0.0976
     62 H24        10.0499    1.6015    4.6666 H         1 <0>         0.1459
     63 H25         9.0911    2.9370    5.3489 H         1 <0>         0.1462
     64 H26        10.0726   -0.5559    5.6886 H         1 <0>         0.1443
     65 H27         9.5948   -1.9060    7.7206 H         1 <0>         0.1501
     66 H28         8.0432   -0.9782    9.4276 H         1 <0>         0.1516
     67 H29         7.0307    1.2356    9.0569 H         1 <0>         0.1723
     68 N5          8.0079    1.6460    4.0909 N.4       1 <0>        -0.3947
     69 H30         7.0984    1.7888    4.5456 H         1 <0>         0.4319
@<TRIPOS>BOND
     1    1    2 1
     2    1   39 1
     3    1   40 1
     4    1   41 1
     5    2    6 1
     6    2    3 1
     7    3    4 2
     8    3   42 1
     9    4    5 1
    10    4   11 1
    11    5   10 ar
    12    5    6 ar
    13    6    7 ar
    14    7    8 ar
    15    7   43 1
    16    8    9 ar
    17    8   44 1
    18    9   10 ar
    19    9   45 1
    20   10   46 1
    21   11   16 1
    22   11   12 2
    23   12   13 1
    24   12   18 1
    25   13   14 2
    26   13   15 am
    27   15   16 am
    28   15   47 1
    29   16   17 2
    30   18   22 1
    31   18   19 2
    32   19   20 1
    33   19   48 1
    34   20   21 1
    35   20   27 1
    36   21   26 ar
    37   21   22 ar
    38   22   23 ar
    39   23   24 ar
    40   23   49 1
    41   24   25 ar
    42   24   50 1
    43   25   26 ar
    44   25   51 1
    45   26   52 1
    46   27   31 1
    47   27   28 1
    48   27   53 1
    49   28   29 1
    50   28   54 1
    51   28   55 1
    52   29   56 1
    53   29   57 1
    54   29   68 1
    55   30   31 1
    56   30   58 1
    57   30   59 1
    58   30   68 1
    59   31   60 1
    60   31   61 1
    61   32   33 1
    62   32   62 1
    63   32   63 1
    64   32   68 1
    65   33   38 ar
    66   33   34 ar
    67   34   35 ar
    68   34   64 1
    69   35   36 ar
    70   35   65 1
    71   36   37 ar
    72   36   66 1
    73   37   38 ar
    74   37   67 1
    75   68   69 1
@<TRIPOS>MOLECULE
ZINC03871640
   66    69     0     0     0
SMALL
USER_CHARGES

@<TRIPOS>ATOM
      1 C1          0.0959    1.4674   -0.2512 C.ar      1 <0>        -0.1091
      2 C2          0.8146    0.9699   -1.3249 C.ar      1 <0>        -0.0948
      3 C3          1.9911    0.2592   -1.1091 C.ar      1 <0>        -0.1068
      4 C4          2.4469    0.0488    0.2089 C.ar      1 <0>        -0.1190
      5 C5          1.7091    0.5580    1.2818 C.ar      1 <0>         0.1242
      6 C6          0.5363    1.2651    1.0413 C.ar      1 <0>        -0.1480
      7 O1          2.1361    0.3623    2.5542 O.3       1 <0>        -0.4980
      8 C7          3.6928   -0.7035    0.4536 C.2       1 <0>         0.4852
      9 O2          4.7460   -0.1095    0.5851 O.2       1 <0>        -0.4322
     10 C8          3.6608   -2.1743    0.5387 C.ar      1 <0>        -0.1265
     11 C9          2.4342   -2.8546    0.5024 C.ar      1 <0>         0.1691
     12 C10         2.4088   -4.2360    0.5827 C.ar      1 <0>        -0.1057
     13 C11         3.6003   -4.9519    0.7000 C.ar      1 <0>        -0.0938
     14 C12         4.8221   -4.2796    0.7369 C.ar      1 <0>        -0.1165
     15 C13         4.8572   -2.8988    0.6505 C.ar      1 <0>         0.1730
     16 O3          6.0463   -2.2463    0.6804 O.3       1 <0>        -0.4652
     17 C14         3.5681   -6.4288    0.7860 C.2       1 <0>         0.5222
     18 O4          2.5055   -7.0158    0.7544 O.2       1 <0>        -0.4916
     19 O5          4.7174   -7.1220    0.8992 O.3       1 <0>        -0.3307
     20 C15         4.6117   -8.5449    0.9774 C.3       1 <0>         0.0657
     21 H1          3.7299   -8.8691    0.4248 H         1 <0>         0.1055
     22 C16         4.4640   -8.9632    2.4617 C.3       1 <0>        -0.1470
     23 C17         3.9653  -10.3824    2.5193 C.3       1 <0>        -0.1434
     24 C18         5.0937  -11.4275    2.5830 C.3       1 <0>        -0.0094
     25 N1          6.2180  -11.1401    1.6666 N.4       1 <0>        -0.4994
     26 C19         5.7588  -10.6833    0.3774 C.3       1 <0>        -0.0231
     27 C20         5.7981   -9.1464    0.3812 C.3       1 <0>         0.1310
     28 H2          6.6752   -8.8189    0.9394 H         1 <0>         0.1179
     29 N2          5.9207   -8.6760   -1.0008 N.am      1 <0>        -0.7209
     30 C21         7.1275   -8.6538   -1.6005 C.2       1 <0>         0.5793
     31 O6          8.1144   -9.0242   -0.9946 O.2       1 <0>        -0.5352
     32 C22         7.2511   -8.1798   -2.9929 C.ar      1 <0>        -0.1671
     33 C23         6.1190   -7.7483   -3.6891 C.ar      1 <0>        -0.0608
     34 C24         6.2385   -7.3064   -4.9878 C.ar      1 <0>        -0.1505
     35 C25         7.4831   -7.2896   -5.6064 C.ar      1 <0>         0.1533
     36 C26         8.6116   -7.7181   -4.9173 C.ar      1 <0>        -0.1554
     37 C27         8.5013   -8.1560   -3.6164 C.ar      1 <0>        -0.0342
     38 O7          7.5966   -6.8543   -6.8868 O.3       1 <0>        -0.4978
     39 O8          1.2748   -2.1593    0.3893 O.3       1 <0>        -0.4747
     40 C28         2.7579   -0.2720   -2.2534 C.2       1 <0>         0.5130
     41 O9          2.3100   -0.1755   -3.3872 O.co2     1 <0>        -0.6731
     42 O10         3.8408   -0.8086   -2.0675 O.co2     1 <0>        -0.6648
     43 H3         -0.8141    2.0219   -0.4264 H         1 <0>         0.1239
     44 H4          0.4610    1.1335   -2.3322 H         1 <0>         0.1348
     45 H5         -0.0334    1.6583    1.8704 H         1 <0>         0.1251
     46 H6          2.6589    1.0936    2.9105 H         1 <0>         0.3854
     47 H7          1.4651   -4.7604    0.5548 H         1 <0>         0.1491
     48 H8          5.7421   -4.8377    0.8285 H         1 <0>         0.1454
     49 H9          6.3403   -2.0050    1.5695 H         1 <0>         0.3934
     50 H10         5.4320   -8.8958    2.9582 H         1 <0>         0.0842
     51 H11         3.7505   -8.3050    2.9574 H         1 <0>         0.1075
     52 H12         3.3348  -10.4953    3.4013 H         1 <0>         0.1186
     53 H13         3.3599  -10.5759    1.6338 H         1 <0>         0.0921
     54 H14         5.4761  -11.4662    3.6030 H         1 <0>         0.1350
     55 H15         4.6795  -12.4038    2.3315 H         1 <0>         0.1342
     56 H16         6.8030  -10.4283    2.0779 H         1 <0>         0.4287
     57 H17         6.4137  -11.0674   -0.4047 H         1 <0>         0.1476
     58 H18         4.7384  -11.0263    0.2064 H         1 <0>         0.1422
     59 H19         5.1334   -8.3805   -1.4842 H         1 <0>         0.4133
     60 H20         5.1515   -7.7616   -3.2093 H         1 <0>         0.1278
     61 H21         5.3639   -6.9727   -5.5265 H         1 <0>         0.1421
     62 H22         9.5769   -7.7036   -5.4015 H         1 <0>         0.1409
     63 H23         9.3793   -8.4849   -3.0803 H         1 <0>         0.1415
     64 H24         7.7635   -5.9051   -6.9661 H         1 <0>         0.4053
     65 H25         0.9516   -2.0784   -0.5186 H         1 <0>         0.4012
     66 H26         6.7632  -11.9799    1.5424 H         1 <0>         0.4364
@<TRIPOS>BOND
     1    1    6 ar
     2    1    2 ar
     3    1   43 1
     4    2    3 ar
     5    2   44 1
     6    3    4 ar
     7    3   40 1
     8    4    5 ar
     9    4    8 1
    10    5    6 ar
    11    5    7 1
    12    6   45 1
    13    7   46 1
    14    8    9 2
    15    8   10 1
    16   10   15 ar
    17   10   11 ar
    18   11   12 ar
    19   11   39 1
    20   12   13 ar
    21   12   47 1
    22   13   14 ar
    23   13   17 1
    24   14   15 ar
    25   14   48 1
    26   15   16 1
    27   16   49 1
    28   17   18 2
    29   17   19 1
    30   19   20 1
    31   20   21 1
    32   20   27 1
    33   20   22 1
    34   22   23 1
    35   22   50 1
    36   22   51 1
    37   23   24 1
    38   23   52 1
    39   23   53 1
    40   24   25 1
    41   24   54 1
    42   24   55 1
    43   25   26 1
    44   25   56 1
    45   25   66 1
    46   26   27 1
    47   26   57 1
    48   26   58 1
    49   27   28 1
    50   27   29 1
    51   29   30 am
    52   29   59 1
    53   30   31 2
    54   30   32 1
    55   32   37 ar
    56   32   33 ar
    57   33   34 ar
    58   33   60 1
    59   34   35 ar
    60   34   61 1
    61   35   36 ar
    62   35   38 1
    63   36   37 ar
    64   36   62 1
    65   37   63 1
    66   38   64 1
    67   39   65 1
    68   40   41 2
    69   40   42 1
@<TRIPOS>MOLECULE
ZINC26731846
   38    42     0     0     0
SMALL
USER_CHARGES
3,4-di(indol-1-yl)pyrrole-2,5-dione
@<TRIPOS>ATOM
      1 C1          1.2028   -0.6678   -0.0130 C.ar      1 <0>        -0.1380
      2 C2          2.3970    0.0391   -0.0211 C.ar      1 <0>        -0.0906
      3 C3          2.3979    1.4174   -0.0137 C.ar      1 <0>        -0.1269
      4 C4          1.1927    2.1101    0.0020 C.ar      1 <0>         0.1036
      5 C5         -0.0169    1.3914    0.0097 C.ar      1 <0>        -0.0971
      6 C6          0.0021   -0.0041    0.0020 C.ar      1 <0>        -0.0667
      7 C7         -1.0852    2.3950    0.0194 C.2       1 <0>        -0.1735
      8 C8         -0.4931    3.5998    0.0254 C.2       1 <0>         0.0565
      9 N1          0.8687    3.4509    0.0119 N.pl3     1 <0>        -0.4291
     10 C9          1.7886    4.4970    0.0093 C.2       1 <0>         0.1072
     11 C10         2.1196    5.2931    1.0633 C.2       1 <0>         0.1063
     12 C11         3.1333    6.2468    0.5675 C.2       1 <0>         0.5537
     13 O1          3.6710    7.1159    1.2238 O.2       1 <0>        -0.4263
     14 N2          3.3566    5.9938   -0.7341 N.am      1 <0>        -0.6879
     15 C12         2.5919    4.9646   -1.1392 C.2       1 <0>         0.5665
     16 O2          2.5658    4.4982   -2.2603 O.2       1 <0>        -0.4255
     17 N3          1.6048    5.2213    2.3556 N.pl3     1 <0>        -0.4298
     18 C13         1.9282    4.2632    3.2801 C.2       1 <0>         0.0566
     19 C14         1.2590    4.4853    4.4224 C.2       1 <0>        -0.1738
     20 C15         0.4328    5.6776    4.2115 C.ar      1 <0>        -0.0972
     21 C16         0.6887    6.1008    2.8943 C.ar      1 <0>         0.1039
     22 C17         0.0386    7.2261    2.4007 C.ar      1 <0>        -0.1270
     23 C18        -0.8462    7.9142    3.2026 C.ar      1 <0>        -0.0907
     24 C19        -1.0975    7.4948    4.5014 C.ar      1 <0>        -0.1382
     25 C20        -0.4668    6.3869    5.0086 C.ar      1 <0>        -0.0667
     26 H1          1.2187   -1.7476   -0.0190 H         1 <0>         0.1280
     27 H2          3.3350   -0.4961   -0.0337 H         1 <0>         0.1295
     28 H3          3.3328    1.9580   -0.0198 H         1 <0>         0.1149
     29 H4         -0.9244   -0.5591    0.0075 H         1 <0>         0.1286
     30 H5         -2.1477    2.2017    0.0229 H         1 <0>         0.1583
     31 H6         -1.0133    4.5462    0.0356 H         1 <0>         0.1705
     32 H7          4.0817    6.6009   -1.2959 H         1 <0>         0.4717
     33 H8          2.6207    3.4511    3.1150 H         1 <0>         0.1704
     34 H9          1.3155    3.8948    5.3249 H         1 <0>         0.1582
     35 H10         0.2268    7.5606    1.3911 H         1 <0>         0.1148
     36 H11        -1.3494    8.7883    2.8163 H         1 <0>         0.1294
     37 H12        -1.7938    8.0445    5.1173 H         1 <0>         0.1279
     38 H13        -0.6654    6.0653    6.0203 H         1 <0>         0.1285
@<TRIPOS>BOND
     1    1    6 ar
     2    1    2 ar
     3    1   26 1
     4    2    3 ar
     5    2   27 1
     6    3    4 ar
     7    3   28 1
     8    4    9 1
     9    4    5 ar
    10    5    6 ar
    11    5    7 1
    12    6   29 1
    13    7    8 2
    14    7   30 1
    15    8    9 1
    16    8   31 1
    17    9   10 1
    18   10   15 1
    19   10   11 2
    20   11   12 1
    21   11   17 1
    22   12   13 2
    23   12   14 am
    24   14   15 am
    25   14   32 1
    26   15   16 2
    27   17   21 1
    28   17   18 1
    29   18   19 2
    30   18   33 1
    31   19   20 1
    32   19   34 1
    33   20   25 ar
    34   20   21 ar
    35   21   22 ar
    36   22   23 ar
    37   22   35 1
    38   23   24 ar
    39   23   36 1
    40   24   25 ar
    41   24   37 1
    42   25   38 1
@<TRIPOS>MOLECULE
ZINC26731846
   37    41     0     0     0
SMALL
USER_CHARGES
3,4-di(indol-1-yl)pyrrole-2,5-dione
@<TRIPOS>ATOM
      1 C1          1.2028   -0.6678   -0.0130 C.ar      1 <0>        -0.1487
      2 C2          2.3970    0.0391   -0.0211 C.ar      1 <0>        -0.1040
      3 C3          2.3979    1.4174   -0.0137 C.ar      1 <0>        -0.1169
      4 C4          1.1927    2.1101    0.0020 C.ar      1 <0>         0.1111
      5 C5         -0.0169    1.3914    0.0097 C.ar      1 <0>        -0.1038
      6 C6          0.0021   -0.0041    0.0020 C.ar      1 <0>        -0.0753
      7 C7         -1.0852    2.3950    0.0194 C.2       1 <0>        -0.2051
      8 C8         -0.4931    3.5998    0.0254 C.2       1 <0>         0.0683
      9 N1          0.8687    3.4509    0.0119 N.pl3     1 <0>        -0.4129
     10 C9          1.7886    4.4970    0.0093 C.2       1 <0>         0.0328
     11 C10         2.1196    5.2931    1.0633 C.2       1 <0>         0.0329
     12 C11         3.1333    6.2468    0.5675 C.2       1 <0>         0.5279
     13 O1          3.6710    7.1159    1.2238 O.3       1 <0>        -0.5133
     14 N2          3.3566    5.9938   -0.7341 N.2       1 <0>        -0.6974
     15 C12         2.5919    4.9646   -1.1392 C.2       1 <0>         0.5279
     16 O2          2.5658    4.4982   -2.2603 O.2       1 <0>        -0.5133
     17 N3          1.6048    5.2213    2.3556 N.pl3     1 <0>        -0.4129
     18 C13         1.9282    4.2632    3.2801 C.2       1 <0>         0.0683
     19 C14         1.2590    4.4853    4.4224 C.2       1 <0>        -0.2050
     20 C15         0.4328    5.6776    4.2115 C.ar      1 <0>        -0.1038
     21 C16         0.6887    6.1008    2.8943 C.ar      1 <0>         0.1112
     22 C17         0.0386    7.2261    2.4007 C.ar      1 <0>        -0.1170
     23 C18        -0.8462    7.9142    3.2026 C.ar      1 <0>        -0.1040
     24 C19        -1.0975    7.4948    4.5014 C.ar      1 <0>        -0.1488
     25 C20        -0.4668    6.3869    5.0086 C.ar      1 <0>        -0.0753
     26 H1          1.2187   -1.7476   -0.0190 H         1 <0>         0.1195
     27 H2          3.3350   -0.4961   -0.0337 H         1 <0>         0.1228
     28 H3          3.3328    1.9580   -0.0198 H         1 <0>         0.1160
     29 H4         -0.9244   -0.5591    0.0075 H         1 <0>         0.1199
     30 H5         -2.1477    2.2017    0.0229 H         1 <0>         0.1487
     31 H6         -1.0133    4.5462    0.0356 H         1 <0>         0.1618
     32 H7          2.6207    3.4511    3.1150 H         1 <0>         0.1618
     33 H8          1.3155    3.8948    5.3249 H         1 <0>         0.1487
     34 H9          0.2268    7.5606    1.3911 H         1 <0>         0.1160
     35 H10        -1.3494    8.7883    2.8163 H         1 <0>         0.1228
     36 H11        -1.7938    8.0445    5.1173 H         1 <0>         0.1195
     37 H12        -0.6654    6.0653    6.0203 H         1 <0>         0.1199
@<TRIPOS>BOND
     1    1    6 ar
     2    1    2 ar
     3    1   26 1
     4    2    3 ar
     5    2   27 1
     6    3    4 ar
     7    3   28 1
     8    4    9 1
     9    4    5 ar
    10    5    6 ar
    11    5    7 1
    12    6   29 1
    13    7    8 2
    14    7   30 1
    15    8    9 1
    16    8   31 1
    17    9   10 1
    18   10   15 1
    19   10   11 2
    20   11   12 1
    21   11   17 1
    22   12   13 1
    23   12   14 2
    24   14   15 1
    25   15   16 2
    26   17   21 1
    27   17   18 1
    28   18   19 2
    29   18   32 1
    30   19   20 1
    31   19   33 1
    32   20   25 ar
    33   20   21 ar
    34   21   22 ar
    35   22   23 ar
    36   22   34 1
    37   23   24 ar
    38   23   35 1
    39   24   25 ar
    40   24   36 1
    41   25   37 1
@<TRIPOS>MOLECULE
ZINC02149990
   31    32     0     0     0
SMALL
USER_CHARGES

@<TRIPOS>ATOM
      1 C1         -0.7696    0.9559    0.1072 C.ar      1 <0>        -0.1561
      2 C2          0.2301    1.8786    0.0407 C.ar      1 <0>        -0.0084
      3 C3          1.5627    1.4486   -0.0513 C.ar      1 <0>        -0.1402
      4 C4          2.6351    2.3527   -0.1222 C.ar      1 <0>         0.1720
      5 N1          3.8651    1.9028   -0.2069 N.ar      1 <0>        -0.4886
      6 C5          4.1565    0.6093   -0.2297 C.ar      1 <0>         0.1179
      7 C6          3.1893   -0.3471   -0.1661 C.ar      1 <0>        -0.1979
      8 C7          1.8450    0.0577   -0.0736 C.ar      1 <0>         0.0580
      9 C8          0.7902   -0.8632   -0.0034 C.ar      1 <0>        -0.6941
     10 C9         -0.4914   -0.4092    0.0852 C.ar      1 <0>         0.0350
     11 S1          1.1192   -2.5940   -0.0301 S.o2      1 <0>         2.6980
     12 O1         -0.1354   -3.2480    0.1013 O.2       1 <0>        -0.9449
     13 O2          1.9874   -2.8254   -1.1310 O.2       1 <0>        -0.9306
     14 N2          1.9836   -2.9492    1.3370 N.pl3     1 <0>        -1.1168
     15 C10         1.3773   -2.7589    2.6570 C.3       1 <0>         0.0891
     16 C11         2.1929   -3.5164    3.7068 C.3       1 <0>        -0.0160
     17 N3          1.5849   -3.3256    5.0304 N.4       1 <0>        -0.6343
     18 H1         -1.7946    1.2878    0.1826 H         1 <0>         0.1452
     19 H2         -0.0012    2.9334    0.0584 H         1 <0>         0.1489
     20 H3          2.4480    3.4163   -0.1074 H         1 <0>         0.1734
     21 H4          5.1905    0.3057   -0.3012 H         1 <0>         0.1635
     22 H5          3.4489   -1.3952   -0.1865 H         1 <0>         0.1410
     23 H6         -1.3041   -1.1184    0.1397 H         1 <0>         0.1512
     24 H7          2.8913   -3.2833    1.2638 H         1 <0>         0.4275
     25 H8          1.3665   -1.6969    2.9022 H         1 <0>         0.0890
     26 H9          0.3561   -3.1398    2.6461 H         1 <0>         0.1052
     27 H10         2.2037   -4.5784    3.4617 H         1 <0>         0.1462
     28 H11         3.2141   -3.1355    3.7177 H         1 <0>         0.1436
     29 H12         1.5749   -2.3425    5.2574 H         1 <0>         0.4381
     30 H13         0.6396   -3.6781    5.0203 H         1 <0>         0.4397
     31 H14         2.1228   -3.8251    5.7228 H         1 <0>         0.4453
@<TRIPOS>BOND
     1    1   10 ar
     2    1    2 ar
     3    1   18 1
     4    2    3 ar
     5    2   19 1
     6    3    8 ar
     7    3    4 ar
     8    4    5 ar
     9    4   20 1
    10    5    6 ar
    11    6    7 ar
    12    6   21 1
    13    7    8 ar
    14    7   22 1
    15    8    9 ar
    16    9   10 ar
    17    9   11 1
    18   10   23 1
    19   11   12 2
    20   11   13 2
    21   11   14 1
    22   14   15 1
    23   14   24 1
    24   15   16 1
    25   15   25 1
    26   15   26 1
    27   16   17 1
    28   16   27 1
    29   16   28 1
    30   17   29 1
    31   17   30 1
    32   17   31 1
@<TRIPOS>MOLECULE
ZINC03801072
   57    62     0     0     0
SMALL
USER_CHARGES
3-(aminomethylBLAHyl)-4-(1-methylindol-3-yl)-pyrrole-2,5-dione
@<TRIPOS>ATOM
      1 C1         -3.3259    7.1513   -1.4756 C.3       1 <0>         0.0723
      2 N1         -2.7966    6.0928   -0.6121 N.pl3     1 <0>        -0.4749
      3 C2         -1.9223    5.1286   -1.0105 C.2       1 <0>         0.1101
      4 C3         -1.6367    4.3057    0.0389 C.2       1 <0>        -0.1496
      5 C4         -2.4117    4.8068    1.1877 C.ar      1 <0>        -0.0736
      6 C5         -3.1136    5.9306    0.7206 C.ar      1 <0>         0.0952
      7 C6         -3.9408    6.6294    1.5934 C.ar      1 <0>        -0.1201
      8 C7         -4.0730    6.2101    2.8997 C.ar      1 <0>        -0.1007
      9 C8         -3.3765    5.1025    3.3605 C.ar      1 <0>        -0.1389
     10 C9         -2.5480    4.3999    2.5129 C.ar      1 <0>        -0.0798
     11 C10        -0.7356    3.1412    0.0251 C.2       1 <0>        -0.0074
     12 C11         0.6542    3.1601    0.0122 C.2       1 <0>        -0.0489
     13 C12         1.0829    1.7461    0.0011 C.2       1 <0>         0.5569
     14 O1          2.2328    1.3543   -0.0120 O.2       1 <0>        -0.4501
     15 N2         -0.0111    0.9658    0.0074 N.am      1 <0>        -0.6904
     16 C13        -1.1258    1.7161    0.0162 C.2       1 <0>         0.5503
     17 O2         -2.2647    1.2931    0.0185 O.2       1 <0>        -0.4368
     18 C14         1.5234    4.3487    0.0094 C.2       1 <0>        -0.1029
     19 C15         2.0341    5.0570   -1.1625 C.ar      1 <0>        -0.0809
     20 C16         1.8723    4.8452   -2.5318 C.ar      1 <0>        -0.0685
     21 C17         2.5154    5.7314   -3.3791 C.ar      1 <0>        -0.1378
     22 C18         3.2819    6.7783   -2.8957 C.ar      1 <0>        -0.0920
     23 C19         3.4473    7.0091   -1.5406 C.ar      1 <0>        -0.1299
     24 C20         2.8142    6.1277   -0.6658 C.ar      1 <0>         0.1065
     25 N3          2.7859    6.0659    0.7003 N.pl3     1 <0>        -0.4762
     26 C21         2.0165    5.0037    1.1008 C.2       1 <0>         0.0993
     27 C22         1.7661    4.6329    2.5442 C.3       1 <0>        -0.0498
     28 C23         2.7987    5.3589    3.4147 C.3       1 <0>        -0.1226
     29 H1          3.7825    4.9161    3.2592 H         1 <0>         0.1052
     30 C24         2.8343    6.8379    3.0190 C.3       1 <0>        -0.1422
     31 C25         3.4640    6.9813    1.6311 C.3       1 <0>         0.1126
     32 C26         2.4057    5.2326    4.8879 C.3       1 <0>        -0.0001
     33 H2         -4.2445    6.8072   -1.9508 H         1 <0>         0.0775
     34 H3         -3.5365    8.0374   -0.8768 H         1 <0>         0.0850
     35 H4         -2.5905    7.3969   -2.2418 H         1 <0>         0.0880
     36 H5         -1.5164    5.0301   -2.0064 H         1 <0>         0.1742
     37 H6         -4.4891    7.4919    1.2444 H         1 <0>         0.1218
     38 H7         -4.7194    6.7536    3.5730 H         1 <0>         0.1276
     39 H8         -3.4845    4.7892    4.3884 H         1 <0>         0.1235
     40 H9         -2.0071    3.5376    2.8741 H         1 <0>         0.1166
     41 H10         0.0021   -0.0041    0.0020 H         1 <0>         0.4311
     42 H11         1.2751    4.0297   -2.9123 H         1 <0>         0.1298
     43 H12         2.4160    5.6028   -4.4468 H         1 <0>         0.1249
     44 H13         3.7619    7.4416   -3.5999 H         1 <0>         0.1259
     45 H14         4.0500    7.8285   -1.1775 H         1 <0>         0.1275
     46 H15         0.7610    4.9401    2.8333 H         1 <0>         0.1021
     47 H16         1.8712    3.5553    2.6702 H         1 <0>         0.1005
     48 H17         1.8187    7.2331    2.9995 H         1 <0>         0.0956
     49 H18         3.4264    7.3941    3.7456 H         1 <0>         0.0809
     50 H19         3.3484    8.0075    1.2824 H         1 <0>         0.0966
     51 H20         4.5233    6.7296    1.6834 H         1 <0>         0.0844
     52 H21         1.4654    5.7567    5.0594 H         1 <0>         0.1414
     53 H22         2.2864    4.1796    5.1432 H         1 <0>         0.1406
     54 H23         3.6306    6.7829    5.4663 H         1 <0>         0.4337
     55 H24         3.2198    5.7530    6.7058 H         1 <0>         0.4433
     56 N4          3.4755    5.8090    5.7213 N.4       1 <0>        -0.6481
     57 H25         4.3429    5.2808    5.5699 H         1 <0>         0.4410
@<TRIPOS>BOND
     1    1    2 1
     2    1   33 1
     3    1   34 1
     4    1   35 1
     5    2    6 1
     6    2    3 1
     7    3    4 2
     8    3   36 1
     9    4    5 1
    10    4   11 1
    11    5   10 ar
    12    5    6 ar
    13    6    7 ar
    14    7    8 ar
    15    7   37 1
    16    8    9 ar
    17    8   38 1
    18    9   10 ar
    19    9   39 1
    20   10   40 1
    21   11   16 1
    22   11   12 2
    23   12   13 1
    24   12   18 1
    25   13   14 2
    26   13   15 am
    27   15   16 am
    28   15   41 1
    29   16   17 2
    30   18   26 2
    31   18   19 1
    32   19   24 ar
    33   19   20 ar
    34   20   21 ar
    35   20   42 1
    36   21   22 ar
    37   21   43 1
    38   22   23 ar
    39   22   44 1
    40   23   24 ar
    41   23   45 1
    42   24   25 1
    43   25   31 1
    44   25   26 1
    45   26   27 1
    46   27   28 1
    47   27   46 1
    48   27   47 1
    49   28   29 1
    50   28   30 1
    51   28   32 1
    52   30   31 1
    53   30   48 1
    54   30   49 1
    55   31   50 1
    56   31   51 1
    57   32   52 1
    58   32   53 1
    59   32   56 1
    60   54   56 1
    61   55   56 1
    62   56   57 1
@<TRIPOS>MOLECULE
ZINC03871742
   57    62     0     0     0
SMALL
USER_CHARGES
3-(aminomethylBLAHyl)-4-(1-methylindol-3-yl)-pyrrole-2,5-dione
@<TRIPOS>ATOM
      1 C1         -1.1887   -0.8574    0.0084 C.3       1 <0>         0.0721
      2 N1          0.0021   -0.0041    0.0020 N.pl3     1 <0>        -0.4749
      3 C2         -0.0164    1.3569    0.0095 C.2       1 <0>         0.1103
      4 C3          1.2614    1.8336   -0.0001 C.2       1 <0>        -0.1482
      5 C4          2.1479    0.6566   -0.0149 C.ar      1 <0>        -0.0735
      6 C5          1.3021   -0.4652   -0.0129 C.ar      1 <0>         0.0954
      7 C6          1.8593   -1.7394   -0.0243 C.ar      1 <0>        -0.1198
      8 C7          3.2291   -1.8910   -0.0389 C.ar      1 <0>        -0.1018
      9 C8          4.0630   -0.7824   -0.0409 C.ar      1 <0>        -0.1402
     10 C9          3.5305    0.4884   -0.0290 C.ar      1 <0>        -0.0800
     11 C10         1.6741    3.2471    0.0035 C.2       1 <0>        -0.0109
     12 C11         1.6378    4.1254    1.0802 C.2       1 <0>        -0.0459
     13 C12         2.1552    5.4140    0.5751 C.2       1 <0>         0.5561
     14 O1          2.2787    6.4322    1.2261 O.2       1 <0>        -0.4479
     15 N2          2.4610    5.2735   -0.7259 N.am      1 <0>        -0.6903
     16 C13         2.2046    4.0205   -1.1382 C.2       1 <0>         0.5507
     17 O2          2.3795    3.5948   -2.2625 O.2       1 <0>        -0.4377
     18 C14         1.1793    3.8307    2.4481 C.2       1 <0>        -0.1038
     19 C15        -0.1788    3.9792    2.9672 C.ar      1 <0>        -0.0807
     20 C16        -1.3704    4.3967    2.3738 C.ar      1 <0>        -0.0687
     21 C17        -2.4967    4.4063    3.1788 C.ar      1 <0>        -0.1376
     22 C18        -2.4492    4.0151    4.5061 C.ar      1 <0>        -0.0921
     23 C19        -1.2776    3.5924    5.1106 C.ar      1 <0>        -0.1297
     24 C20        -0.1286    3.5737    4.3217 C.ar      1 <0>         0.1064
     25 N3          1.1618    3.2177    4.6031 N.pl3     1 <0>        -0.4761
     26 C21         1.9397    3.3702    3.4840 C.2       1 <0>         0.0999
     27 C22         3.4190    3.0664    3.4303 C.3       1 <0>        -0.0509
     28 C23         3.7816    2.2172    4.6545 C.3       1 <0>        -0.1214
     29 H1          3.3660    1.2160    4.5398 H         1 <0>         0.1054
     30 C24         3.1994    2.8749    5.9089 C.3       1 <0>        -0.1438
     31 C25         1.6745    2.7401    5.8965 C.3       1 <0>         0.1131
     32 C26         5.3036    2.1279    4.7828 C.3       1 <0>        -0.0001
     33 H2         -1.4937   -1.0632   -1.0177 H         1 <0>         0.0777
     34 H3         -0.9609   -1.7954    0.5147 H         1 <0>         0.0848
     35 H4         -1.9976   -0.3486    0.5328 H         1 <0>         0.0884
     36 H5         -0.9077    1.9668    0.0172 H         1 <0>         0.1746
     37 H6          1.2192   -2.6093   -0.0229 H         1 <0>         0.1218
     38 H7          3.6574   -2.8824   -0.0480 H         1 <0>         0.1272
     39 H8          5.1347   -0.9160   -0.0522 H         1 <0>         0.1230
     40 H9          4.1820    1.3498   -0.0303 H         1 <0>         0.1166
     41 H10         2.8172    5.9784   -1.2889 H         1 <0>         0.4313
     42 H11        -1.4112    4.7019    1.3387 H         1 <0>         0.1299
     43 H12        -3.4388    4.7276    2.7596 H         1 <0>         0.1249
     44 H13        -3.3573    4.0410    5.0902 H         1 <0>         0.1260
     45 H14        -1.2550    3.2902    6.1472 H         1 <0>         0.1276
     46 H15         3.6476    2.5137    2.5191 H         1 <0>         0.1042
     47 H16         3.9860    3.9972    3.4480 H         1 <0>         0.0990
     48 H17         3.6002    2.3840    6.7957 H         1 <0>         0.0806
     49 H18         3.4703    3.9306    5.9245 H         1 <0>         0.0964
     50 H19         1.3997    1.6944    6.0341 H         1 <0>         0.0833
     51 H20         1.2490    3.3381    6.7024 H         1 <0>         0.0974
     52 H21         5.7252    1.7492    3.8517 H         1 <0>         0.1439
     53 H22         5.7095    3.1182    4.9892 H         1 <0>         0.1380
     54 H23         5.2305    0.3102    5.7467 H         1 <0>         0.4383
     55 H24         6.6503    1.1419    5.9880 H         1 <0>         0.4433
     56 N4          5.6391    1.2303    5.9022 N.4       1 <0>        -0.6481
     57 H25         5.2619    1.6215    6.7733 H         1 <0>         0.4361
@<TRIPOS>BOND
     1    1    2 1
     2    1   33 1
     3    1   34 1
     4    1   35 1
     5    2    6 1
     6    2    3 1
     7    3    4 2
     8    3   36 1
     9    4    5 1
    10    4   11 1
    11    5   10 ar
    12    5    6 ar
    13    6    7 ar
    14    7    8 ar
    15    7   37 1
    16    8    9 ar
    17    8   38 1
    18    9   10 ar
    19    9   39 1
    20   10   40 1
    21   11   16 1
    22   11   12 2
    23   12   13 1
    24   12   18 1
    25   13   14 2
    26   13   15 am
    27   15   16 am
    28   15   41 1
    29   16   17 2
    30   18   26 2
    31   18   19 1
    32   19   24 ar
    33   19   20 ar
    34   20   21 ar
    35   20   42 1
    36   21   22 ar
    37   21   43 1
    38   22   23 ar
    39   22   44 1
    40   23   24 ar
    41   23   45 1
    42   24   25 1
    43   25   31 1
    44   25   26 1
    45   26   27 1
    46   27   28 1
    47   27   46 1
    48   27   47 1
    49   28   29 1
    50   28   30 1
    51   28   32 1
    52   30   31 1
    53   30   48 1
    54   30   49 1
    55   31   50 1
    56   31   51 1
    57   32   52 1
    58   32   53 1
    59   32   56 1
    60   54   56 1
    61   55   56 1
    62   56   57 1
@<TRIPOS>MOLECULE
ZINC21288966
   49    52     0     0     0
SMALL
USER_CHARGES
2-(2-chlorophenyl)-5,7-dihydroxy-8-[(3S,4R)-3-hydroxy-1-methyl-4-piperidyl]chromen-4-one
@<TRIPOS>ATOM
      1 C1          6.0895   -0.0238    5.9621 C.3       1 <0>        -0.0460
      2 N1          6.1756    1.0472    4.9603 N.4       1 <0>        -0.3934
      3 C2          5.9739    0.5180    3.6055 C.3       1 <0>        -0.0028
      4 C3          6.2126    1.6289    2.5802 C.3       1 <0>        -0.1464
      5 C4          5.2418    2.7821    2.8491 C.3       1 <0>        -0.0180
      6 H1          4.2050    2.4431    2.7074 H         1 <0>         0.1039
      7 C5          5.4391    3.2830    4.2825 C.3       1 <0>         0.1015
      8 H2          4.7709    4.1271    4.5084 H         1 <0>         0.0941
      9 C6          5.2218    2.1236    5.2574 C.3       1 <0>        -0.0361
     10 O1          6.7669    3.7898    4.4323 O.3       1 <0>        -0.5639
     11 C7          5.5132    3.9050    1.8814 C.ar      1 <0>        -0.2158
     12 C8          6.8017    4.3949    1.7322 C.ar      1 <0>         0.2946
     13 C9          7.0678    5.4304    0.8434 C.ar      1 <0>        -0.3049
     14 C10         6.0448    5.9841    0.0956 C.ar      1 <0>         0.3111
     15 C11         4.7411    5.4942    0.2412 C.ar      1 <0>        -0.3649
     16 C12         4.4748    4.4470    1.1407 C.ar      1 <0>         0.2362
     17 O2          3.2147    3.9814    1.2730 O.3       1 <0>        -0.2171
     18 C13         2.1871    4.4838    0.5705 C.2       1 <0>         0.1982
     19 C14         2.3394    5.4926   -0.3277 C.2       1 <0>        -0.2780
     20 C15         3.6225    6.0546   -0.5353 C.2       1 <0>         0.4382
     21 O3          3.7953    6.9641   -1.3304 O.2       1 <0>        -0.4786
     22 C16         0.8407    3.9147    0.7769 C.ar      1 <0>        -0.0680
     23 C17         0.6478    2.5322    0.7263 C.ar      1 <0>        -0.0708
     24 C18        -0.6124    2.0073    0.9205 C.ar      1 <0>        -0.1159
     25 C19        -1.6867    2.8467    1.1599 C.ar      1 <0>        -0.0780
     26 C20        -1.5036    4.2164    1.2169 C.ar      1 <0>        -0.1066
     27 C21        -0.2472    4.7566    1.0243 C.ar      1 <0>        -0.0057
     28 Cl1        -0.0199    6.4765    1.0889 Cl        1 <0>        -0.0424
     29 O4          6.3024    6.9947   -0.7728 O.3       1 <0>        -0.4999
     30 O5          7.8133    3.8585    2.4614 O.3       1 <0>        -0.4665
     31 H3          6.8128   -0.8151    5.7159 H         1 <0>         0.1242
     32 H4          5.0728   -0.4438    5.9634 H         1 <0>         0.1169
     33 H5          6.3184    0.3856    6.9571 H         1 <0>         0.1225
     34 H6          6.6809   -0.3050    3.4243 H         1 <0>         0.1308
     35 H7          4.9438    0.1448    3.5072 H         1 <0>         0.1211
     36 H8          7.2477    1.9910    2.6662 H         1 <0>         0.1216
     37 H9          6.0450    1.2349    1.5669 H         1 <0>         0.1057
     38 H10         4.1951    1.7434    5.1512 H         1 <0>         0.1298
     39 H11         5.3771    2.4772    6.2874 H         1 <0>         0.1312
     40 H12         7.0946    4.1958    5.4007 H         1 <0>         0.4106
     41 H13         8.0758    5.8030    0.7365 H         1 <0>         0.1471
     42 H14         1.4871    5.8659   -0.8759 H         1 <0>         0.1670
     43 H15         1.4839    1.8757    0.5352 H         1 <0>         0.1384
     44 H16        -0.7625    0.9385    0.8812 H         1 <0>         0.1407
     45 H17        -2.6721    2.4298    1.3071 H         1 <0>         0.1438
     46 H18        -2.3456    4.8651    1.4082 H         1 <0>         0.1476
     47 H19         5.4855    7.4321   -1.3656 H         1 <0>         0.4556
     48 H20         8.8375    4.2431    2.3473 H         1 <0>         0.4397
     49 H21         7.1882    1.4744    5.0059 H         1 <0>         0.4481
@<TRIPOS>BOND
     1    1    2 1
     2    1   31 1
     3    1   32 1
     4    1   33 1
     5    2    9 1
     6    2    3 1
     7    2   49 1
     8    3    4 1
     9    3   34 1
    10    3   35 1
    11    4    5 1
    12    4   36 1
    13    4   37 1
    14    5    6 1
    15    5    7 1
    16    5   11 1
    17    7    8 1
    18    7    9 1
    19    7   10 1
    20    9   38 1
    21    9   39 1
    22   10   40 1
    23   11   16 ar
    24   11   12 ar
    25   12   13 ar
    26   12   30 1
    27   13   14 ar
    28   13   41 1
    29   14   15 ar
    30   14   29 1
    31   15   20 1
    32   15   16 ar
    33   16   17 1
    34   17   18 1
    35   18   19 2
    36   18   22 1
    37   19   20 1
    38   19   42 1
    39   20   21 2
    40   22   27 ar
    41   22   23 ar
    42   23   24 ar
    43   23   43 1
    44   24   25 ar
    45   24   44 1
    46   25   26 ar
    47   25   45 1
    48   26   27 ar
    49   26   46 1
    50   27   28 1
    51   29   47 1
    52   30   48 1
@<TRIPOS>MOLECULE
ZINC03812168
   64    69     0     0     0
SMALL
USER_CHARGES
dimethylaminomethylBLAHdione
@<TRIPOS>ATOM
      1 C1         -3.6591   -3.4932   -0.5238 C.3       1 <0>        -0.0551
      2 C2         -2.4926   -2.9550   -2.5762 C.3       1 <0>        -0.0445
      3 C3         -2.6578   -1.3072   -0.8098 C.3       1 <0>        -0.0358
      4 C4         -2.4673   -1.1012    0.6860 C.3       1 <0>         0.0654
      5 H1         -3.1645   -1.7751    1.2185 H         1 <0>         0.0947
      6 C5         -2.7230    0.3270    1.1457 C.3       1 <0>        -0.1345
      7 C6         -2.5225    1.3892    0.0793 C.3       1 <0>         0.1021
      8 N1         -1.1339    1.8402    0.0096 N.pl3     1 <0>        -0.4782
      9 C7         -0.0126    1.0747    0.0080 C.2       1 <0>         0.0759
     10 C8          1.1009    1.8532    0.0015 C.2       1 <0>        -0.1124
     11 C9          0.6150    3.2557   -0.0375 C.ar      1 <0>        -0.0829
     12 C10        -0.7846    3.1777   -0.0610 C.ar      1 <0>         0.0902
     13 C11        -1.5354    4.3459   -0.1576 C.ar      1 <0>        -0.1369
     14 C12        -0.9089    5.5725   -0.1941 C.ar      1 <0>        -0.0870
     15 C13         0.4756    5.6497   -0.1263 C.ar      1 <0>        -0.1387
     16 C14         1.2312    4.5008   -0.0317 C.ar      1 <0>        -0.0542
     17 C15         2.5293    1.4989    0.0288 C.2       1 <0>        -0.0575
     18 C16         3.2121    0.4058    0.5546 C.2       1 <0>        -0.0318
     19 C17         2.7061   -0.7744    1.2787 C.2       1 <0>        -0.1258
     20 C18         1.4206   -1.0272    1.6582 C.2       1 <0>         0.1002
     21 N2          1.3169   -2.2819    2.1682 N.pl3     1 <0>        -0.4767
     22 C19         2.5720   -2.8515    2.2654 C.ar      1 <0>         0.0850
     23 C20         3.5031   -1.9214    1.7684 C.ar      1 <0>        -0.0774
     24 C21         4.8560   -2.2219    1.8708 C.ar      1 <0>        -0.0704
     25 C22         5.2705   -3.4529    2.3343 C.ar      1 <0>        -0.1401
     26 C23         4.3436   -4.3996    2.7389 C.ar      1 <0>        -0.0882
     27 C24         3.0009   -4.0952    2.7142 C.ar      1 <0>        -0.1389
     28 C25         0.0751   -2.9597    2.5494 C.3       1 <0>         0.1083
     29 C26        -0.9464   -2.8428    1.4151 C.3       1 <0>         0.0261
     30 O1         -1.1329   -1.4683    1.0718 O.3       1 <0>        -0.3787
     31 C27         4.6407    0.6399    0.2297 C.2       1 <0>         0.5576
     32 O2          5.5801   -0.0982    0.4313 O.2       1 <0>        -0.4501
     33 N3          4.7726    1.8285   -0.3761 N.am      1 <0>        -0.6884
     34 C28         3.5684    2.3701   -0.5773 C.2       1 <0>         0.5496
     35 O3          3.3676    3.4021   -1.1909 O.2       1 <0>        -0.4507
     36 H2         -4.6064   -3.1194   -0.9125 H         1 <0>         0.1320
     37 H3         -3.5558   -4.5494   -0.7723 H         1 <0>         0.1292
     38 H4         -3.6371   -3.3709    0.5591 H         1 <0>         0.1176
     39 H5         -1.6226   -2.4415   -2.9853 H         1 <0>         0.1242
     40 H6         -2.4140   -4.0227   -2.7812 H         1 <0>         0.1266
     41 H7         -3.3976   -2.5618   -3.0392 H         1 <0>         0.1281
     42 H8         -3.6420   -0.9427   -1.1043 H         1 <0>         0.1512
     43 H9         -1.8892   -0.7576   -1.3530 H         1 <0>         0.1401
     44 H10        -3.7581    0.3948    1.5248 H         1 <0>         0.1133
     45 H11        -2.0693    0.5478    1.9998 H         1 <0>         0.1111
     46 H12        -2.8851    1.1097   -0.8943 H         1 <0>         0.0847
     47 H13        -3.1227    2.2722    0.3811 H         1 <0>         0.1001
     48 H14         0.0021   -0.0041    0.0020 H         1 <0>         0.1790
     49 H15        -2.6150    4.2937   -0.2077 H         1 <0>         0.1188
     50 H16        -1.4958    6.4773   -0.2780 H         1 <0>         0.1308
     51 H17         0.9608    6.6157   -0.1385 H         1 <0>         0.1284
     52 H18         2.3072    4.5814    0.0562 H         1 <0>         0.1320
     53 H19         0.6104   -0.3170    1.5917 H         1 <0>         0.1871
     54 H20         5.6126   -1.4944    1.6337 H         1 <0>         0.1514
     55 H21         6.3257   -3.6782    2.3787 H         1 <0>         0.1280
     56 H22         4.6724   -5.3687    3.0799 H         1 <0>         0.1300
     57 H23         2.2783   -4.8297    3.0422 H         1 <0>         0.1175
     58 H24         0.2774   -4.0129    2.7458 H         1 <0>         0.1169
     59 H25        -0.3264   -2.4933    3.4522 H         1 <0>         0.0971
     60 H26        -0.5876   -3.3893    0.5423 H         1 <0>         0.0664
     61 H27        -1.8985   -3.2659    1.7424 H         1 <0>         0.0864
     62 H28         5.6204    2.2247   -0.6318 H         1 <0>         0.4332
     63 N4         -2.5268   -2.7479   -1.1131 N.4       1 <0>        -0.4048
     64 H29        -1.6507   -3.0961   -0.7064 H         1 <0>         0.4232
@<TRIPOS>BOND
     1    1   36 1
     2    1   37 1
     3    1   38 1
     4    1   63 1
     5    2   39 1
     6    2   40 1
     7    2   41 1
     8    2   63 1
     9    3    4 1
    10    3   42 1
    11    3   43 1
    12    3   63 1
    13    4    5 1
    14    4   30 1
    15    4    6 1
    16    6    7 1
    17    6   44 1
    18    6   45 1
    19    7    8 1
    20    7   46 1
    21    7   47 1
    22    8   12 1
    23    8    9 1
    24    9   10 2
    25    9   48 1
    26   10   11 1
    27   10   17 1
    28   11   16 ar
    29   11   12 ar
    30   12   13 ar
    31   13   14 ar
    32   13   49 1
    33   14   15 ar
    34   14   50 1
    35   15   16 ar
    36   15   51 1
    37   16   52 1
    38   17   34 1
    39   17   18 2
    40   18   19 1
    41   18   31 1
    42   19   23 1
    43   19   20 2
    44   20   21 1
    45   20   53 1
    46   21   22 1
    47   21   28 1
    48   22   27 ar
    49   22   23 ar
    50   23   24 ar
    51   24   25 ar
    52   24   54 1
    53   25   26 ar
    54   25   55 1
    55   26   27 ar
    56   26   56 1
    57   27   57 1
    58   28   29 1
    59   28   58 1
    60   28   59 1
    61   29   30 1
    62   29   60 1
    63   29   61 1
    64   31   32 2
    65   31   33 am
    66   33   34 am
    67   33   62 1
    68   34   35 2
    69   63   64 1
@<TRIPOS>MOLECULE
ZINC34285211
   59    62     0     0     0
SMALL
USER_CHARGES

@<TRIPOS>ATOM
      1 C1         -0.0187    1.5258    0.0104 C.3       1 <0>        -0.1656
      2 C2          0.0021   -0.0041    0.0020 C.3       1 <0>         0.0991
      3 N1          0.6878   -0.4765   -1.2033 N.pl3     1 <0>        -0.4455
      4 C3          0.1084   -0.7452   -2.4220 C.ar      1 <0>         0.0734
      5 C4         -1.1885   -0.6848   -2.9333 C.ar      1 <0>         0.0979
      6 C5         -1.4068   -1.0423   -4.2530 C.ar      1 <0>         0.0255
      7 N2         -0.4156   -1.4373   -5.0310 N.ar      1 <0>        -0.4288
      8 C6          0.8360   -1.5144   -4.6003 C.ar      1 <0>         0.2963
      9 C7          1.1491   -1.1685   -3.2692 C.ar      1 <0>         0.0642
     10 N3          2.2847   -1.1401   -2.5504 N.2       1 <0>        -0.4358
     11 C8          2.0279   -0.7287   -1.3319 C.2       1 <0>         0.3425
     12 C9          3.0324   -0.5655   -0.2583 C.2       1 <0>         0.1311
     13 C10         4.4724   -0.8253   -0.3802 C.2       1 <0>         0.3646
     14 N4          5.0335   -0.5707    0.7697 N.2       1 <0>        -0.3434
     15 O1          4.0212   -0.1472    1.6654 O.3       1 <0>         0.0494
     16 N5          2.7917   -0.1594    0.9619 N.2       1 <0>        -0.2485
     17 N6          5.1251   -1.2670   -1.5235 N.pl3     1 <0>        -0.7999
     18 C11         1.8718   -1.9500   -5.4881 C.1       1 <0>        -0.1208
     19 C12         2.7209   -2.3071   -6.2159 C.1       1 <0>        -0.0802
     20 C13         3.7856   -2.7549   -7.1284 C.3       1 <0>         0.2403
     21 C14         5.1250   -2.7540   -6.3888 C.3       1 <0>        -0.1769
     22 C15         3.4749   -4.1704   -7.6190 C.3       1 <0>        -0.1771
     23 O2          3.8585   -1.8683   -8.2468 O.3       1 <0>        -0.5533
     24 O3         -2.2219   -0.2814   -2.1476 O.3       1 <0>        -0.3053
     25 C16        -3.5183   -0.2475   -2.7478 C.3       1 <0>         0.0602
     26 C17        -4.5450    0.2275   -1.7176 C.3       1 <0>        -0.1100
     27 H1         -4.4926   -0.4065   -0.8325 H         1 <0>         0.1080
     28 C18        -4.2441    1.6772   -1.3267 C.3       1 <0>        -0.1348
     29 C19        -5.3219    2.1680   -0.3558 C.3       1 <0>        -0.1475
     30 C20        -6.6969    2.0173   -1.0100 C.3       1 <0>        -0.0100
     31 N7         -6.9357    0.6061   -1.3358 N.4       1 <0>        -0.5023
     32 C21        -5.9489    0.1476   -2.3210 C.3       1 <0>        -0.0035
     33 H2          1.0039    1.9031    0.0027 H         1 <0>         0.0658
     34 H3         -0.5459    1.8868   -0.8726 H         1 <0>         0.0628
     35 H4         -0.5289    1.8773    0.9072 H         1 <0>         0.0853
     36 H5          0.5293   -0.3651    0.8851 H         1 <0>         0.1095
     37 H6         -1.0205   -0.3814    0.0098 H         1 <0>         0.1024
     38 H7         -2.4085   -0.9976   -4.6543 H         1 <0>         0.1718
     39 H8          4.6220   -1.4309   -2.3365 H         1 <0>         0.4312
     40 H9          6.0842   -1.4116   -1.5092 H         1 <0>         0.4212
     41 H10         5.0694   -3.4303   -5.5357 H         1 <0>         0.0725
     42 H11         5.9134   -3.0856   -7.0645 H         1 <0>         0.0747
     43 H12         5.3464   -1.7456   -6.0392 H         1 <0>         0.0708
     44 H13         2.5207   -4.1710   -8.1459 H         1 <0>         0.0706
     45 H14         4.2633   -4.5020   -8.2948 H         1 <0>         0.0744
     46 H15         3.4193   -4.8466   -6.7660 H         1 <0>         0.0730
     47 H16         4.5403   -2.1031   -8.8910 H         1 <0>         0.3893
     48 H17        -3.5089    0.4388   -3.5945 H         1 <0>         0.0809
     49 H18        -3.7852   -1.2465   -3.0928 H         1 <0>         0.0809
     50 H19        -3.2679    1.7296   -0.8445 H         1 <0>         0.1002
     51 H20        -4.2451    2.3031   -2.2191 H         1 <0>         0.0849
     52 H21        -5.2864    1.5744    0.5577 H         1 <0>         0.0898
     53 H22        -5.1458    3.2167   -0.1163 H         1 <0>         0.1153
     54 H23        -7.4666    2.3660   -0.3215 H         1 <0>         0.1359
     55 H24        -6.7314    2.6114   -1.9232 H         1 <0>         0.1322
     56 H25        -6.8551    0.0502   -0.4977 H         1 <0>         0.4295
     57 H26        -5.9999    0.7811   -3.2066 H         1 <0>         0.1367
     58 H27        -6.1659   -0.8835   -2.6000 H         1 <0>         0.1389
     59 H28        -7.8638    0.5026   -1.7178 H         1 <0>         0.4360
@<TRIPOS>BOND
     1    1    2 1
     2    1   33 1
     3    1   34 1
     4    1   35 1
     5    2    3 1
     6    2   36 1
     7    2   37 1
     8    3   11 1
     9    3    4 1
    10    4    9 ar
    11    4    5 ar
    12    5    6 ar
    13    5   24 1
    14    6    7 ar
    15    6   38 1
    16    7    8 ar
    17    8    9 ar
    18    8   18 1
    19    9   10 1
    20   10   11 2
    21   11   12 1
    22   12   16 2
    23   12   13 1
    24   13   14 2
    25   13   17 1
    26   14   15 1
    27   15   16 1
    28   17   39 1
    29   17   40 1
    30   18   19 3
    31   19   20 1
    32   20   21 1
    33   20   22 1
    34   20   23 1
    35   21   41 1
    36   21   42 1
    37   21   43 1
    38   22   44 1
    39   22   45 1
    40   22   46 1
    41   23   47 1
    42   24   25 1
    43   25   26 1
    44   25   48 1
    45   25   49 1
    46   26   27 1
    47   26   32 1
    48   26   28 1
    49   28   29 1
    50   28   50 1
    51   28   51 1
    52   29   30 1
    53   29   52 1
    54   29   53 1
    55   30   31 1
    56   30   54 1
    57   30   55 1
    58   31   32 1
    59   31   56 1
    60   31   59 1
    61   32   57 1
    62   32   58 1
@<TRIPOS>MOLECULE
ZINC03973984
   56    61     0     0     0
SMALL
USER_CHARGES

@<TRIPOS>ATOM
      1 C1          2.5035    5.2044    5.2747 C.3       1 <0>        -0.0407
      2 C2          2.1460    2.8917    5.8982 C.3       1 <0>         0.0002
      3 C3          2.5994    1.4554    5.6263 C.3       1 <0>         0.0414
      4 N1          2.3296    1.1169    4.2220 N.pl3     1 <0>        -0.4613
      5 C4          3.0395    2.0315    3.3170 C.3       1 <0>         0.0369
      6 C5          2.5862    3.4678    3.5888 C.3       1 <0>         0.0039
      7 C6          2.6615   -0.1998    3.9568 C.ar      1 <0>         0.4871
      8 N2          3.1470   -0.9308    4.9409 N.ar      1 <0>        -0.5353
      9 C7          3.4872   -2.2119    4.7478 C.ar      1 <0>         0.1825
     10 C8          4.0048   -3.0092    5.7783 C.ar      1 <0>        -0.1065
     11 C9          4.3334   -4.3076    5.5235 C.ar      1 <0>        -0.0656
     12 C10         4.1631   -4.8562    4.2555 C.ar      1 <0>        -0.1085
     13 C11         3.6617   -4.1078    3.2298 C.ar      1 <0>        -0.0669
     14 C12         3.3105   -2.7758    3.4594 C.ar      1 <0>        -0.1492
     15 C13         2.7731   -1.9159    2.4035 C.ar      1 <0>         0.3236
     16 N3          2.4744   -0.6585    2.7252 N.ar      1 <0>        -0.4991
     17 C14         2.5650   -2.4238    1.0387 C.2       1 <0>        -0.1201
     18 C15         3.1800   -1.9689   -0.1276 C.2       1 <0>         0.0533
     19 C16         2.6362   -2.8084   -1.2276 C.2       1 <0>         0.5500
     20 O1          2.9328   -2.7204   -2.4013 O.2       1 <0>        -0.4227
     21 N4          1.7605   -3.6814   -0.7012 N.am      1 <0>        -0.6820
     22 C17         1.6634   -3.5132    0.6279 C.2       1 <0>         0.5700
     23 O2          0.9508   -4.1587    1.3715 O.2       1 <0>        -0.4396
     24 C18         4.1628   -0.8913   -0.2438 C.2       1 <0>        -0.1709
     25 C19         5.4966   -0.9402    0.1201 C.2       1 <0>         0.1080
     26 N5          6.0779    0.2476   -0.1381 N.pl3     1 <0>        -0.5732
     27 H1          7.0102    0.4541    0.0329 H         1 <0>         0.4235
     28 C20         5.1647    1.1307   -0.6801 C.ar      1 <0>         0.0844
     29 C21         3.9309    0.4665   -0.7721 C.ar      1 <0>        -0.0602
     30 C22         2.8189    1.1254   -1.2880 C.ar      1 <0>        -0.0732
     31 C23         2.9346    2.4335   -1.7084 C.ar      1 <0>        -0.1312
     32 C24         4.1518    3.0912   -1.6184 C.ar      1 <0>        -0.0989
     33 C25         5.2601    2.4513   -1.1048 C.ar      1 <0>        -0.1234
     34 H2          2.7756    5.4479    6.3018 H         1 <0>         0.1235
     35 H3          3.0428    5.8598    4.5909 H         1 <0>         0.1231
     36 H4          1.4307    5.3427    5.1405 H         1 <0>         0.1252
     37 H5          1.0724    2.9725    5.7281 H         1 <0>         0.1413
     38 H6          2.3713    3.1547    6.9317 H         1 <0>         0.1414
     39 H7          2.0529    0.7723    6.2765 H         1 <0>         0.1348
     40 H8          3.6680    1.3677    5.8227 H         1 <0>         0.0783
     41 H9          4.1131    1.9507    3.4870 H         1 <0>         0.0667
     42 H10         2.8139    1.7684    2.2835 H         1 <0>         0.1408
     43 H11         1.5175    3.5551    3.3925 H         1 <0>         0.1441
     44 H12         3.1327    4.1509    2.9386 H         1 <0>         0.1409
     45 H13         4.1420   -2.5977    6.7674 H         1 <0>         0.1438
     46 H14         4.7321   -4.9205    6.3183 H         1 <0>         0.1425
     47 H15         4.4315   -5.8876    4.0807 H         1 <0>         0.1407
     48 H16         3.5332   -4.5436    2.2500 H         1 <0>         0.1310
     49 H17         1.2665   -4.3425   -1.2110 H         1 <0>         0.4382
     50 H18         5.9953   -1.7986    0.5453 H         1 <0>         0.1795
     51 H19         1.8699    0.6147   -1.3585 H         1 <0>         0.1217
     52 H20         2.0736    2.9480   -2.1089 H         1 <0>         0.1281
     53 H21         4.2319    4.1158   -1.9504 H         1 <0>         0.1296
     54 H22         6.2033    2.9732   -1.0392 H         1 <0>         0.1233
     55 N6          2.8834    3.8027    4.9973 N.4       1 <0>        -0.4016
     56 H23         3.8908    3.6913    5.1615 H         1 <0>         0.4268
@<TRIPOS>BOND
     1    1   34 1
     2    1   35 1
     3    1   36 1
     4    1   55 1
     5    2    3 1
     6    2   37 1
     7    2   38 1
     8    2   55 1
     9    3    4 1
    10    3   39 1
    11    3   40 1
    12    4    5 1
    13    4    7 1
    14    5    6 1
    15    5   41 1
    16    5   42 1
    17    6   43 1
    18    6   44 1
    19    6   55 1
    20    7   16 ar
    21    7    8 ar
    22    8    9 ar
    23    9   14 ar
    24    9   10 ar
    25   10   11 ar
    26   10   45 1
    27   11   12 ar
    28   11   46 1
    29   12   13 ar
    30   12   47 1
    31   13   14 ar
    32   13   48 1
    33   14   15 ar
    34   15   16 ar
    35   15   17 1
    36   17   22 1
    37   17   18 2
    38   18   19 1
    39   18   24 1
    40   19   20 2
    41   19   21 am
    42   21   22 am
    43   21   49 1
    44   22   23 2
    45   24   29 1
    46   24   25 2
    47   25   26 1
    48   25   50 1
    49   26   27 1
    50   26   28 1
    51   28   33 ar
    52   28   29 ar
    53   29   30 ar
    54   30   31 ar
    55   30   51 1
    56   31   32 ar
    57   31   52 1
    58   32   33 ar
    59   32   53 1
    60   33   54 1
    61   55   56 1
@<TRIPOS>MOLECULE
ZINC33901069
   63    70     0     0     0
SMALL
USER_CHARGES

@<TRIPOS>ATOM
      1 C1         -0.1295    1.5952   -0.2973 C.3       1 <0>        -0.1689
      2 C2         -0.0862    0.0696   -0.1900 C.3       1 <0>         0.3341
      3 C3          0.5692   -0.4501   -1.4637 C.3       1 <0>         0.0405
      4 H1          1.4796    0.1159   -1.6612 H         1 <0>         0.1376
      5 C4          0.9167   -1.9328   -1.2889 C.3       1 <0>        -0.0062
      6 H2          1.3963   -2.3075   -2.1932 H         1 <0>         0.1561
      7 C5          1.8785   -2.0596   -0.1021 C.3       1 <0>        -0.1826
      8 C6          1.2061   -1.5198    1.1541 C.3       1 <0>         0.2993
      9 H3          1.9797   -1.4243    1.9161 H         1 <0>         0.1558
     10 O1          0.6555   -0.2442    0.9666 O.3       1 <0>        -0.3230
     11 N1          0.2189   -2.4746    1.6600 N.pl3     1 <0>        -0.5360
     12 C7          0.4705   -3.5508    2.4739 C.ar      1 <0>         0.1461
     13 C8          1.6649   -4.0152    3.0240 C.ar      1 <0>        -0.1504
     14 C9          1.5948   -5.1456    3.8201 C.ar      1 <0>        -0.0584
     15 C10         0.4006   -5.7997    4.0696 C.ar      1 <0>        -0.1441
     16 C11        -0.7984   -5.3597    3.5358 C.ar      1 <0>        -0.0290
     17 C12        -0.7487   -4.2198    2.7307 C.ar      1 <0>        -0.1115
     18 C13        -1.7893   -3.4830    2.0197 C.ar      1 <0>         0.0213
     19 C14        -1.1442   -2.4197    1.3841 C.ar      1 <0>         0.0473
     20 C15        -1.8806   -1.5095    0.6175 C.ar      1 <0>         0.0846
     21 N2         -1.4718   -0.3951   -0.1095 N.pl3     1 <0>        -0.5182
     22 C16        -2.5611    0.1913   -0.7090 C.ar      1 <0>         0.1628
     23 C17        -2.6521    1.3277   -1.5118 C.ar      1 <0>        -0.1327
     24 C18        -3.9109    1.6745   -1.9733 C.ar      1 <0>        -0.0716
     25 C19        -5.0393    0.9368   -1.6616 C.ar      1 <0>        -0.1386
     26 C20        -4.9745   -0.1955   -0.8662 C.ar      1 <0>        -0.0405
     27 C21        -3.7147   -0.5596   -0.3919 C.ar      1 <0>        -0.1042
     28 C22        -3.2693   -1.6660    0.4845 C.ar      1 <0>        -0.0171
     29 C23        -3.9084   -2.7313    1.1102 C.ar      1 <0>        -0.0268
     30 C24        -3.1873   -3.6421    1.8754 C.ar      1 <0>        -0.1120
     31 C25        -4.1221   -4.6480    2.4030 C.2       1 <0>         0.5712
     32 O2         -3.8062   -5.5851    3.1110 O.2       1 <0>        -0.4999
     33 N3         -5.3744   -4.3851    1.9926 N.am      1 <0>        -0.7338
     34 C26        -5.3495   -3.1771    1.1601 C.3       1 <0>         0.3531
     35 H4         -5.7060   -3.4063    0.1559 H         1 <0>         0.1073
     36 O3         -6.1592   -2.1576    1.7492 O.3       1 <0>        -0.5461
     37 N4         -0.3067   -2.7008   -1.0216 N.4       1 <0>        -0.5258
     38 C27         0.0145   -4.1336   -0.9773 C.3       1 <0>        -0.0504
     39 O4         -0.3340   -0.2979   -2.5607 O.3       1 <0>        -0.3612
     40 C28         0.3101   -0.0933   -3.8198 C.3       1 <0>         0.0162
     41 H5          0.8261    2.0094    0.0240 H         1 <0>         0.0985
     42 H6         -0.3202    1.8814   -1.3317 H         1 <0>         0.1039
     43 H7         -0.9255    1.9818    0.3392 H         1 <0>         0.0924
     44 H8          2.1370   -3.1081    0.0458 H         1 <0>         0.1235
     45 H9          2.7835   -1.4869   -0.3048 H         1 <0>         0.1460
     46 H10         2.6036   -3.5149    2.8368 H         1 <0>         0.1371
     47 H11         2.5026   -5.5304    4.2610 H         1 <0>         0.1364
     48 H12         0.4045   -6.6780    4.6980 H         1 <0>         0.1356
     49 H13        -1.7278   -5.8736    3.7323 H         1 <0>         0.1596
     50 H14        -1.7792    1.9122   -1.7624 H         1 <0>         0.1441
     51 H15        -4.0153    2.5500   -2.5970 H         1 <0>         0.1337
     52 H16        -5.9967    1.2527   -2.0488 H         1 <0>         0.1330
     53 H17        -5.8575   -0.7687   -0.6249 H         1 <0>         0.1424
     54 H18        -6.1628   -4.9065    2.2103 H         1 <0>         0.4317
     55 H19        -7.0970   -2.3857    1.8091 H         1 <0>         0.3958
     56 H20        -0.6958   -2.4158   -0.1353 H         1 <0>         0.4181
     57 H21        -0.8932   -4.7035   -0.7789 H         1 <0>         0.1257
     58 H22         0.4349   -4.4415   -1.9347 H         1 <0>         0.1262
     59 H23         0.7403   -4.3189   -0.1854 H         1 <0>         0.1194
     60 H24         0.9482   -0.9479   -4.0446 H         1 <0>         0.0513
     61 H25        -0.4433    0.0130   -4.6003 H         1 <0>         0.1100
     62 H26         0.9168    0.8112   -3.7748 H         1 <0>         0.0633
     63 H27        -0.9785   -2.5293   -1.7546 H         1 <0>         0.4278
@<TRIPOS>BOND
     1    1    2 1
     2    1   41 1
     3    1   42 1
     4    1   43 1
     5    2   10 1
     6    2   21 1
     7    2    3 1
     8    3    4 1
     9    3    5 1
    10    3   39 1
    11    5    6 1
    12    5    7 1
    13    5   37 1
    14    7    8 1
    15    7   44 1
    16    7   45 1
    17    8    9 1
    18    8   10 1
    19    8   11 1
    20   11   19 1
    21   11   12 1
    22   12   17 ar
    23   12   13 ar
    24   13   14 ar
    25   13   46 1
    26   14   15 ar
    27   14   47 1
    28   15   16 ar
    29   15   48 1
    30   16   17 ar
    31   16   49 1
    32   17   18 1
    33   18   30 ar
    34   18   19 ar
    35   19   20 ar
    36   20   28 ar
    37   20   21 1
    38   21   22 1
    39   22   27 ar
    40   22   23 ar
    41   23   24 ar
    42   23   50 1
    43   24   25 ar
    44   24   51 1
    45   25   26 ar
    46   25   52 1
    47   26   27 ar
    48   26   53 1
    49   27   28 1
    50   28   29 ar
    51   29   34 1
    52   29   30 ar
    53   30   31 1
    54   31   32 2
    55   31   33 am
    56   33   34 1
    57   33   54 1
    58   34   35 1
    59   34   36 1
    60   36   55 1
    61   37   38 1
    62   37   56 1
    63   37   63 1
    64   38   57 1
    65   38   58 1
    66   38   59 1
    67   39   40 1
    68   40   60 1
    69   40   61 1
    70   40   62 1
@<TRIPOS>MOLECULE
ZINC03797930
   57    61     0     0     0
SMALL
USER_CHARGES

@<TRIPOS>ATOM
      1 C1         -0.0178    1.4608    0.0101 C.3       1 <0>         0.0756
      2 N1          0.0021   -0.0041    0.0020 N.pl3     1 <0>        -0.4779
      3 C2          0.0079   -0.7756   -1.1193 C.2       1 <0>         0.1034
      4 C3          0.0281   -2.0937   -0.7697 C.2       1 <0>        -0.1402
      5 C4          0.0354   -2.1368    0.7032 C.ar      1 <0>        -0.0754
      6 C5          0.0236   -0.7983    1.1297 C.ar      1 <0>         0.0946
      7 C6          0.0313   -0.5163    2.4916 C.ar      1 <0>        -0.1255
      8 C7          0.0535   -1.5463    3.4071 C.ar      1 <0>        -0.0992
      9 C8          0.0683   -2.8675    2.9845 C.ar      1 <0>        -0.1386
     10 C9          0.0542   -3.1677    1.6397 C.ar      1 <0>        -0.0735
     11 C10         0.0398   -3.2475   -1.6846 C.2       1 <0>        -0.0198
     12 C11         1.1172   -3.7122   -2.4298 C.2       1 <0>        -0.0395
     13 C12         0.6208   -4.8840   -3.1806 C.2       1 <0>         0.5564
     14 O1          1.2746   -5.5640   -3.9461 O.2       1 <0>        -0.4464
     15 N2         -0.6740   -5.0726   -2.8749 N.am      1 <0>        -0.6902
     16 C13        -1.0897   -4.1493   -1.9915 C.2       1 <0>         0.5532
     17 O2         -2.2087   -4.0674   -1.5257 O.2       1 <0>        -0.4418
     18 C14         2.4779   -3.1502   -2.4643 C.2       1 <0>        -0.1185
     19 C15         3.4364   -3.2746   -1.5022 C.2       1 <0>         0.0933
     20 N3          4.5640   -2.6188   -1.8910 N.pl3     1 <0>        -0.4798
     21 C16         4.3781   -2.0398   -3.1293 C.ar      1 <0>         0.0962
     22 C17         3.0730   -2.3483   -3.5479 C.ar      1 <0>        -0.0752
     23 C18         2.6089   -1.8925   -4.7796 C.ar      1 <0>        -0.0686
     24 C19         3.4370   -1.1416   -5.5852 C.ar      1 <0>        -0.1351
     25 C20         4.7273   -0.8397   -5.1749 C.ar      1 <0>        -0.0935
     26 C21         5.1968   -1.2769   -3.9550 C.ar      1 <0>        -0.1304
     27 C22         5.7987   -2.5392   -1.1066 C.3       1 <0>         0.1213
     28 C23         5.8024   -1.2444   -0.2914 C.3       1 <0>        -0.1304
     29 C24         7.0919   -1.1612    0.5278 C.3       1 <0>        -0.1323
     30 S1          7.0963    0.3739    1.4943 S.3       1 <0>         0.0637
     31 C25         8.6242    0.3216    2.3704 C.cat     1 <0>         0.4855
     32 N4          9.2482    1.4553    2.6902 N.pl3     1 <0>        -0.7357
     33 N5          9.1561   -0.8516    2.7133 N.pl3     1 <0>        -0.7643
     34 H1          1.0048    1.8381    0.0023 H         1 <0>         0.0705
     35 H2         -0.5450    1.8219   -0.8730 H         1 <0>         0.0878
     36 H3         -0.5280    1.8123    0.9069 H         1 <0>         0.0849
     37 H4         -0.0026   -0.4009   -2.1322 H         1 <0>         0.1741
     38 H5          0.0202    0.5088    2.8315 H         1 <0>         0.1196
     39 H6          0.0598   -1.3227    4.4637 H         1 <0>         0.1265
     40 H7          0.0861   -3.6646    3.7130 H         1 <0>         0.1250
     41 H8          0.0669   -4.1972    1.3134 H         1 <0>         0.1196
     42 H9         -1.2301   -5.7795   -3.2382 H         1 <0>         0.4308
     43 H10         3.3186   -3.8118   -0.5727 H         1 <0>         0.1746
     44 H11         1.6050   -2.1267   -5.1017 H         1 <0>         0.1223
     45 H12         3.0800   -0.7868   -6.5407 H         1 <0>         0.1277
     46 H13         5.3679   -0.2507   -5.8146 H         1 <0>         0.1281
     47 H14         6.2036   -1.0375   -3.6461 H         1 <0>         0.1168
     48 H15         5.8563   -3.3934   -0.4320 H         1 <0>         0.1002
     49 H16         6.6571   -2.5481   -1.7783 H         1 <0>         0.0963
     50 H17         5.7448   -0.3902   -0.9660 H         1 <0>         0.0946
     51 H18         4.9440   -1.2354    0.3802 H         1 <0>         0.0946
     52 H19         7.1495   -2.0155    1.2024 H         1 <0>         0.1123
     53 H20         7.9503   -1.1702   -0.1438 H         1 <0>         0.1212
     54 H21         8.8612    2.3090    2.4406 H         1 <0>         0.4515
     55 H22         8.7020   -1.6765    2.4806 H         1 <0>         0.4429
     56 H23         9.9972   -0.8803    3.1956 H         1 <0>         0.4324
     57 H24        10.0893    1.4265    3.1725 H         1 <0>         0.4339
@<TRIPOS>BOND
     1    1    2 1
     2    1   34 1
     3    1   35 1
     4    1   36 1
     5    2    6 1
     6    2    3 1
     7    3    4 2
     8    3   37 1
     9    4    5 1
    10    4   11 1
    11    5   10 ar
    12    5    6 ar
    13    6    7 ar
    14    7    8 ar
    15    7   38 1
    16    8    9 ar
    17    8   39 1
    18    9   10 ar
    19    9   40 1
    20   10   41 1
    21   11   16 1
    22   11   12 2
    23   12   13 1
    24   12   18 1
    25   13   14 2
    26   13   15 am
    27   15   16 am
    28   15   42 1
    29   16   17 2
    30   18   22 1
    31   18   19 2
    32   19   20 1
    33   19   43 1
    34   20   21 1
    35   20   27 1
    36   21   26 ar
    37   21   22 ar
    38   22   23 ar
    39   23   24 ar
    40   23   44 1
    41   24   25 ar
    42   24   45 1
    43   25   26 ar
    44   25   46 1
    45   26   47 1
    46   27   28 1
    47   27   48 1
    48   27   49 1
    49   28   29 1
    50   28   50 1
    51   28   51 1
    52   29   30 1
    53   29   52 1
    54   29   53 1
    55   30   31 1
    56   31   32 2
    57   31   33 1
    58   32   54 1
    59   32   57 1
    60   33   55 1
    61   33   56 1
@<TRIPOS>MOLECULE
ZINC00585151
   56    60     0     0     0
SMALL
USER_CHARGES

@<TRIPOS>ATOM
      1 C1         -0.0178    1.4648    0.0101 C.3       1 <0>        -0.0534
      2 N1          0.0021   -0.0041    0.0020 N.4       1 <0>        -0.3866
      3 C2          0.6897   -0.4778   -1.2066 C.3       1 <0>        -0.0478
      4 C3          0.7126   -0.4907    1.1921 C.3       1 <0>        -0.0080
      5 C4         -0.0711   -0.1034    2.4478 C.3       1 <0>        -0.1730
      6 C5          0.6689   -0.6103    3.6874 C.3       1 <0>         0.1182
      7 N2         -0.0815   -0.2395    4.8897 N.pl3     1 <0>        -0.4815
      8 C6          0.1469    0.8758    5.6359 C.2       1 <0>         0.0901
      9 C7         -0.7280    0.9160    6.6813 C.2       1 <0>        -0.1149
     10 C8         -1.5728   -0.2860    6.5675 C.ar      1 <0>        -0.0758
     11 C9         -1.1242   -0.9677    5.4239 C.ar      1 <0>         0.0951
     12 C10        -1.7430   -2.1563    5.0519 C.ar      1 <0>        -0.1325
     13 C11        -2.7877   -2.6520    5.8018 C.ar      1 <0>        -0.0916
     14 C12        -3.2317   -1.9762    6.9290 C.ar      1 <0>        -0.1341
     15 C13        -2.6274   -0.8005    7.3180 C.ar      1 <0>        -0.0675
     16 C14        -0.8118    1.9563    7.7201 C.2       1 <0>        -0.0396
     17 C15        -1.3439    3.2331    7.5833 C.2       1 <0>        -0.0216
     18 C16        -1.1928    3.8832    8.9015 C.2       1 <0>         0.5528
     19 O1         -1.5431    5.0129    9.1789 O.2       1 <0>        -0.4407
     20 N3         -0.6040    3.0163    9.7426 N.am      1 <0>        -0.6896
     21 C17        -0.3529    1.8519    9.1208 C.2       1 <0>         0.5557
     22 O2          0.1678    0.8770    9.6251 O.2       1 <0>        -0.4448
     23 C18        -1.9376    3.8193    6.3699 C.2       1 <0>        -0.1386
     24 C19        -3.1673    3.5437    5.8485 C.2       1 <0>         0.1034
     25 N4         -3.3630    4.2810    4.7213 N.pl3     1 <0>        -0.5859
     26 H1         -4.1640    4.2562    4.1748 H         1 <0>         0.4208
     27 C20        -2.2594    5.0687    4.4669 C.ar      1 <0>         0.0921
     28 C21        -1.3222    4.8236    5.4844 C.ar      1 <0>        -0.0761
     29 C22        -0.1012    5.4938    5.4850 C.ar      1 <0>        -0.0737
     30 C23         0.1803    6.3997    4.4856 C.ar      1 <0>        -0.1372
     31 C24        -0.7458    6.6457    3.4825 C.ar      1 <0>        -0.0980
     32 C25        -1.9544    5.9835    3.4647 C.ar      1 <0>        -0.1284
     33 H2          1.0047    1.8421    0.0024 H         1 <0>         0.1243
     34 H3         -0.5450    1.8259   -0.8730 H         1 <0>         0.1260
     35 H4         -0.5280    1.8163    0.9069 H         1 <0>         0.1232
     36 H5          1.7123   -0.1005   -1.2143 H         1 <0>         0.1234
     37 H6          0.7044   -1.5677   -1.2126 H         1 <0>         0.1246
     38 H7          0.1625   -0.1167   -2.0897 H         1 <0>         0.1259
     39 H8          0.8051   -1.5756    1.1418 H         1 <0>         0.1349
     40 H9          1.7055   -0.0428    1.2310 H         1 <0>         0.1343
     41 H10        -0.1636    0.9815    2.4982 H         1 <0>         0.0962
     42 H11        -1.0640   -0.5514    2.4090 H         1 <0>         0.0946
     43 H12         0.7614   -1.6952    3.6370 H         1 <0>         0.0986
     44 H13         1.6619   -0.1623    3.7262 H         1 <0>         0.1025
     45 H14         0.9061    1.6162    5.4314 H         1 <0>         0.1747
     46 H15        -1.4054   -2.6903    4.1759 H         1 <0>         0.1162
     47 H16        -3.2655   -3.5752    5.5090 H         1 <0>         0.1291
     48 H17        -4.0517   -2.3760    7.5071 H         1 <0>         0.1290
     49 H18        -2.9758   -0.2758    8.1954 H         1 <0>         0.1233
     50 H19        -0.3934    3.2036   10.6708 H         1 <0>         0.4318
     51 H20        -3.8779    2.8460    6.2665 H         1 <0>         0.1769
     52 H21         0.6213    5.3046    6.2652 H         1 <0>         0.1203
     53 H22         1.1262    6.9209    4.4834 H         1 <0>         0.1262
     54 H23        -0.5147    7.3581    2.7044 H         1 <0>         0.1278
     55 H24        -2.6689    6.1837    2.6799 H         1 <0>         0.1213
     56 H25        -0.9445   -0.3533    0.0092 H         1 <0>         0.4275
@<TRIPOS>BOND
     1    1    2 1
     2    1   33 1
     3    1   34 1
     4    1   35 1
     5    2    3 1
     6    2    4 1
     7    2   56 1
     8    3   36 1
     9    3   37 1
    10    3   38 1
    11    4    5 1
    12    4   39 1
    13    4   40 1
    14    5    6 1
    15    5   41 1
    16    5   42 1
    17    6    7 1
    18    6   43 1
    19    6   44 1
    20    7   11 1
    21    7    8 1
    22    8    9 2
    23    8   45 1
    24    9   10 1
    25    9   16 1
    26   10   15 ar
    27   10   11 ar
    28   11   12 ar
    29   12   13 ar
    30   12   46 1
    31   13   14 ar
    32   13   47 1
    33   14   15 ar
    34   14   48 1
    35   15   49 1
    36   16   21 1
    37   16   17 2
    38   17   18 1
    39   17   23 1
    40   18   19 2
    41   18   20 am
    42   20   21 am
    43   20   50 1
    44   21   22 2
    45   23   28 1
    46   23   24 2
    47   24   25 1
    48   24   51 1
    49   25   26 1
    50   25   27 1
    51   27   32 ar
    52   27   28 ar
    53   28   29 ar
    54   29   30 ar
    55   29   52 1
    56   30   31 ar
    57   30   53 1
    58   31   32 ar
    59   31   54 1
    60   32   55 1
@<TRIPOS>MOLECULE
ZINC03872983
   56    63     0     0     0
SMALL
USER_CHARGES

@<TRIPOS>ATOM
      1 C1         -0.0187    1.5258    0.0104 C.3       1 <0>        -0.1407
      2 C2          0.0021   -0.0041    0.0020 C.3       1 <0>         0.3579
      3 C3          0.6608   -0.5271   -1.2917 C.3       1 <0>         0.1132
      4 C4          1.6076   -1.6561   -0.8349 C.3       1 <0>        -0.1898
      5 C5          1.4457   -1.7229    0.6980 C.3       1 <0>         0.3130
      6 H1          2.4193   -1.8096    1.1803 H         1 <0>         0.1532
      7 O1          0.8138   -0.4973    1.0676 O.3       1 <0>        -0.3330
      8 N1          0.6026   -2.8728    1.0385 N.pl3     1 <0>        -0.5167
      9 C6          1.0184   -4.1199    1.4309 C.ar      1 <0>         0.1519
     10 C7          2.2990   -4.6615    1.5345 C.ar      1 <0>        -0.1541
     11 C8          2.3988   -5.9678    1.9816 C.ar      1 <0>        -0.0734
     12 C9          1.2861   -6.7205    2.3154 C.ar      1 <0>        -0.1593
     13 C10         0.0034   -6.2102    2.2168 C.ar      1 <0>        -0.0353
     14 C11        -0.1195   -4.8946    1.7654 C.ar      1 <0>        -0.1066
     15 C12        -1.2883   -4.0550    1.5216 C.ar      1 <0>         0.0006
     16 C13        -0.7856   -2.8411    1.0562 C.ar      1 <0>         0.1042
     17 C14        -1.6574   -1.8321    0.6310 C.ar      1 <0>         0.1849
     18 N2         -1.3604   -0.5342    0.1091 N.pl3     1 <0>        -0.5069
     19 C15        -2.5268    0.1096   -0.2279 C.ar      1 <0>         0.1905
     20 C16        -2.7381    1.3431   -0.8422 C.ar      1 <0>        -0.1655
     21 C17        -4.0518    1.7366   -1.0343 C.ar      1 <0>        -0.0792
     22 C18        -5.1215    0.9522   -0.6409 C.ar      1 <0>        -0.1580
     23 C19        -4.9386   -0.2798   -0.0351 C.ar      1 <0>        -0.0532
     24 C20        -3.6224   -0.6962    0.1618 C.ar      1 <0>        -0.0932
     25 C21        -3.0439   -2.0199    0.7036 C.ar      1 <0>        -0.0470
     26 C22        -3.5450   -3.2021    1.2390 C.ar      1 <0>        -0.0435
     27 C23        -2.6872   -4.2198    1.6501 C.ar      1 <0>        -0.1376
     28 C24        -3.5012   -5.3310    2.1668 C.2       1 <0>         0.5687
     29 O2         -3.0532   -6.3689    2.6153 O.2       1 <0>        -0.5251
     30 N3         -4.8090   -5.0377    2.0742 N.am      1 <0>        -0.7236
     31 C25        -4.9478   -3.6986    1.4912 C.3       1 <0>         0.1448
     32 C26        -0.3867   -1.0704   -2.2290 C.2       1 <0>         0.4303
     33 O3         -1.4390   -1.4719   -1.7917 O.2       1 <0>        -0.4517
     34 O4         -0.1506   -1.1083   -3.5499 O.3       1 <0>        -0.3530
     35 C27        -1.1878   -1.6359   -4.3794 C.3       1 <0>         0.0364
     36 O5          1.4030    0.5158   -1.9268 O.3       1 <0>        -0.5193
     37 H2          0.9864    1.9017    0.2018 H         1 <0>         0.0986
     38 H3         -0.3647    1.8898   -0.9570 H         1 <0>         0.0944
     39 H4         -0.6925    1.8757    0.7925 H         1 <0>         0.0826
     40 H5          1.3135   -2.6029   -1.2879 H         1 <0>         0.1035
     41 H6          2.6379   -1.4147   -1.0962 H         1 <0>         0.1271
     42 H7          3.1760   -4.0863    1.2766 H         1 <0>         0.1299
     43 H8          3.3777   -6.4148    2.0726 H         1 <0>         0.1264
     44 H9          1.4227   -7.7342    2.6620 H         1 <0>         0.1255
     45 H10        -0.8619   -6.8015    2.4775 H         1 <0>         0.1518
     46 H11        -1.9125    1.9655   -1.1544 H         1 <0>         0.1356
     47 H12        -4.2479    2.6877   -1.5068 H         1 <0>         0.1246
     48 H13        -6.1261    1.3105   -0.8104 H         1 <0>         0.1240
     49 H14        -5.7761   -0.8897    0.2698 H         1 <0>         0.1343
     50 H15        -5.5393   -5.6148    2.3469 H         1 <0>         0.4267
     51 H16        -5.4595   -3.0369    2.1901 H         1 <0>         0.1001
     52 H17        -5.5003   -3.7534    0.5532 H         1 <0>         0.0997
     53 H18        -0.8686   -1.6093   -5.4213 H         1 <0>         0.1065
     54 H19        -1.3964   -2.6657   -4.0895 H         1 <0>         0.0617
     55 H20        -2.0894   -1.0351   -4.2601 H         1 <0>         0.0644
     56 H21         1.8396    0.2451   -2.7461 H         1 <0>         0.3986
@<TRIPOS>BOND
     1    1    2 1
     2    1   37 1
     3    1   38 1
     4    1   39 1
     5    2    7 1
     6    2   18 1
     7    2    3 1
     8    3    4 1
     9    3   32 1
    10    3   36 1
    11    4    5 1
    12    4   40 1
    13    4   41 1
    14    5    6 1
    15    5    7 1
    16    5    8 1
    17    8   16 1
    18    8    9 1
    19    9   14 ar
    20    9   10 ar
    21   10   11 ar
    22   10   42 1
    23   11   12 ar
    24   11   43 1
    25   12   13 ar
    26   12   44 1
    27   13   14 ar
    28   13   45 1
    29   14   15 1
    30   15   27 ar
    31   15   16 ar
    32   16   17 ar
    33   17   25 ar
    34   17   18 1
    35   18   19 1
    36   19   24 ar
    37   19   20 ar
    38   20   21 ar
    39   20   46 1
    40   21   22 ar
    41   21   47 1
    42   22   23 ar
    43   22   48 1
    44   23   24 ar
    45   23   49 1
    46   24   25 1
    47   25   26 ar
    48   26   31 1
    49   26   27 ar
    50   27   28 1
    51   28   29 2
    52   28   30 am
    53   30   31 1
    54   30   50 1
    55   31   51 1
    56   31   52 1
    57   32   33 2
    58   32   34 1
    59   34   35 1
    60   35   53 1
    61   35   54 1
    62   35   55 1
    63   36   56 1
