@<TRIPOS>MOLECULE
ZINC12113475
   41    44     0     0     0
SMALL
USER_CHARGES

@<TRIPOS>ATOM
      1 C1         -0.0184    1.5028    0.0103 C.3       1 <0>        -0.0728
      2 C2          0.0021   -0.0041    0.0020 C.2       1 <0>        -0.1081
      3 C3         -1.0390   -0.8627    0.0018 C.2       1 <0>        -0.1536
      4 C4         -0.8103   -2.2475   -0.0072 C.2       1 <0>         0.0724
      5 C5          0.5269   -2.6402   -0.0155 C.2       1 <0>        -0.1727
      6 S1          1.4093   -1.1020   -0.0179 S.3       1 <0>         0.1124
      7 C6          0.5832   -4.0848   -0.0237 C.2       1 <0>        -0.0827
      8 C7          1.6301   -5.0379   -0.0333 C.2       1 <0>         0.1470
      9 N1          1.3592   -6.3113   -0.0391 N.2       1 <0>        -0.2432
     10 N2          0.0407   -6.7753   -0.0356 N.am      1 <0>        -0.4086
     11 C8         -0.9970   -5.9152   -0.0260 C.2       1 <0>         0.5453
     12 O1         -2.1437   -6.3339   -0.0227 O.2       1 <0>        -0.5372
     13 C9         -0.7465   -4.5264   -0.0200 C.2       1 <0>         0.0412
     14 N3         -1.5657   -3.4239   -0.0105 N.pl3     1 <0>        -0.4039
     15 C10        -3.0298   -3.4739   -0.0042 C.3       1 <0>         0.0644
     16 C11        -0.2172   -8.2175   -0.0429 C.3       1 <0>         0.1793
     17 C12        -0.3123   -8.7036   -1.4661 C.ar      1 <0>        -0.1563
     18 C13        -1.5343   -8.7101   -2.1130 C.ar      1 <0>        -0.0531
     19 C14        -1.6242   -9.1556   -3.4175 C.ar      1 <0>        -0.1582
     20 C15        -0.4870   -9.5963   -4.0787 C.ar      1 <0>         0.1371
     21 C16         0.7380   -9.5884   -3.4276 C.ar      1 <0>        -0.2145
     22 C17         0.8235   -9.1370   -2.1248 C.ar      1 <0>        -0.0499
     23 O2         -0.5730  -10.0355   -5.3619 O.3       1 <0>        -0.3174
     24 C18         0.6384  -10.4744   -5.9799 C.3       1 <0>         0.0262
     25 H1          1.0042    1.8801    0.0026 H         1 <0>         0.0795
     26 H2         -0.5455    1.8639   -0.8728 H         1 <0>         0.0860
     27 H3         -0.5286    1.8543    0.9071 H         1 <0>         0.0862
     28 H4         -2.0502   -0.4836    0.0089 H         1 <0>         0.1364
     29 H5          2.6582   -4.7071   -0.0362 H         1 <0>         0.1934
     30 H6         -3.3975   -3.4809   -1.0303 H         1 <0>         0.0806
     31 H7         -3.3603   -4.3785    0.5063 H         1 <0>         0.1025
     32 H8         -3.4210   -2.5996    0.5159 H         1 <0>         0.0879
     33 H9          0.5974   -8.7347    0.4641 H         1 <0>         0.1051
     34 H10        -1.1547   -8.4215    0.4742 H         1 <0>         0.1071
     35 H11        -2.4193   -8.3669   -1.5978 H         1 <0>         0.1358
     36 H12        -2.5791   -9.1612   -3.9221 H         1 <0>         0.1315
     37 H13         1.6247   -9.9310   -3.9402 H         1 <0>         0.1301
     38 H14         1.7777   -9.1265   -1.6189 H         1 <0>         0.1299
     39 H15         0.4296  -10.7979   -6.9996 H         1 <0>         0.1015
     40 H16         1.3549   -9.6532   -5.9988 H         1 <0>         0.0561
     41 H17         1.0548  -11.3069   -5.4127 H         1 <0>         0.0571
@<TRIPOS>BOND
     1    1    2 1
     2    1   25 1
     3    1   26 1
     4    1   27 1
     5    2    6 1
     6    2    3 2
     7    3    4 1
     8    3   28 1
     9    4   14 1
    10    4    5 2
    11    5    6 1
    12    5    7 1
    13    7   13 2
    14    7    8 1
    15    8    9 2
    16    8   29 1
    17    9   10 1
    18   10   11 am
    19   10   16 1
    20   11   12 2
    21   11   13 1
    22   13   14 1
    23   14   15 1
    24   15   30 1
    25   15   31 1
    26   15   32 1
    27   16   17 1
    28   16   33 1
    29   16   34 1
    30   17   22 ar
    31   17   18 ar
    32   18   19 ar
    33   18   35 1
    34   19   20 ar
    35   19   36 1
    36   20   21 ar
    37   20   23 1
    38   21   22 ar
    39   21   37 1
    40   22   38 1
    41   23   24 1
    42   24   39 1
    43   24   40 1
    44   24   41 1
@<TRIPOS>MOLECULE
ZINC36382858
   43    46     0     0     0
SMALL
USER_CHARGES

@<TRIPOS>ATOM
      1 C1         -0.0178    1.4608    0.0101 C.3       1 <0>         0.0614
      2 N1          0.0021   -0.0041    0.0020 N.pl3     1 <0>        -0.4009
      3 C2          0.0079   -0.7928   -1.1524 C.2       1 <0>         0.0430
      4 C3         -0.0009   -0.6040   -2.5431 C.2       1 <0>        -0.0431
      5 C4          0.0092   -1.6692   -3.3716 C.2       1 <0>        -0.5043
      6 S1          0.0331   -3.0443   -2.2337 S.3       1 <0>         0.1971
      7 C5          0.0277   -2.1181   -0.7215 C.2       1 <0>        -0.1530
      8 C6          0.0335   -2.1329    0.7241 C.2       1 <0>        -0.0897
      9 C7          0.0235   -0.7912    1.1275 C.2       1 <0>         0.0573
     10 C8          0.0322   -0.5011    2.5085 C.2       1 <0>         0.5446
     11 O1          0.0197    0.6570    2.8943 O.2       1 <0>        -0.5317
     12 N2          0.0540   -1.5136    3.3979 N.am      1 <0>        -0.4075
     13 N3          0.0681   -2.8447    2.9718 N.2       1 <0>        -0.2390
     14 C9          0.0512   -3.1521    1.7067 C.2       1 <0>         0.1491
     15 C10         0.0636   -1.2145    4.8320 C.3       1 <0>         0.1750
     16 C11        -1.3538   -1.1308    5.3372 C.ar      1 <0>        -0.0800
     17 C12        -2.0233    0.0790    5.3191 C.ar      1 <0>        -0.1313
     18 C13        -3.3235    0.1591    5.7818 C.ar      1 <0>        -0.0853
     19 C14        -3.9572   -0.9700    6.2640 C.ar      1 <0>        -0.1983
     20 C15        -3.2878   -2.1848    6.2832 C.ar      1 <0>         0.1216
     21 C16        -1.9849   -2.2637    5.8126 C.ar      1 <0>        -0.1231
     22 O2         -3.9089   -3.2968    6.7570 O.3       1 <0>        -0.3163
     23 C17        -5.2521   -3.1423    7.2196 C.3       1 <0>         0.0268
     24 S2          0.0005   -1.6959   -5.1334 S.o       1 <0>         1.3878
     25 O3         -0.5921   -0.4555   -5.4931 O.2       1 <0>        -0.8403
     26 C18         1.7583   -1.6787   -5.5812 C.3       1 <0>        -0.5011
     27 H1          1.0048    1.8381    0.0023 H         1 <0>         0.0830
     28 H2         -0.5450    1.8219   -0.8730 H         1 <0>         0.0892
     29 H3         -0.5280    1.8123    0.9069 H         1 <0>         0.1051
     30 H4         -0.0162    0.3958   -2.9511 H         1 <0>         0.1372
     31 H5          0.0643   -4.1891    1.4054 H         1 <0>         0.1967
     32 H6          0.5930   -2.0047    5.3644 H         1 <0>         0.1097
     33 H7          0.5665   -0.2624    5.0013 H         1 <0>         0.1111
     34 H8         -1.5294    0.9629    4.9432 H         1 <0>         0.1306
     35 H9         -3.8443    1.1051    5.7667 H         1 <0>         0.1264
     36 H10        -4.9728   -0.9068    6.6261 H         1 <0>         0.1288
     37 H11        -1.4632   -3.2093    5.8220 H         1 <0>         0.1358
     38 H12        -5.2738   -2.4233    8.0386 H         1 <0>         0.0559
     39 H13        -5.8784   -2.7823    6.4034 H         1 <0>         0.0550
     40 H14        -5.6286   -4.1034    7.5698 H         1 <0>         0.1019
     41 H15         2.2492   -2.5558   -5.1596 H         1 <0>         0.1172
     42 H16         1.8568   -1.6938   -6.6667 H         1 <0>         0.1130
     43 H17         2.2250   -0.7762   -5.1865 H         1 <0>         0.0844
@<TRIPOS>BOND
     1    1    2 1
     2    1   27 1
     3    1   28 1
     4    1   29 1
     5    2    9 1
     6    2    3 1
     7    3    7 2
     8    3    4 1
     9    4    5 2
    10    4   30 1
    11    5    6 1
    12    5   24 1
    13    6    7 1
    14    7    8 1
    15    8   14 1
    16    8    9 2
    17    9   10 1
    18   10   11 2
    19   10   12 am
    20   12   13 1
    21   12   15 1
    22   13   14 2
    23   14   31 1
    24   15   16 1
    25   15   32 1
    26   15   33 1
    27   16   21 ar
    28   16   17 ar
    29   17   18 ar
    30   17   34 1
    31   18   19 ar
    32   18   35 1
    33   19   20 ar
    34   19   36 1
    35   20   21 ar
    36   20   22 1
    37   21   37 1
    38   22   23 1
    39   23   38 1
    40   23   39 1
    41   23   40 1
    42   24   25 2
    43   24   26 1
    44   26   41 1
    45   26   42 1
    46   26   43 1
@<TRIPOS>MOLECULE
ZINC38143010
   43    46     0     0     0
SMALL
USER_CHARGES

@<TRIPOS>ATOM
      1 C1         -0.0178    1.4608    0.0101 C.3       1 <0>         0.0621
      2 N1          0.0021   -0.0041    0.0020 N.pl3     1 <0>        -0.4016
      3 C2          0.0079   -0.7928   -1.1524 C.2       1 <0>         0.0417
      4 C3         -0.0009   -0.6040   -2.5431 C.2       1 <0>        -0.0347
      5 C4          0.0092   -1.6692   -3.3716 C.2       1 <0>        -0.4991
      6 S1          0.0331   -3.0443   -2.2337 S.3       1 <0>         0.1706
      7 C5          0.0277   -2.1181   -0.7215 C.2       1 <0>        -0.1529
      8 C6          0.0335   -2.1329    0.7241 C.2       1 <0>        -0.0914
      9 C7          0.0235   -0.7912    1.1275 C.2       1 <0>         0.0582
     10 C8          0.0322   -0.5011    2.5085 C.2       1 <0>         0.5448
     11 O1          0.0197    0.6570    2.8943 O.2       1 <0>        -0.5322
     12 N2          0.0540   -1.5136    3.3979 N.am      1 <0>        -0.4076
     13 N3          0.0681   -2.8447    2.9718 N.2       1 <0>        -0.2393
     14 C9          0.0512   -3.1521    1.7067 C.2       1 <0>         0.1485
     15 C10         0.0636   -1.2145    4.8320 C.3       1 <0>         0.1750
     16 C11        -1.3538   -1.1308    5.3372 C.ar      1 <0>        -0.0799
     17 C12        -2.0233    0.0790    5.3191 C.ar      1 <0>        -0.1310
     18 C13        -3.3235    0.1591    5.7818 C.ar      1 <0>        -0.0853
     19 C14        -3.9572   -0.9700    6.2640 C.ar      1 <0>        -0.1984
     20 C15        -3.2878   -2.1848    6.2832 C.ar      1 <0>         0.1216
     21 C16        -1.9849   -2.2637    5.8126 C.ar      1 <0>        -0.1234
     22 O2         -3.9089   -3.2968    6.7570 O.3       1 <0>        -0.3164
     23 C17        -5.2521   -3.1423    7.2196 C.3       1 <0>         0.0269
     24 S2          0.0005   -1.6959   -5.1334 S.o       1 <0>         1.3902
     25 O3         -0.5579   -2.9624   -5.4552 O.2       1 <0>        -0.8363
     26 C18         1.7583   -1.6787   -5.5812 C.3       1 <0>        -0.5027
     27 H1          1.0048    1.8381    0.0023 H         1 <0>         0.0831
     28 H2         -0.5450    1.8219   -0.8730 H         1 <0>         0.0914
     29 H3         -0.5280    1.8123    0.9069 H         1 <0>         0.1033
     30 H4         -0.0162    0.3958   -2.9511 H         1 <0>         0.1504
     31 H5          0.0643   -4.1891    1.4054 H         1 <0>         0.1948
     32 H6          0.5930   -2.0047    5.3644 H         1 <0>         0.1091
     33 H7          0.5665   -0.2624    5.0013 H         1 <0>         0.1115
     34 H8         -1.5294    0.9629    4.9432 H         1 <0>         0.1311
     35 H9         -3.8443    1.1051    5.7667 H         1 <0>         0.1266
     36 H10        -4.9728   -0.9068    6.6261 H         1 <0>         0.1288
     37 H11        -1.4632   -3.2093    5.8220 H         1 <0>         0.1354
     38 H12        -5.2738   -2.4233    8.0386 H         1 <0>         0.0560
     39 H13        -5.8784   -2.7823    6.4034 H         1 <0>         0.0550
     40 H14        -5.6286   -4.1034    7.5698 H         1 <0>         0.1018
     41 H15         2.2492   -2.5558   -5.1596 H         1 <0>         0.0870
     42 H16         1.8568   -1.6938   -6.6667 H         1 <0>         0.1126
     43 H17         2.2250   -0.7762   -5.1865 H         1 <0>         0.1149
@<TRIPOS>BOND
     1    1    2 1
     2    1   27 1
     3    1   28 1
     4    1   29 1
     5    2    9 1
     6    2    3 1
     7    3    7 2
     8    3    4 1
     9    4    5 2
    10    4   30 1
    11    5    6 1
    12    5   24 1
    13    6    7 1
    14    7    8 1
    15    8   14 1
    16    8    9 2
    17    9   10 1
    18   10   11 2
    19   10   12 am
    20   12   13 1
    21   12   15 1
    22   13   14 2
    23   14   31 1
    24   15   16 1
    25   15   32 1
    26   15   33 1
    27   16   21 ar
    28   16   17 ar
    29   17   18 ar
    30   17   34 1
    31   18   19 ar
    32   18   35 1
    33   19   20 ar
    34   19   36 1
    35   20   21 ar
    36   20   22 1
    37   21   37 1
    38   22   23 1
    39   23   38 1
    40   23   39 1
    41   23   40 1
    42   24   25 2
    43   24   26 1
    44   26   41 1
    45   26   42 1
    46   26   43 1
@<TRIPOS>MOLECULE
ZINC36382859
   41    44     0     0     0
SMALL
USER_CHARGES

@<TRIPOS>ATOM
      1 C1         -0.0178    1.4608    0.0101 C.3       1 <0>         0.0613
      2 N1          0.0021   -0.0041    0.0020 N.pl3     1 <0>        -0.4009
      3 C2          0.0079   -0.7928   -1.1524 C.2       1 <0>         0.0424
      4 C3         -0.0009   -0.6040   -2.5431 C.2       1 <0>        -0.0425
      5 C4          0.0092   -1.6692   -3.3716 C.2       1 <0>        -0.5047
      6 S1          0.0331   -3.0443   -2.2337 S.3       1 <0>         0.1957
      7 C5          0.0277   -2.1181   -0.7215 C.2       1 <0>        -0.1529
      8 C6          0.0335   -2.1329    0.7241 C.2       1 <0>        -0.0905
      9 C7          0.0235   -0.7912    1.1275 C.2       1 <0>         0.0583
     10 C8          0.0322   -0.5011    2.5085 C.2       1 <0>         0.5440
     11 O1          0.0197    0.6570    2.8943 O.2       1 <0>        -0.5305
     12 N2          0.0540   -1.5136    3.3979 N.am      1 <0>        -0.4058
     13 N3          0.0681   -2.8447    2.9718 N.2       1 <0>        -0.2393
     14 C9          0.0512   -3.1521    1.7067 C.2       1 <0>         0.1473
     15 C10         0.0636   -1.2145    4.8320 C.3       1 <0>         0.1738
     16 C11        -1.3538   -1.1308    5.3372 C.ar      1 <0>        -0.0707
     17 C12        -2.0232    0.0793    5.3190 C.ar      1 <0>        -0.1527
     18 C13        -3.3235    0.1606    5.7820 C.ar      1 <0>        -0.0771
     19 C14        -3.9585   -0.9674    6.2639 C.ar      1 <0>        -0.1889
     20 C15        -3.2893   -2.1843    6.2831 C.ar      1 <0>         0.2097
     21 C16        -1.9845   -2.2635    5.8124 C.ar      1 <0>        -0.1696
     22 N4         -3.9284   -3.3269    6.7698 N.pl3     1 <0>        -0.8791
     23 S2          0.0005   -1.6959   -5.1334 S.o       1 <0>         1.3878
     24 O2         -0.5921   -0.4555   -5.4931 O.2       1 <0>        -0.8403
     25 C17         1.7583   -1.6787   -5.5812 C.3       1 <0>        -0.5011
     26 H1          1.0048    1.8381    0.0023 H         1 <0>         0.0829
     27 H2         -0.5450    1.8219   -0.8730 H         1 <0>         0.0891
     28 H3         -0.5280    1.8123    0.9069 H         1 <0>         0.1055
     29 H4         -0.0162    0.3958   -2.9511 H         1 <0>         0.1372
     30 H5          0.0643   -4.1891    1.4054 H         1 <0>         0.1956
     31 H6          0.5930   -2.0047    5.3644 H         1 <0>         0.1060
     32 H7          0.5665   -0.2624    5.0013 H         1 <0>         0.1086
     33 H8         -1.5290    0.9628    4.9427 H         1 <0>         0.1249
     34 H9         -3.8431    1.1073    5.7671 H         1 <0>         0.1219
     35 H10        -4.9740   -0.9031    6.6257 H         1 <0>         0.1196
     36 H11        -1.4627   -3.2091    5.8222 H         1 <0>         0.1241
     37 H12        -4.8406   -3.2711    7.0949 H         1 <0>         0.3982
     38 H13        -3.4600   -4.1763    6.7827 H         1 <0>         0.3985
     39 H14         2.2492   -2.5558   -5.1596 H         1 <0>         0.1171
     40 H15         1.8568   -1.6938   -6.6667 H         1 <0>         0.1129
     41 H16         2.2250   -0.7762   -5.1865 H         1 <0>         0.0844
@<TRIPOS>BOND
     1    1    2 1
     2    1   26 1
     3    1   27 1
     4    1   28 1
     5    2    9 1
     6    2    3 1
     7    3    7 2
     8    3    4 1
     9    4    5 2
    10    4   29 1
    11    5    6 1
    12    5   23 1
    13    6    7 1
    14    7    8 1
    15    8   14 1
    16    8    9 2
    17    9   10 1
    18   10   11 2
    19   10   12 am
    20   12   13 1
    21   12   15 1
    22   13   14 2
    23   14   30 1
    24   15   16 1
    25   15   31 1
    26   15   32 1
    27   16   21 ar
    28   16   17 ar
    29   17   18 ar
    30   17   33 1
    31   18   19 ar
    32   18   34 1
    33   19   20 ar
    34   19   35 1
    35   20   21 ar
    36   20   22 1
    37   21   36 1
    38   22   37 1
    39   22   38 1
    40   23   24 2
    41   23   25 1
    42   25   39 1
    43   25   40 1
    44   25   41 1
@<TRIPOS>MOLECULE
ZINC38143011
   41    44     0     0     0
SMALL
USER_CHARGES

@<TRIPOS>ATOM
      1 C1         -0.0178    1.4608    0.0101 C.3       1 <0>         0.0620
      2 N1          0.0021   -0.0041    0.0020 N.pl3     1 <0>        -0.4016
      3 C2          0.0079   -0.7928   -1.1524 C.2       1 <0>         0.0411
      4 C3         -0.0009   -0.6040   -2.5431 C.2       1 <0>        -0.0342
      5 C4          0.0092   -1.6692   -3.3716 C.2       1 <0>        -0.4995
      6 S1          0.0331   -3.0443   -2.2337 S.3       1 <0>         0.1691
      7 C5          0.0277   -2.1181   -0.7215 C.2       1 <0>        -0.1528
      8 C6          0.0335   -2.1329    0.7241 C.2       1 <0>        -0.0922
      9 C7          0.0235   -0.7912    1.1275 C.2       1 <0>         0.0593
     10 C8          0.0322   -0.5011    2.5085 C.2       1 <0>         0.5442
     11 O1          0.0197    0.6570    2.8943 O.2       1 <0>        -0.5310
     12 N2          0.0540   -1.5136    3.3979 N.am      1 <0>        -0.4058
     13 N3          0.0681   -2.8447    2.9718 N.2       1 <0>        -0.2397
     14 C9          0.0512   -3.1521    1.7067 C.2       1 <0>         0.1467
     15 C10         0.0636   -1.2145    4.8320 C.3       1 <0>         0.1738
     16 C11        -1.3538   -1.1308    5.3372 C.ar      1 <0>        -0.0706
     17 C12        -2.0232    0.0793    5.3190 C.ar      1 <0>        -0.1525
     18 C13        -3.3235    0.1606    5.7820 C.ar      1 <0>        -0.0771
     19 C14        -3.9585   -0.9674    6.2639 C.ar      1 <0>        -0.1890
     20 C15        -3.2893   -2.1843    6.2831 C.ar      1 <0>         0.2097
     21 C16        -1.9845   -2.2635    5.8124 C.ar      1 <0>        -0.1699
     22 N4         -3.9284   -3.3269    6.7698 N.pl3     1 <0>        -0.8792
     23 S2          0.0005   -1.6959   -5.1334 S.o       1 <0>         1.3904
     24 O2         -0.5579   -2.9624   -5.4552 O.2       1 <0>        -0.8366
     25 C17         1.7583   -1.6787   -5.5812 C.3       1 <0>        -0.5027
     26 H1          1.0048    1.8381    0.0023 H         1 <0>         0.0829
     27 H2         -0.5450    1.8219   -0.8730 H         1 <0>         0.0913
     28 H3         -0.5280    1.8123    0.9069 H         1 <0>         0.1036
     29 H4         -0.0162    0.3958   -2.9511 H         1 <0>         0.1504
     30 H5          0.0643   -4.1891    1.4054 H         1 <0>         0.1937
     31 H6          0.5930   -2.0047    5.3644 H         1 <0>         0.1054
     32 H7          0.5665   -0.2624    5.0013 H         1 <0>         0.1090
     33 H8         -1.5290    0.9628    4.9427 H         1 <0>         0.1253
     34 H9         -3.8431    1.1073    5.7671 H         1 <0>         0.1221
     35 H10        -4.9740   -0.9031    6.6257 H         1 <0>         0.1196
     36 H11        -1.4627   -3.2091    5.8222 H         1 <0>         0.1237
     37 H12        -4.8406   -3.2711    7.0949 H         1 <0>         0.3982
     38 H13        -3.4600   -4.1763    6.7827 H         1 <0>         0.3985
     39 H14         2.2492   -2.5558   -5.1596 H         1 <0>         0.0869
     40 H15         1.8568   -1.6938   -6.6667 H         1 <0>         0.1125
     41 H16         2.2250   -0.7762   -5.1865 H         1 <0>         0.1149
@<TRIPOS>BOND
     1    1    2 1
     2    1   26 1
     3    1   27 1
     4    1   28 1
     5    2    9 1
     6    2    3 1
     7    3    7 2
     8    3    4 1
     9    4    5 2
    10    4   29 1
    11    5    6 1
    12    5   23 1
    13    6    7 1
    14    7    8 1
    15    8   14 1
    16    8    9 2
    17    9   10 1
    18   10   11 2
    19   10   12 am
    20   12   13 1
    21   12   15 1
    22   13   14 2
    23   14   30 1
    24   15   16 1
    25   15   31 1
    26   15   32 1
    27   16   21 ar
    28   16   17 ar
    29   17   18 ar
    30   17   33 1
    31   18   19 ar
    32   18   34 1
    33   19   20 ar
    34   19   35 1
    35   20   21 ar
    36   20   22 1
    37   21   36 1
    38   22   37 1
    39   22   38 1
    40   23   24 2
    41   23   25 1
    42   25   39 1
    43   25   40 1
    44   25   41 1
@<TRIPOS>MOLECULE
ZINC12113473
   37    40     0     0     0
SMALL
USER_CHARGES

@<TRIPOS>ATOM
      1 C1         -0.0184    1.5028    0.0103 C.3       1 <0>        -0.0732
      2 C2          0.0021   -0.0041    0.0020 C.2       1 <0>        -0.1071
      3 C3         -1.0390   -0.8627    0.0018 C.2       1 <0>        -0.1543
      4 C4         -0.8103   -2.2475   -0.0072 C.2       1 <0>         0.0732
      5 C5          0.5269   -2.6402   -0.0155 C.2       1 <0>        -0.1728
      6 S1          1.4093   -1.1020   -0.0179 S.3       1 <0>         0.1139
      7 C6          0.5832   -4.0848   -0.0237 C.2       1 <0>        -0.0827
      8 C7          1.6301   -5.0379   -0.0333 C.2       1 <0>         0.1498
      9 N1          1.3592   -6.3113   -0.0391 N.2       1 <0>        -0.2440
     10 N2          0.0407   -6.7753   -0.0356 N.am      1 <0>        -0.4104
     11 C8         -0.9970   -5.9152   -0.0260 C.2       1 <0>         0.5460
     12 O1         -2.1437   -6.3339   -0.0227 O.2       1 <0>        -0.5371
     13 C9         -0.7465   -4.5264   -0.0200 C.2       1 <0>         0.0405
     14 N3         -1.5657   -3.4239   -0.0105 N.pl3     1 <0>        -0.4036
     15 C10        -3.0298   -3.4739   -0.0042 C.3       1 <0>         0.0642
     16 C11        -0.2172   -8.2175   -0.0429 C.3       1 <0>         0.1761
     17 C12        -0.3123   -8.7036   -1.4661 C.ar      1 <0>        -0.1296
     18 C13        -1.5338   -8.7103   -2.1135 C.ar      1 <0>        -0.0642
     19 C14        -1.6222   -9.1554   -3.4188 C.ar      1 <0>        -0.1599
     20 C15        -0.4867   -9.5948   -4.0783 C.ar      1 <0>         0.1083
     21 C16         0.7361   -9.5876   -3.4289 C.ar      1 <0>        -0.1596
     22 C17         0.8229   -9.1371   -2.1253 C.ar      1 <0>        -0.0616
     23 F1         -0.5720  -10.0305   -5.3542 F         1 <0>        -0.1380
     24 H1          1.0042    1.8801    0.0026 H         1 <0>         0.0797
     25 H2         -0.5455    1.8639   -0.8728 H         1 <0>         0.0863
     26 H3         -0.5286    1.8543    0.9071 H         1 <0>         0.0864
     27 H4         -2.0502   -0.4836    0.0089 H         1 <0>         0.1366
     28 H5          2.6582   -4.7071   -0.0362 H         1 <0>         0.1945
     29 H6         -3.3975   -3.4809   -1.0303 H         1 <0>         0.0807
     30 H7         -3.3603   -4.3785    0.5063 H         1 <0>         0.1024
     31 H8         -3.4210   -2.5996    0.5159 H         1 <0>         0.0882
     32 H9          0.5974   -8.7347    0.4641 H         1 <0>         0.1089
     33 H10        -1.1547   -8.4215    0.4742 H         1 <0>         0.1098
     34 H11        -2.4194   -8.3678   -1.5988 H         1 <0>         0.1394
     35 H12        -2.5766   -9.1609   -3.9243 H         1 <0>         0.1367
     36 H13         1.6224   -9.9304   -3.9422 H         1 <0>         0.1382
     37 H14         1.7774   -9.1272   -1.6200 H         1 <0>         0.1383
@<TRIPOS>BOND
     1    1    2 1
     2    1   24 1
     3    1   25 1
     4    1   26 1
     5    2    6 1
     6    2    3 2
     7    3    4 1
     8    3   27 1
     9    4   14 1
    10    4    5 2
    11    5    6 1
    12    5    7 1
    13    7   13 2
    14    7    8 1
    15    8    9 2
    16    8   28 1
    17    9   10 1
    18   10   11 am
    19   10   16 1
    20   11   12 2
    21   11   13 1
    22   13   14 1
    23   14   15 1
    24   15   29 1
    25   15   30 1
    26   15   31 1
    27   16   17 1
    28   16   32 1
    29   16   33 1
    30   17   22 ar
    31   17   18 ar
    32   18   19 ar
    33   18   34 1
    34   19   20 ar
    35   19   35 1
    36   20   21 ar
    37   20   23 1
    38   21   22 ar
    39   21   36 1
    40   22   37 1
@<TRIPOS>MOLECULE
ZINC01380276
   52    55     0     0     0
SMALL
USER_CHARGES

@<TRIPOS>ATOM
      1 C1         -0.0173    1.4248    0.0099 C.3       1 <0>         0.0220
      2 O1          0.0021   -0.0041    0.0020 O.3       1 <0>        -0.3105
      3 C2          0.6058   -0.6071   -1.0557 C.ar      1 <0>         0.1838
      4 C3          1.1730    0.1607   -2.0624 C.ar      1 <0>        -0.2291
      5 C4          1.7865   -0.4547   -3.1363 C.ar      1 <0>         0.0217
      6 C5          1.8352   -1.8346   -3.2086 C.ar      1 <0>        -0.7170
      7 C6          1.2702   -2.6021   -2.2068 C.ar      1 <0>         0.0187
      8 C7          0.6609   -1.9915   -1.1277 C.ar      1 <0>        -0.1711
      9 S1          2.6179   -2.6165   -4.5800 S.o2      1 <0>         2.6928
     10 O2          2.0512   -3.9154   -4.6847 O.2       1 <0>        -0.9513
     11 O3          2.5875   -1.6833   -5.6512 O.2       1 <0>        -0.9522
     12 N1          4.2112   -2.8262   -4.1801 N.pl3     1 <0>        -0.9953
     13 C8          5.2022   -1.7846   -4.4848 C.3       1 <0>         0.1069
     14 C9          5.9273   -1.4036   -3.1882 C.3       1 <0>         0.0999
     15 N2          6.3755   -2.6344   -2.5217 N.pl3     1 <0>        -0.9939
     16 C10         5.3845   -3.6760   -2.2170 C.3       1 <0>         0.0995
     17 C11         4.6584   -4.0546   -3.5086 C.3       1 <0>         0.1068
     18 S2          7.9687   -2.8441   -2.1219 S.o2      1 <0>         2.6941
     19 O4          8.1850   -4.2459   -2.0364 O.2       1 <0>        -0.9477
     20 O5          8.7194   -2.0092   -2.9929 O.2       1 <0>        -0.9473
     21 C12         8.1868   -2.2009   -0.4960 C.ar      1 <0>        -0.6780
     22 C13         8.5237   -0.8718   -0.3191 C.ar      1 <0>        -0.0150
     23 C14         8.6969   -0.3640    0.9545 C.ar      1 <0>        -0.1338
     24 C15         8.5318   -1.1866    2.0589 C.ar      1 <0>         0.1080
     25 C16         8.1907   -2.5221    1.8812 C.ar      1 <0>         0.0310
     26 C17         8.0152   -3.0245    0.6004 C.ar      1 <0>        -0.0123
     27 O6          8.0163   -3.3447    2.9514 O.3       1 <0>        -0.3025
     28 C18         8.5579   -2.9002    4.2000 C.3       1 <0>         0.0185
     29 C19         8.1685   -1.4288    4.3962 C.3       1 <0>         0.0174
     30 O7          8.7088   -0.6730    3.3069 O.3       1 <0>        -0.3011
     31 H1          1.0053    1.8021    0.0021 H         1 <0>         0.0605
     32 H2         -0.5445    1.7859   -0.8732 H         1 <0>         0.0616
     33 H3         -0.5275    1.7763    0.9067 H         1 <0>         0.1064
     34 H4          1.1347    1.2385   -2.0068 H         1 <0>         0.1389
     35 H5          2.2283    0.1425   -3.9203 H         1 <0>         0.1429
     36 H6          1.3092   -3.6798   -2.2657 H         1 <0>         0.1472
     37 H7          0.2237   -2.5913   -0.3432 H         1 <0>         0.1418
     38 H8          5.9227   -2.1657   -5.2085 H         1 <0>         0.0880
     39 H9          4.6983   -0.9085   -4.8932 H         1 <0>         0.1062
     40 H10         6.7896   -0.7790   -3.4212 H         1 <0>         0.1091
     41 H11         5.2454   -0.8607   -2.5337 H         1 <0>         0.0781
     42 H12         5.8884   -4.5521   -1.8087 H         1 <0>         0.1095
     43 H13         4.6640   -3.2949   -1.4933 H         1 <0>         0.0784
     44 H14         3.7956   -4.6773   -3.2724 H         1 <0>         0.1071
     45 H15         5.3394   -4.6010   -4.1612 H         1 <0>         0.0878
     46 H16         8.6521   -0.2293   -1.1777 H         1 <0>         0.1505
     47 H17         8.9607    0.6745    1.0899 H         1 <0>         0.1468
     48 H18         7.7477   -4.0614    0.4596 H         1 <0>         0.1524
     49 H19         8.1486   -3.5003    5.0127 H         1 <0>         0.1290
     50 H20         9.6437   -2.9941    4.1838 H         1 <0>         0.0821
     51 H21         7.0827   -1.3341    4.4064 H         1 <0>         0.0833
     52 H22         8.5789   -1.0623    5.3372 H         1 <0>         0.1292
@<TRIPOS>BOND
     1    1    2 1
     2    1   31 1
     3    1   32 1
     4    1   33 1
     5    2    3 1
     6    3    8 ar
     7    3    4 ar
     8    4    5 ar
     9    4   34 1
    10    5    6 ar
    11    5   35 1
    12    6    7 ar
    13    6    9 1
    14    7    8 ar
    15    7   36 1
    16    8   37 1
    17    9   10 2
    18    9   11 2
    19    9   12 1
    20   12   17 1
    21   12   13 1
    22   13   14 1
    23   13   38 1
    24   13   39 1
    25   14   15 1
    26   14   40 1
    27   14   41 1
    28   15   16 1
    29   15   18 1
    30   16   17 1
    31   16   42 1
    32   16   43 1
    33   17   44 1
    34   17   45 1
    35   18   19 2
    36   18   20 2
    37   18   21 1
    38   21   26 ar
    39   21   22 ar
    40   22   23 ar
    41   22   46 1
    42   23   24 ar
    43   23   47 1
    44   24   30 1
    45   24   25 ar
    46   25   26 ar
    47   25   27 1
    48   26   48 1
    49   27   28 1
    50   28   29 1
    51   28   49 1
    52   28   50 1
    53   29   30 1
    54   29   51 1
    55   29   52 1
@<TRIPOS>MOLECULE
ZINC32794466
   46    48     0     0     0
SMALL
USER_CHARGES

@<TRIPOS>ATOM
      1 C1         -0.0173    1.4248    0.0099 C.3       1 <0>         0.0219
      2 O1          0.0021   -0.0041    0.0020 O.3       1 <0>        -0.3103
      3 C2          0.6058   -0.6071   -1.0557 C.ar      1 <0>         0.1839
      4 C3          1.1730    0.1607   -2.0624 C.ar      1 <0>        -0.2292
      5 C4          1.7865   -0.4547   -3.1363 C.ar      1 <0>         0.0216
      6 C5          1.8352   -1.8346   -3.2086 C.ar      1 <0>        -0.7173
      7 C6          1.2702   -2.6021   -2.2068 C.ar      1 <0>         0.0186
      8 C7          0.6609   -1.9915   -1.1277 C.ar      1 <0>        -0.1711
      9 S1          2.6179   -2.6165   -4.5800 S.o2      1 <0>         2.6926
     10 O2          2.0512   -3.9154   -4.6847 O.2       1 <0>        -0.9506
     11 O3          2.5875   -1.6833   -5.6512 O.2       1 <0>        -0.9517
     12 N1          4.2112   -2.8262   -4.1801 N.pl3     1 <0>        -0.9957
     13 C8          5.2022   -1.7846   -4.4848 C.3       1 <0>         0.1083
     14 C9          5.9273   -1.4036   -3.1882 C.3       1 <0>         0.0983
     15 N2          6.3755   -2.6344   -2.5217 N.pl3     1 <0>        -0.9899
     16 C10         5.3845   -3.6760   -2.2170 C.3       1 <0>         0.0979
     17 C11         4.6584   -4.0546   -3.5086 C.3       1 <0>         0.1079
     18 S2          7.9687   -2.8441   -2.1219 S.o2      1 <0>         2.6889
     19 O4          8.1850   -4.2459   -2.0364 O.2       1 <0>        -0.9323
     20 O5          8.7194   -2.0092   -2.9929 O.2       1 <0>        -0.9327
     21 C12         8.1868   -2.2009   -0.4960 C.ar      1 <0>        -0.7673
     22 C13         8.5241   -0.8704   -0.3169 C.ar      1 <0>         0.2261
     23 C14         8.6953   -0.3661    0.9613 C.ar      1 <0>        -0.1842
     24 C15         8.5294   -1.1906    2.0580 C.ar      1 <0>        -0.0050
     25 C16         8.1931   -2.5193    1.8804 C.ar      1 <0>        -0.1839
     26 C17         8.0154   -3.0243    0.6033 C.ar      1 <0>         0.2266
     27 F1          7.6807   -4.3217    0.4302 F         1 <0>        -0.1035
     28 F2          8.6867   -0.0643   -1.3888 F         1 <0>        -0.1040
     29 H1          1.0053    1.8021    0.0021 H         1 <0>         0.0605
     30 H2         -0.5445    1.7859   -0.8732 H         1 <0>         0.0616
     31 H3         -0.5275    1.7763    0.9067 H         1 <0>         0.1067
     32 H4          1.1347    1.2385   -2.0068 H         1 <0>         0.1391
     33 H5          2.2283    0.1425   -3.9203 H         1 <0>         0.1430
     34 H6          1.3092   -3.6798   -2.2657 H         1 <0>         0.1474
     35 H7          0.2237   -2.5913   -0.3432 H         1 <0>         0.1422
     36 H8          5.9227   -2.1657   -5.2085 H         1 <0>         0.0888
     37 H9          4.6983   -0.9085   -4.8932 H         1 <0>         0.1075
     38 H10         6.7896   -0.7790   -3.4212 H         1 <0>         0.1103
     39 H11         5.2454   -0.8607   -2.5337 H         1 <0>         0.0780
     40 H12         5.8884   -4.5521   -1.8087 H         1 <0>         0.1110
     41 H13         4.6640   -3.2949   -1.4933 H         1 <0>         0.0785
     42 H14         3.7956   -4.6773   -3.2724 H         1 <0>         0.1084
     43 H15         5.3394   -4.6010   -4.1612 H         1 <0>         0.0885
     44 H16         8.9588    0.6719    1.1012 H         1 <0>         0.1547
     45 H17         8.6631   -0.7964    3.0546 H         1 <0>         0.1551
     46 H18         8.0644   -3.1629    2.7381 H         1 <0>         0.1551
@<TRIPOS>BOND
     1    1    2 1
     2    1   29 1
     3    1   30 1
     4    1   31 1
     5    2    3 1
     6    3    8 ar
     7    3    4 ar
     8    4    5 ar
     9    4   32 1
    10    5    6 ar
    11    5   33 1
    12    6    7 ar
    13    6    9 1
    14    7    8 ar
    15    7   34 1
    16    8   35 1
    17    9   10 2
    18    9   11 2
    19    9   12 1
    20   12   17 1
    21   12   13 1
    22   13   14 1
    23   13   36 1
    24   13   37 1
    25   14   15 1
    26   14   38 1
    27   14   39 1
    28   15   16 1
    29   15   18 1
    30   16   17 1
    31   16   40 1
    32   16   41 1
    33   17   42 1
    34   17   43 1
    35   18   19 2
    36   18   20 2
    37   18   21 1
    38   21   26 ar
    39   21   22 ar
    40   22   23 ar
    41   22   28 1
    42   23   24 ar
    43   23   44 1
    44   24   25 ar
    45   24   45 1
    46   25   26 ar
    47   25   46 1
    48   26   27 1
@<TRIPOS>MOLECULE
ZINC13831825
   48    51     0     0     0
SMALL
USER_CHARGES

@<TRIPOS>ATOM
      1 C1         -0.0167    1.3803    0.0096 C.ar      1 <0>        -0.1816
      2 C2          1.1706    2.0882    0.0021 C.ar      1 <0>         0.0366
      3 C3          2.3774    1.4152   -0.0131 C.ar      1 <0>        -0.7326
      4 C4          2.3986    0.0305   -0.0212 C.ar      1 <0>         0.2278
      5 C5          1.2105   -0.6793   -0.0137 C.ar      1 <0>        -0.2103
      6 C6          0.0021   -0.0041    0.0020 C.ar      1 <0>         0.1880
      7 F1         -1.1584   -0.6957    0.0099 F         1 <0>        -0.1182
      8 F2          3.5786   -0.6272   -0.0369 F         1 <0>        -0.1120
      9 S1          3.8898    2.3192   -0.0226 S.o2      1 <0>         2.6921
     10 O1          4.6881    1.7642   -1.0589 O.2       1 <0>        -0.9365
     11 O2          3.5402    3.6960    0.0152 O.2       1 <0>        -0.9422
     12 N1          4.6667    1.9889    1.4020 N.pl3     1 <0>        -0.9914
     13 C7          4.4299    2.8172    2.5926 C.3       1 <0>         0.1061
     14 C8          3.9846    1.9058    3.7430 C.3       1 <0>         0.0992
     15 N2          4.9228    0.7787    3.8394 N.pl3     1 <0>        -0.9947
     16 C9          5.1596   -0.0496    2.6487 C.3       1 <0>         0.1000
     17 C10         5.6007    0.8584    1.4999 C.3       1 <0>         0.1028
     18 S2          5.6997    0.4484    5.2640 S.o2      1 <0>         2.6939
     19 O3          6.8823   -0.2635    4.9262 O.2       1 <0>        -0.9469
     20 O4          5.7259    1.6617    6.0032 O.2       1 <0>        -0.9465
     21 C11         4.6797   -0.6694    6.1667 C.ar      1 <0>        -0.6785
     22 C12         3.7201   -0.1810    7.0340 C.ar      1 <0>        -0.0150
     23 C13         2.9191   -1.0545    7.7448 C.ar      1 <0>        -0.1336
     24 C14         3.0750   -2.4239    7.5887 C.ar      1 <0>         0.1083
     25 C15         4.0378   -2.9148    6.7150 C.ar      1 <0>         0.0309
     26 C16         4.8363   -2.0325    6.0022 C.ar      1 <0>        -0.0124
     27 O5          4.2022   -4.2546    6.5410 O.3       1 <0>        -0.3025
     28 C17         3.6369   -5.1078    7.5422 C.3       1 <0>         0.0184
     29 C18         2.2100   -4.6250    7.8354 C.3       1 <0>         0.0174
     30 O6          2.2808   -3.2718    8.2978 O.3       1 <0>        -0.3009
     31 H1         -0.9593    1.9073    0.0260 H         1 <0>         0.1564
     32 H2          1.1550    3.1681    0.0077 H         1 <0>         0.1662
     33 H3          1.2261   -1.7592   -0.0203 H         1 <0>         0.1600
     34 H4          5.3501    3.3320    2.8690 H         1 <0>         0.0913
     35 H5          3.6488    3.5473    2.3809 H         1 <0>         0.1084
     36 H6          3.9897    2.4670    4.6774 H         1 <0>         0.1113
     37 H7          2.9808    1.5302    3.5445 H         1 <0>         0.0774
     38 H8          5.9408   -0.7797    2.8605 H         1 <0>         0.1116
     39 H9          4.2395   -0.5644    2.3724 H         1 <0>         0.0757
     40 H10         5.5925    0.2952    0.5667 H         1 <0>         0.1106
     41 H11         6.6061    1.2306    1.6967 H         1 <0>         0.0913
     42 H12         3.5967    0.8848    7.1566 H         1 <0>         0.1508
     43 H13         2.1707   -0.6705    8.4221 H         1 <0>         0.1471
     44 H14         5.5836   -2.4113    5.3208 H         1 <0>         0.1524
     45 H15         3.6098   -6.1346    7.1775 H         1 <0>         0.1291
     46 H16         4.2366   -5.0556    8.4509 H         1 <0>         0.0822
     47 H17         1.6119   -4.6715    6.9253 H         1 <0>         0.0834
     48 H18         1.7600   -5.2531    8.6042 H         1 <0>         0.1294
@<TRIPOS>BOND
     1    1    6 ar
     2    1    2 ar
     3    1   31 1
     4    2    3 ar
     5    2   32 1
     6    3    4 ar
     7    3    9 1
     8    4    5 ar
     9    4    8 1
    10    5    6 ar
    11    5   33 1
    12    6    7 1
    13    9   10 2
    14    9   11 2
    15    9   12 1
    16   12   17 1
    17   12   13 1
    18   13   14 1
    19   13   34 1
    20   13   35 1
    21   14   15 1
    22   14   36 1
    23   14   37 1
    24   15   16 1
    25   15   18 1
    26   16   17 1
    27   16   38 1
    28   16   39 1
    29   17   40 1
    30   17   41 1
    31   18   19 2
    32   18   20 2
    33   18   21 1
    34   21   26 ar
    35   21   22 ar
    36   22   23 ar
    37   22   42 1
    38   23   24 ar
    39   23   43 1
    40   24   30 1
    41   24   25 ar
    42   25   26 ar
    43   25   27 1
    44   26   44 1
    45   27   28 1
    46   28   29 1
    47   28   45 1
    48   28   46 1
    49   29   30 1
    50   29   47 1
    51   29   48 1
@<TRIPOS>MOLECULE
ZINC03343726
   48    51     0     0     0
SMALL
USER_CHARGES

@<TRIPOS>ATOM
      1 C1         -0.0167    1.3780    0.0096 C.ar      1 <0>        -0.1077
      2 C2          1.1705    2.0859    0.0021 C.ar      1 <0>        -0.0983
      3 C3          2.3786    1.4101   -0.0131 C.ar      1 <0>         0.0831
      4 C4          2.3962    0.0254   -0.0207 C.ar      1 <0>        -0.0558
      5 C5          1.2081   -0.6801   -0.0132 C.ar      1 <0>        -0.6528
      6 C6          0.0021   -0.0041    0.0020 C.ar      1 <0>        -0.0316
      7 S1          1.2300   -2.4419   -0.0235 S.o2      1 <0>         2.6903
      8 O1         -0.0155   -2.8604   -0.5646 O.2       1 <0>        -0.9441
      9 O2          2.4749   -2.8293   -0.5887 O.2       1 <0>        -0.9450
     10 N1          1.2515   -2.9406    1.5555 N.pl3     1 <0>        -0.9931
     11 C7          2.5261   -3.1441    2.2584 C.3       1 <0>         0.1056
     12 C8          2.5223   -2.2954    3.5358 C.3       1 <0>         0.0993
     13 N2          1.2672   -2.5418    4.2596 N.pl3     1 <0>        -0.9944
     14 C9         -0.0074   -2.3383    3.5568 C.3       1 <0>         0.0994
     15 C10        -0.0037   -3.1816    2.2810 C.3       1 <0>         0.1058
     16 S2          1.2887   -3.0404    5.8386 S.o2      1 <0>         2.6943
     17 O3          0.0563   -3.7088    6.0703 O.2       1 <0>        -0.9474
     18 O4          2.5465   -3.6670    6.0495 O.2       1 <0>        -0.9467
     19 C11         1.2728   -1.5924    6.8424 C.ar      1 <0>        -0.6785
     20 C12         2.4642   -1.0020    7.2209 C.ar      1 <0>        -0.0147
     21 C13         2.4558    0.1330    8.0092 C.ar      1 <0>        -0.1336
     22 C14         1.2515    0.6836    8.4219 C.ar      1 <0>         0.1085
     23 C15         0.0538    0.0915    8.0394 C.ar      1 <0>         0.0307
     24 C16         0.0692   -1.0456    7.2454 C.ar      1 <0>        -0.0125
     25 O5         -1.1393    0.6199    8.4267 O.3       1 <0>        -0.3027
     26 C17        -1.1097    1.5423    9.5213 C.3       1 <0>         0.0185
     27 C18         0.0343    2.5367    9.2811 C.3       1 <0>         0.0174
     28 O6          1.2593    1.7998    9.2007 O.3       1 <0>        -0.3009
     29 F1          3.5396    2.1009   -0.0209 F         1 <0>        -0.1316
     30 H1         -0.9592    1.9050    0.0260 H         1 <0>         0.1453
     31 H2          1.1556    3.1658    0.0077 H         1 <0>         0.1451
     32 H3          3.3381   -0.5029   -0.0329 H         1 <0>         0.1532
     33 H4         -0.9260   -0.5563    0.0079 H         1 <0>         0.1483
     34 H5          2.6362   -4.1968    2.5188 H         1 <0>         0.0904
     35 H6          3.3512   -2.8353    1.6165 H         1 <0>         0.1072
     36 H7          3.3678   -2.5759    4.1639 H         1 <0>         0.1106
     37 H8          2.5923   -1.2397    3.2739 H         1 <0>         0.0782
     38 H9         -0.8325   -2.6471    4.1987 H         1 <0>         0.1105
     39 H10        -0.1175   -1.2856    3.2963 H         1 <0>         0.0780
     40 H11        -0.8489   -2.8975    1.6541 H         1 <0>         0.1077
     41 H12        -0.0778   -4.2370    2.5431 H         1 <0>         0.0898
     42 H13         3.4031   -1.4287    6.9002 H         1 <0>         0.1507
     43 H14         3.3879    0.5920    8.3040 H         1 <0>         0.1471
     44 H15        -0.8602   -1.5063    6.9447 H         1 <0>         0.1523
     45 H16        -2.0572    2.0783    9.5760 H         1 <0>         0.1290
     46 H17        -0.9379    1.0024   10.4525 H         1 <0>         0.0821
     47 H18        -0.1343    3.0724    8.3470 H         1 <0>         0.0834
     48 H19         0.0852    3.2453   10.1078 H         1 <0>         0.1293
@<TRIPOS>BOND
     1    1    6 ar
     2    1    2 ar
     3    1   30 1
     4    2    3 ar
     5    2   31 1
     6    3    4 ar
     7    3   29 1
     8    4    5 ar
     9    4   32 1
    10    5    6 ar
    11    5    7 1
    12    6   33 1
    13    7    8 2
    14    7    9 2
    15    7   10 1
    16   10   15 1
    17   10   11 1
    18   11   12 1
    19   11   34 1
    20   11   35 1
    21   12   13 1
    22   12   36 1
    23   12   37 1
    24   13   14 1
    25   13   16 1
    26   14   15 1
    27   14   38 1
    28   14   39 1
    29   15   40 1
    30   15   41 1
    31   16   17 2
    32   16   18 2
    33   16   19 1
    34   19   24 ar
    35   19   20 ar
    36   20   21 ar
    37   20   42 1
    38   21   22 ar
    39   21   43 1
    40   22   28 1
    41   22   23 ar
    42   23   24 ar
    43   23   25 1
    44   24   44 1
    45   25   26 1
    46   26   27 1
    47   26   45 1
    48   26   46 1
    49   27   28 1
    50   27   47 1
    51   27   48 1
@<TRIPOS>MOLECULE
ZINC16091931
   54    58     0     0     0
SMALL
USER_CHARGES

@<TRIPOS>ATOM
      1 C1         -0.0167    1.3781    0.0096 C.ar      1 <0>        -0.0148
      2 C2          1.1694    2.0877    0.0021 C.ar      1 <0>        -0.1332
      3 C3          2.3817    1.4145   -0.0127 C.ar      1 <0>         0.1075
      4 C4          2.4006    0.0247   -0.0177 C.ar      1 <0>         0.0310
      5 C5          1.2069   -0.6812   -0.0113 C.ar      1 <0>        -0.0123
      6 C6          0.0021   -0.0041    0.0020 C.ar      1 <0>        -0.6781
      7 S1         -1.5126   -0.9042    0.0098 S.o2      1 <0>         2.6941
      8 O1         -1.2210   -2.1852    0.5513 O.2       1 <0>        -0.9478
      9 O2         -2.4933   -0.0441    0.5734 O.2       1 <0>        -0.9471
     10 N1         -1.9467   -1.1458   -1.5700 N.pl3     1 <0>        -0.9940
     11 C7         -2.7839   -0.1644   -2.2741 C.3       1 <0>         0.1064
     12 C8         -2.0557    0.2750   -3.5504 C.3       1 <0>         0.0991
     13 N2         -1.6102   -0.9244   -4.2734 N.pl3     1 <0>        -0.9939
     14 C9         -0.7730   -1.9058   -3.5693 C.3       1 <0>         0.0995
     15 C10        -1.4965   -2.3425   -2.2947 C.3       1 <0>         0.1065
     16 S2         -2.0442   -1.1660   -5.8532 S.o2      1 <0>         2.6940
     17 O3         -1.9714   -2.5661   -6.0848 O.2       1 <0>        -0.9478
     18 O4         -3.2345   -0.4196   -6.0660 O.2       1 <0>        -0.9469
     19 C11        -0.7988   -0.4244   -6.8549 C.ar      1 <0>        -0.6782
     20 C12        -0.9157    0.8999   -7.2334 C.ar      1 <0>        -0.0145
     21 C13         0.0585    1.4849   -8.0203 C.ar      1 <0>        -0.1337
     22 C14         1.1564    0.7443   -8.4319 C.ar      1 <0>         0.1080
     23 C15         1.2753   -0.5866   -8.0492 C.ar      1 <0>         0.0306
     24 C16         0.2963   -1.1662   -7.2562 C.ar      1 <0>        -0.0126
     25 O5          2.3485   -1.3292   -8.4356 O.3       1 <0>        -0.3028
     26 C17         3.1212   -0.8230   -9.5295 C.3       1 <0>         0.0184
     27 C18         3.3731    0.6717   -9.2890 C.3       1 <0>         0.0175
     28 O6          2.1056    1.3328   -9.2098 O.3       1 <0>        -0.3010
     29 O7          3.5794   -0.6558   -0.0243 O.3       1 <0>        -0.3022
     30 C19         4.7459    0.0813   -0.4062 C.3       1 <0>         0.0194
     31 C20         4.7331    1.4220    0.3404 C.3       1 <0>         0.0169
     32 O8          3.5414    2.1269   -0.0241 O.3       1 <0>        -0.3016
     33 H1         -0.9596    1.9044    0.0259 H         1 <0>         0.1510
     34 H2          1.1520    3.1676    0.0074 H         1 <0>         0.1465
     35 H3          1.2188   -1.7611   -0.0176 H         1 <0>         0.1523
     36 H4         -3.7391   -0.6195   -2.5362 H         1 <0>         0.0889
     37 H5         -2.9518    0.7006   -1.6325 H         1 <0>         0.1076
     38 H6         -2.7350    0.8502   -4.1795 H         1 <0>         0.1098
     39 H7         -1.1918    0.8853   -3.2870 H         1 <0>         0.0791
     40 H8         -0.6051   -2.7708   -4.2109 H         1 <0>         0.1096
     41 H9          0.1822   -1.4508   -3.3072 H         1 <0>         0.0777
     42 H10        -0.8144   -2.9155   -1.6667 H         1 <0>         0.1073
     43 H11        -2.3579   -2.9562   -2.5583 H         1 <0>         0.0889
     44 H12        -1.7700    1.4785   -6.9141 H         1 <0>         0.1510
     45 H13        -0.0355    2.5196   -8.3152 H         1 <0>         0.1471
     46 H14         0.3872   -2.1996   -6.9557 H         1 <0>         0.1522
     47 H15         4.0726   -1.3521   -9.5834 H         1 <0>         0.1288
     48 H16         2.5717   -0.9579  -10.4611 H         1 <0>         0.0822
     49 H17         3.9173    0.8070   -8.3543 H         1 <0>         0.0829
     50 H18         3.9521    1.0844  -10.1152 H         1 <0>         0.1291
     51 H19         5.6402   -0.4807   -0.1372 H         1 <0>         0.1284
     52 H20         4.7325    0.2592   -1.4815 H         1 <0>         0.0803
     53 H21         4.7403    1.2440    1.4157 H         1 <0>         0.0843
     54 H22         5.6078    2.0082    0.0584 H         1 <0>         0.1286
@<TRIPOS>BOND
     1    1    6 ar
     2    1    2 ar
     3    1   33 1
     4    2    3 ar
     5    2   34 1
     6    3   32 1
     7    3    4 ar
     8    4    5 ar
     9    4   29 1
    10    5    6 ar
    11    5   35 1
    12    6    7 1
    13    7    8 2
    14    7    9 2
    15    7   10 1
    16   10   15 1
    17   10   11 1
    18   11   12 1
    19   11   36 1
    20   11   37 1
    21   12   13 1
    22   12   38 1
    23   12   39 1
    24   13   14 1
    25   13   16 1
    26   14   15 1
    27   14   40 1
    28   14   41 1
    29   15   42 1
    30   15   43 1
    31   16   17 2
    32   16   18 2
    33   16   19 1
    34   19   24 ar
    35   19   20 ar
    36   20   21 ar
    37   20   44 1
    38   21   22 ar
    39   21   45 1
    40   22   28 1
    41   22   23 ar
    42   23   24 ar
    43   23   25 1
    44   24   46 1
    45   25   26 1
    46   26   27 1
    47   26   47 1
    48   26   48 1
    49   27   28 1
    50   27   49 1
    51   27   50 1
    52   29   30 1
    53   30   31 1
    54   30   51 1
    55   30   52 1
    56   31   32 1
    57   31   53 1
    58   31   54 1
@<TRIPOS>MOLECULE
ZINC00831028
   50    52     0     0     0
SMALL
USER_CHARGES

@<TRIPOS>ATOM
      1 C1         -0.0173    1.4248    0.0099 C.3       1 <0>         0.0219
      2 O1          0.0021   -0.0041    0.0020 O.3       1 <0>        -0.3105
      3 C2          0.6258   -0.6184    1.0415 C.ar      1 <0>         0.1840
      4 C3          1.2022    0.1384    2.0513 C.ar      1 <0>        -0.2290
      5 C4          1.8353   -0.4884    3.1070 C.ar      1 <0>         0.0218
      6 C5          1.8951   -1.8688    3.1577 C.ar      1 <0>        -0.7169
      7 C6          1.3218   -2.6253    2.1523 C.ar      1 <0>         0.0186
      8 C7          0.6822   -2.0034    1.0976 C.ar      1 <0>        -0.1712
      9 S1          2.7038   -2.6653    4.5054 S.o2      1 <0>         2.6927
     10 O2          3.0980   -3.9492    4.0411 O.2       1 <0>        -0.9514
     11 O3          3.6322   -1.7279    5.0333 O.2       1 <0>        -0.9522
     12 N1          1.5645   -2.9163    5.6808 N.pl3     1 <0>        -0.9952
     13 C8          1.3170   -1.8989    6.7120 C.3       1 <0>         0.1069
     14 C9         -0.1742   -1.5407    6.6992 C.3       1 <0>         0.1005
     15 N2         -0.9562   -2.7847    6.7294 N.pl3     1 <0>        -0.9951
     16 C10        -0.7087   -3.8022    5.6982 C.3       1 <0>         0.1004
     17 C11         0.7786   -4.1579    5.7078 C.3       1 <0>         0.1067
     18 S2         -2.0955   -3.0357    7.9048 S.o2      1 <0>         2.6930
     19 O4         -2.2556   -4.4428    8.0213 O.2       1 <0>        -0.9521
     20 O5         -1.7292   -2.2169    9.0069 O.2       1 <0>        -0.9514
     21 C12        -3.6225   -2.4039    7.2936 C.ar      1 <0>        -0.7173
     22 C13        -3.9648   -1.0842    7.5234 C.ar      1 <0>         0.0185
     23 C14        -5.1615   -0.5864    7.0453 C.ar      1 <0>        -0.1717
     24 C15        -6.0201   -1.4119    6.3340 C.ar      1 <0>         0.1843
     25 C16        -5.6743   -2.7358    6.1047 C.ar      1 <0>        -0.2293
     26 C17        -4.4739   -3.2272    6.5801 C.ar      1 <0>         0.0218
     27 O6         -7.1980   -0.9248    5.8629 O.3       1 <0>        -0.3102
     28 C18        -8.0322   -1.8317    5.1392 C.3       1 <0>         0.0217
     29 H1          1.0053    1.8021    0.0021 H         1 <0>         0.0616
     30 H2         -0.5445    1.7859   -0.8732 H         1 <0>         0.1065
     31 H3         -0.5275    1.7763    0.9067 H         1 <0>         0.0607
     32 H4          1.1564    1.2167    2.0118 H         1 <0>         0.1390
     33 H5          2.2842    0.1003    3.8934 H         1 <0>         0.1429
     34 H6          1.3704   -3.7034    2.1938 H         1 <0>         0.1470
     35 H7          0.2303   -2.5948    0.3149 H         1 <0>         0.1418
     36 H8          1.5896   -2.2954    7.6900 H         1 <0>         0.0877
     37 H9          1.9088   -1.0090    6.4974 H         1 <0>         0.1060
     38 H10        -0.4131   -0.9371    7.5748 H         1 <0>         0.1085
     39 H11        -0.4088   -0.9832    5.7924 H         1 <0>         0.0775
     40 H12        -1.3005   -4.6920    5.9128 H         1 <0>         0.1085
     41 H13        -0.9813   -3.4056    4.7202 H         1 <0>         0.0776
     42 H14         1.0149   -4.7595    4.8301 H         1 <0>         0.1067
     43 H15         1.0120   -4.7190    6.6127 H         1 <0>         0.0873
     44 H16        -3.2963   -0.4420    8.0776 H         1 <0>         0.1470
     45 H17        -5.4286    0.4444    7.2254 H         1 <0>         0.1424
     46 H18        -6.3410   -3.3804    5.5512 H         1 <0>         0.1395
     47 H19        -4.2022   -4.2565    6.3981 H         1 <0>         0.1430
     48 H20        -8.9383   -1.3165    4.8206 H         1 <0>         0.1069
     49 H21        -7.4961   -2.1987    4.2639 H         1 <0>         0.0609
     50 H22        -8.2982   -2.6716    5.7809 H         1 <0>         0.0617
@<TRIPOS>BOND
     1    1    2 1
     2    1   29 1
     3    1   30 1
     4    1   31 1
     5    2    3 1
     6    3    8 ar
     7    3    4 ar
     8    4    5 ar
     9    4   32 1
    10    5    6 ar
    11    5   33 1
    12    6    7 ar
    13    6    9 1
    14    7    8 ar
    15    7   34 1
    16    8   35 1
    17    9   10 2
    18    9   11 2
    19    9   12 1
    20   12   17 1
    21   12   13 1
    22   13   14 1
    23   13   36 1
    24   13   37 1
    25   14   15 1
    26   14   38 1
    27   14   39 1
    28   15   16 1
    29   15   18 1
    30   16   17 1
    31   16   40 1
    32   16   41 1
    33   17   42 1
    34   17   43 1
    35   18   19 2
    36   18   20 2
    37   18   21 1
    38   21   26 ar
    39   21   22 ar
    40   22   23 ar
    41   22   44 1
    42   23   24 ar
    43   23   45 1
    44   24   25 ar
    45   24   27 1
    46   25   26 ar
    47   25   46 1
    48   26   47 1
    49   27   28 1
    50   28   48 1
    51   28   49 1
    52   28   50 1
