@<TRIPOS>MOLECULE
ZINC03814434
   62    69     0     0     0
SMALL
USER_CHARGES

@<TRIPOS>ATOM
      1 C1         -0.1295    1.5952   -0.2973 C.3       1 <0>        -0.1687
      2 C2         -0.0862    0.0696   -0.1900 C.3       1 <0>         0.3342
      3 C3          0.5692   -0.4501   -1.4637 C.3       1 <0>         0.0405
      4 H1          1.4796    0.1159   -1.6612 H         1 <0>         0.1372
      5 C4          0.9167   -1.9328   -1.2889 C.3       1 <0>        -0.0061
      6 H2          1.3963   -2.3075   -2.1932 H         1 <0>         0.1555
      7 C5          1.8785   -2.0596   -0.1021 C.3       1 <0>        -0.1827
      8 C6          1.2061   -1.5198    1.1541 C.3       1 <0>         0.2999
      9 H3          1.9797   -1.4243    1.9161 H         1 <0>         0.1550
     10 O1          0.6555   -0.2442    0.9666 O.3       1 <0>        -0.3234
     11 N1          0.2189   -2.4746    1.6600 N.pl3     1 <0>        -0.5366
     12 C7          0.4705   -3.5508    2.4739 C.ar      1 <0>         0.1469
     13 C8          1.6649   -4.0152    3.0240 C.ar      1 <0>        -0.1522
     14 C9          1.5948   -5.1456    3.8201 C.ar      1 <0>        -0.0582
     15 C10         0.4006   -5.7997    4.0696 C.ar      1 <0>        -0.1457
     16 C11        -0.7984   -5.3597    3.5358 C.ar      1 <0>        -0.0280
     17 C12        -0.7487   -4.2198    2.7307 C.ar      1 <0>        -0.1131
     18 C13        -1.7893   -3.4830    2.0197 C.ar      1 <0>         0.0276
     19 C14        -1.1442   -2.4197    1.3841 C.ar      1 <0>         0.0376
     20 C15        -1.8806   -1.5095    0.6175 C.ar      1 <0>         0.0894
     21 N2         -1.4718   -0.3951   -0.1095 N.pl3     1 <0>        -0.5183
     22 C16        -2.5611    0.1913   -0.7090 C.ar      1 <0>         0.1618
     23 C17        -2.6521    1.3277   -1.5118 C.ar      1 <0>        -0.1305
     24 C18        -3.9109    1.6745   -1.9733 C.ar      1 <0>        -0.0737
     25 C19        -5.0393    0.9368   -1.6616 C.ar      1 <0>        -0.1358
     26 C20        -4.9745   -0.1955   -0.8662 C.ar      1 <0>        -0.0503
     27 C21        -3.7147   -0.5596   -0.3919 C.ar      1 <0>        -0.1042
     28 C22        -3.2693   -1.6660    0.4845 C.ar      1 <0>        -0.0360
     29 C23        -3.9084   -2.7313    1.1102 C.ar      1 <0>        -0.0288
     30 C24        -3.1873   -3.6421    1.8754 C.ar      1 <0>        -0.1255
     31 C25        -4.1221   -4.6480    2.4030 C.2       1 <0>         0.5632
     32 O2         -3.8062   -5.5851    3.1110 O.2       1 <0>        -0.5106
     33 N3         -5.3744   -4.3851    1.9926 N.am      1 <0>        -0.7162
     34 C26        -5.3495   -3.1771    1.1601 C.3       1 <0>         0.1358
     35 N4         -0.3067   -2.7008   -1.0216 N.4       1 <0>        -0.5252
     36 C27         0.0145   -4.1336   -0.9773 C.3       1 <0>        -0.0497
     37 O3         -0.3340   -0.2979   -2.5607 O.3       1 <0>        -0.3614
     38 C28         0.3101   -0.0933   -3.8198 C.3       1 <0>         0.0162
     39 H4          0.8261    2.0094    0.0240 H         1 <0>         0.0984
     40 H5         -0.3202    1.8814   -1.3317 H         1 <0>         0.1036
     41 H6         -0.9255    1.9818    0.3392 H         1 <0>         0.0921
     42 H7          2.1370   -3.1081    0.0458 H         1 <0>         0.1233
     43 H8          2.7835   -1.4869   -0.3048 H         1 <0>         0.1455
     44 H9          2.6036   -3.5149    2.8368 H         1 <0>         0.1365
     45 H10         2.5026   -5.5304    4.2610 H         1 <0>         0.1359
     46 H11         0.4045   -6.6780    4.6980 H         1 <0>         0.1352
     47 H12        -1.7278   -5.8736    3.7323 H         1 <0>         0.1600
     48 H13        -1.7792    1.9122   -1.7624 H         1 <0>         0.1440
     49 H14        -4.0153    2.5500   -2.5970 H         1 <0>         0.1336
     50 H15        -5.9967    1.2527   -2.0488 H         1 <0>         0.1332
     51 H16        -5.8575   -0.7687   -0.6249 H         1 <0>         0.1415
     52 H17        -6.1628   -4.9065    2.2103 H         1 <0>         0.4348
     53 H18        -5.9671   -2.3994    1.6094 H         1 <0>         0.1115
     54 H19        -5.7060   -3.4063    0.1559 H         1 <0>         0.1103
     55 H20        -0.6958   -2.4158   -0.1353 H         1 <0>         0.4186
     56 H21         0.4349   -4.4415   -1.9347 H         1 <0>         0.1256
     57 H22         0.7403   -4.3189   -0.1854 H         1 <0>         0.1191
     58 H23        -0.8932   -4.7035   -0.7789 H         1 <0>         0.1256
     59 H24         0.9168    0.8112   -3.7748 H         1 <0>         0.0633
     60 H25         0.9482   -0.9479   -4.0446 H         1 <0>         0.0514
     61 H26        -0.4433    0.0130   -4.6003 H         1 <0>         0.1100
     62 H27        -0.9785   -2.5293   -1.7546 H         1 <0>         0.4274
@<TRIPOS>BOND
     1    1    2 1
     2    1   39 1
     3    1   40 1
     4    1   41 1
     5    2   10 1
     6    2   21 1
     7    2    3 1
     8    3    4 1
     9    3    5 1
    10    3   37 1
    11    5    6 1
    12    5    7 1
    13    5   35 1
    14    7    8 1
    15    7   42 1
    16    7   43 1
    17    8    9 1
    18    8   10 1
    19    8   11 1
    20   11   19 1
    21   11   12 1
    22   12   17 ar
    23   12   13 ar
    24   13   14 ar
    25   13   44 1
    26   14   15 ar
    27   14   45 1
    28   15   16 ar
    29   15   46 1
    30   16   17 ar
    31   16   47 1
    32   17   18 1
    33   18   30 ar
    34   18   19 ar
    35   19   20 ar
    36   20   28 ar
    37   20   21 1
    38   21   22 1
    39   22   27 ar
    40   22   23 ar
    41   23   24 ar
    42   23   48 1
    43   24   25 ar
    44   24   49 1
    45   25   26 ar
    46   25   50 1
    47   26   27 ar
    48   26   51 1
    49   27   28 1
    50   28   29 ar
    51   29   34 1
    52   29   30 ar
    53   30   31 1
    54   31   32 2
    55   31   33 am
    56   33   34 1
    57   33   52 1
    58   34   53 1
    59   34   54 1
    60   35   36 1
    61   35   55 1
    62   35   62 1
    63   36   56 1
    64   36   57 1
    65   36   58 1
    66   37   38 1
    67   38   59 1
    68   38   60 1
    69   38   61 1
@<TRIPOS>MOLECULE
ZINC14959960
   46    47     0     0     0
SMALL
USER_CHARGES

@<TRIPOS>ATOM
      1 C1          2.8824   -6.4072    4.7168 C.3       1 <0>        -0.1552
      2 C2          2.1528   -5.8740    3.4821 C.3       1 <0>         0.0698
      3 O1          2.1422   -4.4455    3.5150 O.3       1 <0>        -0.2974
      4 C3          1.5303   -3.8111    2.4862 C.ar      1 <0>         0.4422
      5 C4          1.4912   -2.4091    2.4579 C.ar      1 <0>        -0.2167
      6 C5          0.8492   -1.7688    1.3776 C.ar      1 <0>         0.3538
      7 C6          0.2819   -2.5616    0.3859 C.ar      1 <0>        -0.3271
      8 C7          0.3649   -3.9424    0.4899 C.ar      1 <0>         0.4673
      9 N1          0.9799   -4.5179    1.5150 N.ar      1 <0>        -0.5640
     10 N2         -0.2018   -4.7376   -0.5010 N.am      1 <0>        -0.6596
     11 C8         -0.0402   -6.0752   -0.4661 C.2       1 <0>         0.5088
     12 O2          0.5194   -6.5939    0.4765 O.2       1 <0>        -0.4507
     13 C9         -0.5549   -6.9261   -1.5983 C.3       1 <0>        -0.0901
     14 C10        -0.2496   -8.3748   -1.3169 C.ar      1 <0>        -0.0653
     15 C11         0.8944   -8.9525   -1.8328 C.ar      1 <0>        -0.0983
     16 C12         1.1756  -10.2855   -1.5735 C.ar      1 <0>         0.0937
     17 C13         0.3082  -11.0388   -0.7960 C.ar      1 <0>        -0.1638
     18 C14        -0.8354  -10.4613   -0.2803 C.ar      1 <0>        -0.1672
     19 C15        -1.1140   -9.1265   -0.5354 C.ar      1 <0>         0.1111
     20 O3         -2.2372   -8.5563   -0.0229 O.3       1 <0>        -0.3149
     21 C16        -3.0823   -9.3894    0.7732 C.3       1 <0>         0.0284
     22 O4          2.3014  -10.8542   -2.0817 O.3       1 <0>        -0.3174
     23 C17         2.5280  -12.2313   -1.7744 C.3       1 <0>         0.0276
     24 N3          0.7849   -0.3856    1.3065 N.pl3     1 <0>        -0.8432
     25 C18         2.0920   -1.6418    3.5072 C.1       1 <0>         0.2733
     26 N4          2.5686   -1.0332    4.3395 N.1       1 <0>        -0.4293
     27 H1          2.3690   -6.0683    5.6167 H         1 <0>         0.0639
     28 H2          2.8905   -7.4969    4.6917 H         1 <0>         0.0806
     29 H3          3.9073   -6.0362    4.7217 H         1 <0>         0.0643
     30 H4          2.6662   -6.2129    2.5823 H         1 <0>         0.0746
     31 H5          1.1279   -6.2450    3.4773 H         1 <0>         0.0734
     32 H6         -0.2184   -2.1070   -0.4564 H         1 <0>         0.1464
     33 H7         -0.7132   -4.3294   -1.2170 H         1 <0>         0.4216
     34 H8         -1.6327   -6.7935   -1.6917 H         1 <0>         0.1130
     35 H9         -0.0701   -6.6265   -2.5275 H         1 <0>         0.1091
     36 H10         1.5696   -8.3661   -2.4384 H         1 <0>         0.1371
     37 H11         0.5270  -12.0770   -0.5944 H         1 <0>         0.1309
     38 H12        -1.5111  -11.0479    0.3244 H         1 <0>         0.1316
     39 H13        -3.4285  -10.2326    0.1754 H         1 <0>         0.0547
     40 H14        -2.5230   -9.7587    1.6327 H         1 <0>         0.0549
     41 H15        -3.9401   -8.8124    1.1185 H         1 <0>         0.0997
     42 H16         3.4575  -12.5592   -2.2399 H         1 <0>         0.1005
     43 H17         2.5992  -12.3555   -0.6939 H         1 <0>         0.0547
     44 H18         1.7002  -12.8295   -2.1552 H         1 <0>         0.0545
     45 H19         1.1847    0.1551    2.0056 H         1 <0>         0.4070
     46 H20         0.3401    0.0415    0.5577 H         1 <0>         0.4117
@<TRIPOS>BOND
     1    1    2 1
     2    1   27 1
     3    1   28 1
     4    1   29 1
     5    2    3 1
     6    2   30 1
     7    2   31 1
     8    3    4 1
     9    4    9 ar
    10    4    5 ar
    11    5    6 ar
    12    5   25 1
    13    6    7 ar
    14    6   24 1
    15    7    8 ar
    16    7   32 1
    17    8    9 ar
    18    8   10 1
    19   10   11 am
    20   10   33 1
    21   11   12 2
    22   11   13 1
    23   13   14 1
    24   13   34 1
    25   13   35 1
    26   14   19 ar
    27   14   15 ar
    28   15   16 ar
    29   15   36 1
    30   16   17 ar
    31   16   22 1
    32   17   18 ar
    33   17   37 1
    34   18   19 ar
    35   18   38 1
    36   19   20 1
    37   20   21 1
    38   21   39 1
    39   21   40 1
    40   21   41 1
    41   22   23 1
    42   23   42 1
    43   23   43 1
    44   23   44 1
    45   24   45 1
    46   24   46 1
    47   25   26 3
@<TRIPOS>MOLECULE
ZINC17782150
   26    27     0     0     0
SMALL
USER_CHARGES

@<TRIPOS>ATOM
      1 C1          1.2107    0.1110   -0.3167 C.ar      1 <0>        -0.0845
      2 C2          2.3695    0.6247   -0.8574 C.ar      1 <0>        -0.1353
      3 C3          2.4406    0.9025   -2.2165 C.ar      1 <0>         0.1143
      4 C4          1.3452    0.6641   -3.0367 C.ar      1 <0>        -0.1360
      5 C5          0.1823    0.1506   -2.5047 C.ar      1 <0>        -0.0742
      6 C6          0.1062   -0.1304   -1.1380 C.ar      1 <0>         0.0044
      7 N1         -1.0458   -0.6406   -0.6057 N.2       1 <0>        -0.1879
      8 N2         -1.0418   -1.8093   -0.0598 N.2       1 <0>        -0.0741
      9 C7          0.0830   -2.5712   -0.0938 C.2       1 <0>        -0.2800
     10 C8          0.6978   -3.1916    0.9919 C.2       1 <0>         0.4511
     11 N3          1.7806   -3.8437    0.5189 N.pl3     1 <0>        -0.4845
     12 H1          2.4027   -4.3664    1.0487 H         1 <0>         0.4440
     13 N4          1.8562   -3.6401   -0.8630 N.2       1 <0>        -0.3488
     14 C9          0.8522   -2.8919   -1.2429 C.2       1 <0>         0.3951
     15 N5          0.5863   -2.4778   -2.5498 N.pl3     1 <0>        -0.8342
     16 N6          0.2770   -3.1474    2.3083 N.pl3     1 <0>        -0.8307
     17 O1          3.5849    1.4093   -2.7452 O.3       1 <0>        -0.4982
     18 H2          1.1578   -0.1088    0.7393 H         1 <0>         0.1196
     19 H3          3.2235    0.8119   -0.2234 H         1 <0>         0.1292
     20 H4          1.4048    0.8819   -4.0928 H         1 <0>         0.1346
     21 H5         -0.6689   -0.0344   -3.1432 H         1 <0>         0.1333
     22 H6         -0.2564   -2.0454   -2.7596 H         1 <0>         0.4089
     23 H7          1.2441   -2.6224   -3.2478 H         1 <0>         0.4071
     24 H8         -0.5195   -2.6474    2.5463 H         1 <0>         0.4262
     25 H9          0.7782   -3.6163    2.9937 H         1 <0>         0.4085
     26 H10         4.2088    0.7365   -3.0504 H         1 <0>         0.3919
@<TRIPOS>BOND
     1    1    6 ar
     2    1    2 ar
     3    1   18 1
     4    2    3 ar
     5    2   19 1
     6    3    4 ar
     7    3   17 1
     8    4    5 ar
     9    4   20 1
    10    5    6 ar
    11    5   21 1
    12    6    7 1
    13    7    8 2
    14    8    9 1
    15    9   14 1
    16    9   10 2
    17   10   11 1
    18   10   16 1
    19   11   12 1
    20   11   13 1
    21   13   14 2
    22   14   15 1
    23   15   22 1
    24   15   23 1
    25   16   24 1
    26   16   25 1
    27   17   26 1
@<TRIPOS>MOLECULE
ZINC17782150
   26    27     0     0     0
SMALL
USER_CHARGES

@<TRIPOS>ATOM
      1 C1         -0.0174    1.4084   -0.0035 C.2       1 <0>         0.0112
      2 C2          1.1490    2.1020   -0.0127 C.2       1 <0>        -0.2354
      3 C3          2.3781    1.4147   -0.0189 C.2       1 <0>         0.3914
      4 O1          3.4293    2.0422   -0.0276 O.2       1 <0>        -0.4959
      5 C4          2.4000    0.0066   -0.0146 C.2       1 <0>        -0.2038
      6 C5          1.2360   -0.6911   -0.0055 C.2       1 <0>        -0.0732
      7 C6          0.0020   -0.0039    0.0003 C.2       1 <0>        -0.0408
      8 N1         -1.1439   -0.6880    0.0093 N.2       1 <0>        -0.1200
      9 N2         -1.1284   -1.9737   -0.0951 N.pl3     1 <0>        -0.3983
     10 C7         -2.3258   -2.6792   -0.1925 C.2       1 <0>        -0.1356
     11 C8         -2.4915   -4.0393   -0.0144 C.2       1 <0>         0.3946
     12 N3         -3.8094   -4.3124   -0.1979 N.pl3     1 <0>        -0.4817
     13 H1         -4.2228   -5.1876   -0.1354 H         1 <0>         0.4481
     14 N4         -4.4681   -3.1130   -0.4923 N.2       1 <0>        -0.3445
     15 C9         -3.5945   -2.1362   -0.4850 C.2       1 <0>         0.3948
     16 N5         -3.8720   -0.7869   -0.7289 N.pl3     1 <0>        -0.8316
     17 N6         -1.4956   -4.9568    0.2943 N.pl3     1 <0>        -0.8462
     18 H2         -0.9598    1.9360    0.0053 H         1 <0>         0.1368
     19 H3          1.1347    3.1819   -0.0156 H         1 <0>         0.1403
     20 H4          3.3438   -0.5184   -0.0190 H         1 <0>         0.1354
     21 H5          1.2532   -1.7710   -0.0029 H         1 <0>         0.1156
     22 H6         -0.2830   -2.4492   -0.1059 H         1 <0>         0.3885
     23 H7         -3.1564   -0.1325   -0.7044 H         1 <0>         0.4173
     24 H8         -4.7799   -0.5057   -0.9226 H         1 <0>         0.4065
     25 H9         -0.5792   -4.6589    0.4052 H         1 <0>         0.4149
     26 H10        -1.7165   -5.8955    0.3990 H         1 <0>         0.4118
@<TRIPOS>BOND
     1    1    7 1
     2    1    2 2
     3    1   18 1
     4    2    3 1
     5    2   19 1
     6    3    4 2
     7    3    5 1
     8    5    6 2
     9    5   20 1
    10    6    7 1
    11    6   21 1
    12    7    8 2
    13    8    9 1
    14    9   10 1
    15    9   22 1
    16   10   15 1
    17   10   11 2
    18   11   12 1
    19   11   17 1
    20   12   13 1
    21   12   14 1
    22   14   15 2
    23   15   16 1
    24   16   23 1
    25   16   24 1
    26   17   25 1
    27   17   26 1
@<TRIPOS>MOLECULE
ZINC17782150
   27    28     0     0     0
SMALL
USER_CHARGES

@<TRIPOS>ATOM
      1 C1         -0.0175    1.4085   -0.0037 C.2       1 <0>        -0.0225
      2 C2          1.1489    2.1020   -0.0131 C.2       1 <0>        -0.1922
      3 C3          2.3781    1.4147   -0.0189 C.2       1 <0>         0.3825
      4 O1          3.4292    2.0423   -0.0270 O.2       1 <0>        -0.4508
      5 C4          2.3999    0.0066   -0.0151 C.2       1 <0>        -0.1577
      6 C5          1.2360   -0.6911   -0.0058 C.2       1 <0>        -0.1054
      7 C6          0.0020   -0.0039    0.0001 C.2       1 <0>         0.0536
      8 N1         -1.1438   -0.6880    0.0097 N.2       1 <0>        -0.1779
      9 N2         -1.1284   -1.9737   -0.0947 N.pl3     1 <0>        -0.4557
     10 C7         -2.3266   -2.6796   -0.1916 C.2       1 <0>        -0.0807
     11 C8         -3.6016   -2.1885    0.0927 C.2       1 <0>         0.5070
     12 N3         -4.4718   -3.1700   -0.1238 N.pl3     1 <0>        -0.4351
     13 H1         -5.4329   -3.1104   -0.0067 H         1 <0>         0.4767
     14 N4         -3.7697   -4.3033   -0.5496 N.pl3     1 <0>        -0.4320
     15 C9         -2.4745   -4.0069   -0.5968 C.cat     1 <0>         0.4909
     16 N5         -1.4497   -4.8669   -0.9789 N.pl3     1 <0>        -0.8015
     17 N6         -3.9072   -0.9022    0.5261 N.pl3     1 <0>        -0.7849
     18 H2         -0.9598    1.9360    0.0052 H         1 <0>         0.1445
     19 H3          1.1346    3.1819   -0.0164 H         1 <0>         0.1516
     20 H4          3.3437   -0.5184   -0.0200 H         1 <0>         0.1472
     21 H5          1.2533   -1.7710   -0.0032 H         1 <0>         0.1241
     22 H6         -0.2830   -2.4492   -0.1058 H         1 <0>         0.4009
     23 H7         -0.5307   -4.5565   -0.9784 H         1 <0>         0.4379
     24 H8         -1.6542   -5.7767   -1.2456 H         1 <0>         0.4301
     25 H9         -3.1983   -0.2530    0.6563 H         1 <0>         0.4474
     26 H10        -4.8292   -0.6546    0.6981 H         1 <0>         0.4249
     27 H11        -4.1627   -5.1606   -0.7763 H         1 <0>         0.4771
@<TRIPOS>BOND
     1    1    7 1
     2    1    2 2
     3    1   18 1
     4    2    3 1
     5    2   19 1
     6    3    4 2
     7    3    5 1
     8    5    6 2
     9    5   20 1
    10    6    7 1
    11    6   21 1
    12    7    8 2
    13    8    9 1
    14    9   10 1
    15    9   22 1
    16   10   15 1
    17   10   11 2
    18   11   12 1
    19   11   17 1
    20   12   13 1
    21   12   14 1
    22   14   15 2
    23   14   27 1
    24   15   16 1
    25   16   23 1
    26   16   24 1
    27   17   25 1
    28   17   26 1
@<TRIPOS>MOLECULE
ZINC17782150
   27    28     0     0     0
SMALL
USER_CHARGES

@<TRIPOS>ATOM
      1 C1         -0.0671    0.1506   -2.4543 C.ar      1 <0>        -0.0780
      2 C2          1.0595    0.7606   -2.9618 C.ar      1 <0>        -0.1323
      3 C3          2.1414    1.0263   -2.1322 C.ar      1 <0>         0.1375
      4 C4          2.0935    0.6783   -0.7884 C.ar      1 <0>        -0.1371
      5 C5          0.9712    0.0675   -0.2723 C.ar      1 <0>        -0.0871
      6 C6         -0.1200   -0.2008   -1.1029 C.ar      1 <0>        -0.0437
      7 N1         -1.2364   -0.8062   -0.5947 N.2       1 <0>        -0.1165
      8 N2         -1.1558   -1.9926   -0.0947 N.2       1 <0>        -0.0827
      9 C7          0.0298   -2.6576   -0.1101 C.2       1 <0>        -0.2485
     10 C8          0.6721   -3.2493    0.9916 C.2       1 <0>         0.5430
     11 N3          1.7996   -3.7946    0.5541 N.pl3     1 <0>        -0.4351
     12 H1          2.4438   -4.2722    1.0997 H         1 <0>         0.4754
     13 N4          1.9080   -3.5694   -0.8222 N.pl3     1 <0>        -0.4342
     14 C9          0.8445   -2.8903   -1.2320 C.cat     1 <0>         0.5159
     15 N5          0.5851   -2.4808   -2.5317 N.pl3     1 <0>        -0.7884
     16 N6          0.2106   -3.2605    2.2997 N.pl3     1 <0>        -0.7813
     17 O1          3.2501    1.6279   -2.6368 O.3       1 <0>        -0.4969
     18 H2         -0.9096   -0.0516   -3.0990 H         1 <0>         0.1475
     19 H3          1.1014    1.0322   -4.0063 H         1 <0>         0.1476
     20 H4          2.9371    0.8865   -0.1470 H         1 <0>         0.1404
     21 H5          0.9350   -0.2033    0.7726 H         1 <0>         0.1284
     22 H6         -0.2238   -1.9840   -2.7314 H         1 <0>         0.4390
     23 H7          1.2125   -2.6913   -3.2409 H         1 <0>         0.4283
     24 H8         -0.5925   -2.7700    2.5349 H         1 <0>         0.4487
     25 H9          0.6911   -3.7589    2.9792 H         1 <0>         0.4290
     26 H10         3.2291    2.5936   -2.5905 H         1 <0>         0.4068
     27 H11         2.6401   -3.8647   -1.3860 H         1 <0>         0.4741
@<TRIPOS>BOND
     1    1    6 ar
     2    1    2 ar
     3    1   18 1
     4    2    3 ar
     5    2   19 1
     6    3    4 ar
     7    3   17 1
     8    4    5 ar
     9    4   20 1
    10    5    6 ar
    11    5   21 1
    12    6    7 1
    13    7    8 2
    14    8    9 1
    15    9   14 1
    16    9   10 2
    17   10   11 1
    18   10   16 1
    19   11   12 1
    20   11   13 1
    21   13   14 2
    22   13   27 1
    23   14   15 1
    24   15   22 1
    25   15   23 1
    26   16   24 1
    27   16   25 1
    28   17   26 1
@<TRIPOS>MOLECULE
ZINC17782150
   27    28     0     0     0
SMALL
USER_CHARGES

@<TRIPOS>ATOM
      1 C1         -0.0169    1.3931    0.0097 C.ar      1 <0>        -0.0402
      2 C2          1.1683    2.0962    0.0022 C.ar      1 <0>        -0.1473
      3 C3          2.3804    1.4181   -0.0131 C.ar      1 <0>         0.1484
      4 C4          2.4041    0.0293   -0.0212 C.ar      1 <0>        -0.1491
      5 C5          1.2238   -0.6820   -0.0142 C.ar      1 <0>        -0.0792
      6 C6          0.0021   -0.0041    0.0020 C.ar      1 <0>         0.0315
      7 N1         -1.1719   -0.7061    0.0099 N.2       1 <0>        -0.2435
      8 N2         -1.1522   -1.9959    0.0028 N.2       1 <0>        -0.1650
      9 C7         -2.3190   -2.6936    0.0106 C.2       1 <0>        -0.1586
     10 C8         -3.6171   -2.1538    0.0203 C.2       1 <0>         0.5109
     11 N3         -4.4735   -3.1670    0.0249 N.pl3     1 <0>        -0.4430
     12 H1         -5.4402   -3.0882    0.0311 H         1 <0>         0.4722
     13 N4         -3.7556   -4.3676    0.0184 N.pl3     1 <0>        -0.4369
     14 C9         -2.4578   -4.0926    0.0045 C.cat     1 <0>         0.5506
     15 N5         -1.4246   -5.0181   -0.0100 N.pl3     1 <0>        -0.7763
     16 N6         -3.9434   -0.8056    0.0246 N.pl3     1 <0>        -0.7729
     17 O1          3.5464    2.1154   -0.0204 O.3       1 <0>        -0.4956
     18 H2         -0.9589    1.9211    0.0260 H         1 <0>         0.1407
     19 H3          1.1546    3.1761    0.0077 H         1 <0>         0.1446
     20 H4          3.3488   -0.4938   -0.0334 H         1 <0>         0.1392
     21 H5          1.2431   -1.7618   -0.0213 H         1 <0>         0.1398
     22 H6         -0.5029   -4.7160   -0.0170 H         1 <0>         0.4492
     23 H7         -1.6239   -5.9674   -0.0132 H         1 <0>         0.4280
     24 H8         -3.2410   -0.1366    0.0209 H         1 <0>         0.4506
     25 H9         -4.8739   -0.5319    0.0313 H         1 <0>         0.4236
     26 H10         3.8924    2.3125    0.8608 H         1 <0>         0.4024
     27 H11        -4.1436   -5.2566    0.0204 H         1 <0>         0.4759
@<TRIPOS>BOND
     1    1    6 ar
     2    1    2 ar
     3    1   18 1
     4    2    3 ar
     5    2   19 1
     6    3    4 ar
     7    3   17 1
     8    4    5 ar
     9    4   20 1
    10    5    6 ar
    11    5   21 1
    12    6    7 1
    13    7    8 2
    14    8    9 1
    15    9   14 1
    16    9   10 2
    17   10   11 1
    18   10   16 1
    19   11   12 1
    20   11   13 1
    21   13   14 2
    22   13   27 1
    23   14   15 1
    24   15   22 1
    25   15   23 1
    26   16   24 1
    27   16   25 1
    28   17   26 1
