@<TRIPOS>MOLECULE
ZINC72112658
   53    53     0     0     0
SMALL
USER_CHARGES

@<TRIPOS>ATOM
      1 C1         -0.0187    1.5258    0.0104 C.3       1 <0>        -0.1541
      2 C2          0.0021   -0.0041    0.0020 C.3       1 <0>        -0.1264
      3 C3         -1.4333   -0.5336    0.0129 C.3       1 <0>        -0.1209
      4 C4         -1.4126   -2.0635    0.0045 C.3       1 <0>        -0.1219
      5 C5         -2.8479   -2.5931    0.0153 C.3       1 <0>        -0.1198
      6 C6         -2.8272   -4.1229    0.0069 C.3       1 <0>        -0.1215
      7 C7         -4.2626   -4.6525    0.0178 C.3       1 <0>        -0.1190
      8 C8         -4.2418   -6.1823    0.0094 C.3       1 <0>        -0.1133
      9 C9         -5.6772   -6.7119    0.0202 C.3       1 <0>        -0.1660
     10 C10        -5.6568   -8.2187    0.0119 C.2       1 <0>         0.3474
     11 O1         -4.6029   -8.8082   -0.0013 O.2       1 <0>        -0.4041
     12 C11        -6.9515   -8.9899    0.0202 C.3       1 <0>        -0.1958
     13 C12        -6.6561  -10.4676    0.0094 C.2       1 <0>         0.5140
     14 O2         -5.5073  -10.8563   -0.0037 O.2       1 <0>        -0.5005
     15 N1         -7.6684  -11.3573    0.0143 N.am      1 <0>        -0.7233
     16 C13        -7.3812  -12.7938    0.0038 C.3       1 <0>         0.0983
     17 H1         -6.4905  -12.9847   -0.5946 H         1 <0>         0.1202
     18 C14        -8.5726  -13.5526   -0.5902 C.3       1 <0>        -0.1194
     19 C15        -8.3278  -15.0576   -0.4698 C.3       1 <0>        -0.1235
     20 C16        -8.2557  -15.4549    1.0055 C.3       1 <0>        -0.1158
     21 C17        -7.0524  -14.7678    1.6596 C.3       1 <0>        -0.1694
     22 C18        -7.1556  -13.2772    1.4193 C.2       1 <0>         0.3471
     23 O3         -7.0642  -12.4940    2.3340 O.2       1 <0>        -0.4411
     24 H2          1.0039    1.9031    0.0027 H         1 <0>         0.0534
     25 H3         -0.5459    1.8868   -0.8726 H         1 <0>         0.0532
     26 H4         -0.5289    1.8773    0.9072 H         1 <0>         0.0532
     27 H5          0.5123   -0.3556   -0.8948 H         1 <0>         0.0603
     28 H6          0.5293   -0.3651    0.8851 H         1 <0>         0.0604
     29 H7         -1.9435   -0.1821    0.9097 H         1 <0>         0.0604
     30 H8         -1.9605   -0.1726   -0.8702 H         1 <0>         0.0604
     31 H9         -0.9024   -2.4150   -0.8923 H         1 <0>         0.0608
     32 H10        -0.8854   -2.4246    0.8875 H         1 <0>         0.0609
     33 H11        -3.3581   -2.2415    0.9121 H         1 <0>         0.0606
     34 H12        -3.3751   -2.2320   -0.8677 H         1 <0>         0.0605
     35 H13        -2.3170   -4.4744   -0.8899 H         1 <0>         0.0618
     36 H14        -2.3000   -4.4840    0.8900 H         1 <0>         0.0619
     37 H15        -4.7728   -4.3010    0.9146 H         1 <0>         0.0622
     38 H16        -4.7898   -4.2914   -0.8653 H         1 <0>         0.0621
     39 H17        -3.7316   -6.5338   -0.8874 H         1 <0>         0.0680
     40 H18        -3.7146   -6.5434    0.8924 H         1 <0>         0.0681
     41 H19        -6.1874   -6.3604    0.9170 H         1 <0>         0.0975
     42 H20        -6.2044   -6.3508   -0.8628 H         1 <0>         0.0975
     43 H21        -7.5180   -8.7392    0.9169 H         1 <0>         0.1262
     44 H22        -7.5350   -8.7296   -0.8629 H         1 <0>         0.1257
     45 H23        -8.5872  -11.0465    0.0247 H         1 <0>         0.4026
     46 H24        -9.4798  -13.2873   -0.0473 H         1 <0>         0.0741
     47 H25        -8.6863  -13.2857   -1.6408 H         1 <0>         0.0833
     48 H26        -9.1437  -15.5971   -0.9508 H         1 <0>         0.0791
     49 H27        -7.3880  -15.3121   -0.9599 H         1 <0>         0.0737
     50 H28        -9.1704  -15.1446    1.5107 H         1 <0>         0.0687
     51 H29        -8.1447  -16.5363    1.0858 H         1 <0>         0.0797
     52 H30        -7.0547  -14.9672    2.7312 H         1 <0>         0.0913
     53 H31        -6.1304  -15.1441    1.2164 H         1 <0>         0.1010
@<TRIPOS>BOND
     1    1    2 1
     2    1   24 1
     3    1   25 1
     4    1   26 1
     5    2    3 1
     6    2   27 1
     7    2   28 1
     8    3    4 1
     9    3   29 1
    10    3   30 1
    11    4    5 1
    12    4   31 1
    13    4   32 1
    14    5    6 1
    15    5   33 1
    16    5   34 1
    17    6    7 1
    18    6   35 1
    19    6   36 1
    20    7    8 1
    21    7   37 1
    22    7   38 1
    23    8    9 1
    24    8   39 1
    25    8   40 1
    26    9   10 1
    27    9   41 1
    28    9   42 1
    29   10   11 2
    30   10   12 1
    31   12   13 1
    32   12   43 1
    33   12   44 1
    34   13   14 2
    35   13   15 am
    36   15   16 1
    37   15   45 1
    38   16   17 1
    39   16   22 1
    40   16   18 1
    41   18   19 1
    42   18   46 1
    43   18   47 1
    44   19   20 1
    45   19   48 1
    46   19   49 1
    47   20   21 1
    48   20   50 1
    49   20   51 1
    50   21   22 1
    51   21   52 1
    52   21   53 1
    53   22   23 2
@<TRIPOS>MOLECULE
ZINC72112659
   53    53     0     0     0
SMALL
USER_CHARGES

@<TRIPOS>ATOM
      1 C1         -0.0187    1.5258    0.0104 C.3       1 <0>        -0.1541
      2 C2          0.0021   -0.0041    0.0020 C.3       1 <0>        -0.1264
      3 C3         -1.4333   -0.5336    0.0129 C.3       1 <0>        -0.1209
      4 C4         -1.4126   -2.0635    0.0045 C.3       1 <0>        -0.1219
      5 C5         -2.8479   -2.5931    0.0153 C.3       1 <0>        -0.1198
      6 C6         -2.8272   -4.1229    0.0069 C.3       1 <0>        -0.1215
      7 C7         -4.2626   -4.6525    0.0178 C.3       1 <0>        -0.1190
      8 C8         -4.2418   -6.1823    0.0094 C.3       1 <0>        -0.1133
      9 C9         -5.6772   -6.7119    0.0202 C.3       1 <0>        -0.1660
     10 C10        -5.6568   -8.2187    0.0119 C.2       1 <0>         0.3474
     11 O1         -4.6029   -8.8082   -0.0013 O.2       1 <0>        -0.4041
     12 C11        -6.9515   -8.9899    0.0202 C.3       1 <0>        -0.1958
     13 C12        -6.6561  -10.4676    0.0094 C.2       1 <0>         0.5140
     14 O2         -5.5073  -10.8563   -0.0037 O.2       1 <0>        -0.5005
     15 N1         -7.6684  -11.3573    0.0143 N.am      1 <0>        -0.7233
     16 C13        -7.3812  -12.7938    0.0038 C.3       1 <0>         0.0983
     17 H1         -6.4792  -12.9911    0.5831 H         1 <0>         0.1202
     18 C14        -8.5612  -13.5590    0.6123 C.3       1 <0>        -0.1194
     19 C15        -8.3188  -15.0627    0.4711 C.3       1 <0>        -0.1235
     20 C16        -8.2749  -15.4441   -1.0095 C.3       1 <0>        -0.1158
     21 C17        -7.0842  -14.7499   -1.6790 C.3       1 <0>        -0.1693
     22 C18        -7.1827  -13.2619   -1.4208 C.2       1 <0>         0.3472
     23 O3         -7.1094  -12.4690   -2.3287 O.2       1 <0>        -0.4411
     24 H2          1.0039    1.9031    0.0027 H         1 <0>         0.0534
     25 H3         -0.5459    1.8868   -0.8726 H         1 <0>         0.0532
     26 H4         -0.5289    1.8773    0.9072 H         1 <0>         0.0532
     27 H5          0.5123   -0.3556   -0.8948 H         1 <0>         0.0604
     28 H6          0.5293   -0.3651    0.8851 H         1 <0>         0.0603
     29 H7         -1.9435   -0.1821    0.9097 H         1 <0>         0.0604
     30 H8         -1.9605   -0.1726   -0.8702 H         1 <0>         0.0604
     31 H9         -0.9024   -2.4150   -0.8923 H         1 <0>         0.0608
     32 H10        -0.8854   -2.4246    0.8875 H         1 <0>         0.0608
     33 H11        -3.3581   -2.2415    0.9121 H         1 <0>         0.0605
     34 H12        -3.3751   -2.2320   -0.8677 H         1 <0>         0.0606
     35 H13        -2.3170   -4.4744   -0.8899 H         1 <0>         0.0619
     36 H14        -2.3000   -4.4840    0.8900 H         1 <0>         0.0618
     37 H15        -4.7728   -4.3010    0.9146 H         1 <0>         0.0621
     38 H16        -4.7898   -4.2914   -0.8653 H         1 <0>         0.0622
     39 H17        -3.7316   -6.5338   -0.8874 H         1 <0>         0.0681
     40 H18        -3.7146   -6.5434    0.8924 H         1 <0>         0.0681
     41 H19        -6.1874   -6.3604    0.9170 H         1 <0>         0.0975
     42 H20        -6.2044   -6.3508   -0.8628 H         1 <0>         0.0975
     43 H21        -7.5180   -8.7392    0.9169 H         1 <0>         0.1257
     44 H22        -7.5350   -8.7296   -0.8629 H         1 <0>         0.1262
     45 H23        -8.5872  -11.0465    0.0247 H         1 <0>         0.4026
     46 H24        -8.6548  -13.3034    1.6677 H         1 <0>         0.0833
     47 H25        -9.4785  -13.2880    0.0897 H         1 <0>         0.0741
     48 H26        -7.3699  -15.3223    0.9404 H         1 <0>         0.0737
     49 H27        -9.1254  -15.6073    0.9618 H         1 <0>         0.0791
     50 H28        -8.1657  -16.5245   -1.1035 H         1 <0>         0.0797
     51 H29        -9.1991  -15.1285   -1.4938 H         1 <0>         0.0687
     52 H30        -6.1540  -15.1308   -1.2576 H         1 <0>         0.1010
     53 H31        -7.1071  -14.9378   -2.7524 H         1 <0>         0.0913
@<TRIPOS>BOND
     1    1    2 1
     2    1   24 1
     3    1   25 1
     4    1   26 1
     5    2    3 1
     6    2   27 1
     7    2   28 1
     8    3    4 1
     9    3   29 1
    10    3   30 1
    11    4    5 1
    12    4   31 1
    13    4   32 1
    14    5    6 1
    15    5   33 1
    16    5   34 1
    17    6    7 1
    18    6   35 1
    19    6   36 1
    20    7    8 1
    21    7   37 1
    22    7   38 1
    23    8    9 1
    24    8   39 1
    25    8   40 1
    26    9   10 1
    27    9   41 1
    28    9   42 1
    29   10   11 2
    30   10   12 1
    31   12   13 1
    32   12   43 1
    33   12   44 1
    34   13   14 2
    35   13   15 am
    36   15   16 1
    37   15   45 1
    38   16   17 1
    39   16   22 1
    40   16   18 1
    41   18   19 1
    42   18   46 1
    43   18   47 1
    44   19   20 1
    45   19   48 1
    46   19   49 1
    47   20   21 1
    48   20   50 1
    49   20   51 1
    50   21   22 1
    51   21   52 1
    52   21   53 1
    53   22   23 2
@<TRIPOS>MOLECULE
ZINC42764482
   49    49     0     0     0
SMALL
USER_CHARGES

@<TRIPOS>ATOM
      1 C1         -0.0187    1.5258    0.0104 C.3       1 <0>        -0.1542
      2 C2          0.0021   -0.0041    0.0020 C.3       1 <0>        -0.1263
      3 C3         -1.4333   -0.5336    0.0129 C.3       1 <0>        -0.1211
      4 C4         -1.4126   -2.0635    0.0045 C.3       1 <0>        -0.1215
      5 C5         -2.8479   -2.5931    0.0153 C.3       1 <0>        -0.1203
      6 C6         -2.8272   -4.1229    0.0069 C.3       1 <0>        -0.1213
      7 C7         -4.2626   -4.6525    0.0178 C.3       1 <0>        -0.1197
      8 C8         -4.2418   -6.1823    0.0094 C.3       1 <0>        -0.1210
      9 C9         -5.6772   -6.7119    0.0202 C.3       1 <0>        -0.1195
     10 C10        -5.6565   -8.2417    0.0118 C.3       1 <0>        -0.1066
     11 C11        -7.0918   -8.7713    0.0227 C.3       1 <0>        -0.1377
     12 C12        -7.0714  -10.2782    0.0144 C.2       1 <0>         0.5137
     13 O1         -6.0130  -10.8702    0.0011 O.2       1 <0>        -0.5184
     14 N1         -8.2293  -10.9679    0.0217 N.am      1 <0>        -0.7217
     15 C13        -8.2094  -12.4327    0.0137 C.3       1 <0>         0.0848
     16 H1         -7.3553  -12.8055    0.5790 H         1 <0>         0.1329
     17 C14        -9.5322  -12.9975    0.5916 C.3       1 <0>        -0.1635
     18 C15       -10.2994  -13.3316   -0.7162 C.3       1 <0>         0.0490
     19 O2         -9.2438  -13.7587   -1.6032 O.3       1 <0>        -0.3452
     20 C16        -8.1750  -12.9564   -1.4094 C.2       1 <0>         0.4664
     21 O3         -7.3304  -12.6960   -2.2333 O.2       1 <0>        -0.4231
     22 H2          1.0039    1.9031    0.0027 H         1 <0>         0.0534
     23 H3         -0.5459    1.8868   -0.8726 H         1 <0>         0.0533
     24 H4         -0.5289    1.8773    0.9072 H         1 <0>         0.0532
     25 H5          0.5123   -0.3556   -0.8948 H         1 <0>         0.0604
     26 H6          0.5293   -0.3651    0.8851 H         1 <0>         0.0603
     27 H7         -1.9435   -0.1821    0.9097 H         1 <0>         0.0604
     28 H8         -1.9605   -0.1726   -0.8702 H         1 <0>         0.0604
     29 H9         -0.9024   -2.4150   -0.8923 H         1 <0>         0.0607
     30 H10        -0.8854   -2.4246    0.8875 H         1 <0>         0.0606
     31 H11        -3.3581   -2.2415    0.9121 H         1 <0>         0.0602
     32 H12        -3.3751   -2.2320   -0.8677 H         1 <0>         0.0603
     33 H13        -2.3170   -4.4744   -0.8899 H         1 <0>         0.0609
     34 H14        -2.3000   -4.4840    0.8900 H         1 <0>         0.0608
     35 H15        -4.7728   -4.3010    0.9146 H         1 <0>         0.0604
     36 H16        -4.7898   -4.2914   -0.8653 H         1 <0>         0.0605
     37 H17        -3.7316   -6.5338   -0.8874 H         1 <0>         0.0626
     38 H18        -3.7146   -6.5434    0.8924 H         1 <0>         0.0623
     39 H19        -6.1874   -6.3604    0.9170 H         1 <0>         0.0622
     40 H20        -6.2044   -6.3508   -0.8628 H         1 <0>         0.0623
     41 H21        -5.1463   -8.5933   -0.8850 H         1 <0>         0.0712
     42 H22        -5.1293   -8.6028    0.8949 H         1 <0>         0.0706
     43 H23        -7.6020   -8.4198    0.9195 H         1 <0>         0.0963
     44 H24        -7.6190   -8.4102   -0.8604 H         1 <0>         0.0954
     45 H25        -9.0758  -10.4943    0.0324 H         1 <0>         0.4062
     46 H26        -9.3518  -13.8955    1.1824 H         1 <0>         0.1084
     47 H27       -10.0600  -12.2437    1.1758 H         1 <0>         0.1063
     48 H28       -11.0141  -14.1376   -0.5498 H         1 <0>         0.1209
     49 H29       -10.7988  -12.4456   -1.1083 H         1 <0>         0.0841
@<TRIPOS>BOND
     1    1    2 1
     2    1   22 1
     3    1   23 1
     4    1   24 1
     5    2    3 1
     6    2   25 1
     7    2   26 1
     8    3    4 1
     9    3   27 1
    10    3   28 1
    11    4    5 1
    12    4   29 1
    13    4   30 1
    14    5    6 1
    15    5   31 1
    16    5   32 1
    17    6    7 1
    18    6   33 1
    19    6   34 1
    20    7    8 1
    21    7   35 1
    22    7   36 1
    23    8    9 1
    24    8   37 1
    25    8   38 1
    26    9   10 1
    27    9   39 1
    28    9   40 1
    29   10   11 1
    30   10   41 1
    31   10   42 1
    32   11   12 1
    33   11   43 1
    34   11   44 1
    35   12   13 2
    36   12   14 am
    37   14   15 1
    38   14   45 1
    39   15   16 1
    40   15   20 1
    41   15   17 1
    42   17   18 1
    43   17   46 1
    44   17   47 1
    45   18   19 1
    46   18   48 1
    47   18   49 1
    48   19   20 1
    49   20   21 2
