@<TRIPOS>MOLECULE
ZINC03872462
   70    69     0     0     0
SMALL
USER_CHARGES
2-[2-[2-(3-amino-2-hydroxy-5-methyl-hexanoyl)amino-3-methyl-butanoyl]amino-3-methyl-butanoyl]aminobutanedioic acid
@<TRIPOS>ATOM
      1 C1          2.6284   -2.3298   -2.5474 C.3       1 <0>        -0.1667
      2 C2          1.1170   -2.5192   -2.6918 C.3       1 <0>        -0.1047
      3 C3          0.8041   -4.0063   -2.8694 C.3       1 <0>        -0.1525
      4 C4          0.4153   -1.9968   -1.4366 C.3       1 <0>        -0.1348
      5 C5          0.6067   -0.4820   -1.3384 C.3       1 <0>        -0.0054
      6 H1          1.6705   -0.2471   -1.3733 H         1 <0>         0.1610
      7 C6          0.0159    0.0224   -0.0203 C.3       1 <0>         0.0823
      8 H2          0.5805   -0.3942    0.8139 H         1 <0>         0.1685
      9 C7          0.0937    1.5268    0.0220 C.2       1 <0>         0.4540
     10 O1         -0.9239    2.1866    0.0289 O.2       1 <0>        -0.5036
     11 N1          1.2940    2.1391    0.0466 N.am      1 <0>        -0.6909
     12 C8          1.3696    3.6016    0.0878 C.3       1 <0>         0.1285
     13 H3          0.5514    4.0242   -0.4953 H         1 <0>         0.1188
     14 C9          1.2613    4.0772    1.5379 C.3       1 <0>        -0.1082
     15 C10        -0.0744    3.6188    2.1266 C.3       1 <0>        -0.1348
     16 C11         2.4098    3.4840    2.3564 C.3       1 <0>        -0.1503
     17 C12         2.6853    4.0531   -0.4921 C.2       1 <0>         0.5122
     18 O2          3.4814    3.2339   -0.8996 O.2       1 <0>        -0.5479
     19 N2          2.9772    5.3672   -0.5578 N.am      1 <0>        -0.6797
     20 C13         4.2562    5.8061   -1.1215 C.3       1 <0>         0.1324
     21 H4          5.0326    5.0851   -0.8657 H         1 <0>         0.1118
     22 C14         4.1351    5.9067   -2.6434 C.3       1 <0>        -0.1001
     23 C15         3.7680    4.5369   -3.2175 C.3       1 <0>        -0.1278
     24 C16         3.0453    6.9188   -3.0025 C.3       1 <0>        -0.1529
     25 C17         4.6177    7.1554   -0.5561 C.2       1 <0>         0.5177
     26 O3          3.8797    7.6971    0.2394 O.2       1 <0>        -0.5589
     27 N3          5.7612    7.7602   -0.9344 N.am      1 <0>        -0.6580
     28 C18         6.1127    9.0719   -0.3847 C.3       1 <0>         0.1244
     29 H5          5.7774    9.1337    0.6506 H         1 <0>         0.0884
     30 C19         7.6302    9.2587   -0.4414 C.3       1 <0>        -0.1520
     31 C20         8.2940    8.2552    0.4661 C.2       1 <0>         0.4632
     32 O4          7.6223    7.4712    1.0938 O.co2     1 <0>        -0.6385
     33 C21         5.4430   10.1519   -1.1948 C.2       1 <0>         0.4642
     34 O5          4.7440    9.8562   -2.1349 O.co2     1 <0>        -0.6422
     35 O6         -1.3497   -0.3870    0.0772 O.3       1 <0>        -0.5084
     36 H6          2.9823   -2.8821   -1.6768 H         1 <0>         0.0705
     37 H7          3.1283   -2.7020   -3.4416 H         1 <0>         0.0704
     38 H8          2.8513   -1.2704   -2.4208 H         1 <0>         0.0575
     39 H9          0.7632   -1.9670   -3.5623 H         1 <0>         0.0626
     40 H10        -0.2722   -4.1407   -2.9776 H         1 <0>         0.0602
     41 H11         1.3083   -4.3798   -3.7607 H         1 <0>         0.0665
     42 H12         1.1532   -4.5579   -1.9965 H         1 <0>         0.0659
     43 H13         0.8433   -2.4749   -0.5554 H         1 <0>         0.1186
     44 H14        -0.6488   -2.2257   -1.4933 H         1 <0>         0.0986
     45 H15         2.1079    1.6114    0.0371 H         1 <0>         0.4138
     46 H16         1.3175    5.1654    1.5685 H         1 <0>         0.0978
     47 H17        -0.8926    4.0415    1.5435 H         1 <0>         0.0638
     48 H18        -0.1307    2.5307    2.0960 H         1 <0>         0.0468
     49 H19        -0.1516    3.9577    3.1597 H         1 <0>         0.0580
     50 H20         3.3614    3.8106    1.9370 H         1 <0>         0.0643
     51 H21         2.3326    3.8229    3.3895 H         1 <0>         0.0663
     52 H22         2.3536    2.3959    2.3258 H         1 <0>         0.0498
     53 H23         2.3404    6.0224   -0.2319 H         1 <0>         0.4127
     54 H24         5.0867    6.2333   -3.0628 H         1 <0>         0.0888
     55 H25         3.6818    4.6085   -4.3017 H         1 <0>         0.0453
     56 H26         4.5444    3.8158   -2.9616 H         1 <0>         0.0609
     57 H27         2.8164    4.2103   -2.7981 H         1 <0>         0.0415
     58 H28         3.3068    7.8948   -2.5935 H         1 <0>         0.0911
     59 H29         2.9590    6.9905   -4.0867 H         1 <0>         0.0510
     60 H30         2.0937    6.5923   -2.5831 H         1 <0>         0.0409
     61 H31         6.3515    7.3270   -1.5707 H         1 <0>         0.3879
     62 H32         7.9767    9.1089   -1.4639 H         1 <0>         0.0602
     63 H33         7.8845   10.2673   -0.1156 H         1 <0>         0.0884
     64 H34        -1.9125   -0.0521   -0.6343 H         1 <0>         0.3777
     65 H35        -1.0646   -0.0309   -2.4528 H         1 <0>         0.4322
     66 H36         0.0890    1.1670   -2.4570 H         1 <0>         0.4405
     67 O7          9.6315    8.2325    0.5771 O.co2     1 <0>        -0.7861
     68 O8          5.6232   11.4423   -0.8721 O.co2     1 <0>        -0.7700
     69 N4         -0.0645    0.1603   -2.4823 N.4       1 <0>        -0.6478
     70 H37         0.3229   -0.2158   -3.3556 H         1 <0>         0.4442
@<TRIPOS>BOND
     1    1    2 1
     2    1   36 1
     3    1   37 1
     4    1   38 1
     5    2    3 1
     6    2    4 1
     7    2   39 1
     8    3   40 1
     9    3   41 1
    10    3   42 1
    11    4    5 1
    12    4   43 1
    13    4   44 1
    14    5    6 1
    15    5    7 1
    16    5   69 1
    17    7    8 1
    18    7    9 1
    19    7   35 1
    20    9   10 2
    21    9   11 am
    22   11   12 1
    23   11   45 1
    24   12   13 1
    25   12   14 1
    26   12   17 1
    27   14   15 1
    28   14   16 1
    29   14   46 1
    30   15   47 1
    31   15   48 1
    32   15   49 1
    33   16   50 1
    34   16   51 1
    35   16   52 1
    36   17   18 2
    37   17   19 am
    38   19   20 1
    39   19   53 1
    40   20   21 1
    41   20   22 1
    42   20   25 1
    43   22   23 1
    44   22   24 1
    45   22   54 1
    46   23   55 1
    47   23   56 1
    48   23   57 1
    49   24   58 1
    50   24   59 1
    51   24   60 1
    52   25   26 2
    53   25   27 am
    54   27   28 1
    55   27   61 1
    56   28   29 1
    57   28   30 1
    58   28   33 1
    59   30   31 1
    60   30   62 1
    61   30   63 1
    62   31   32 2
    63   31   67 1
    64   33   34 2
    65   33   68 1
    66   35   64 1
    67   65   69 1
    68   66   69 1
    69   69   70 1
@<TRIPOS>MOLECULE
ZINC01542895
   46    46     0     0     0
SMALL
USER_CHARGES

@<TRIPOS>ATOM
      1 C1         -1.4921   -0.2802   -0.1168 C.3       1 <0>        -0.1480
      2 C2          0.0168   -0.0902    0.0502 C.3       1 <0>        -0.0946
      3 C3          0.4965   -0.8703    1.2758 C.3       1 <0>        -0.1503
      4 C4          0.7370   -0.6066   -1.1970 C.3       1 <0>        -0.1084
      5 C5          2.2304   -0.2918   -1.0907 C.3       1 <0>         0.0678
      6 H1          2.6270   -0.7186   -0.1695 H         1 <0>         0.0947
      7 C6          2.9543   -0.8853   -2.2717 C.2       1 <0>         0.4976
      8 O1          3.4188   -0.1561   -3.1314 O.co2     1 <0>        -0.7136
      9 O2          3.0754   -2.0947   -2.3676 O.co2     1 <0>        -0.6706
     10 N1          2.4237    1.1604   -1.0789 N.am      1 <0>        -0.6768
     11 C7          3.5233    1.6892   -0.5064 C.2       1 <0>         0.4501
     12 O3          4.3528    0.9629   -0.0011 O.2       1 <0>        -0.5167
     13 C8          3.7222    3.1829   -0.4943 C.3       1 <0>         0.0771
     14 H2          2.8536    3.6614   -0.0419 H         1 <0>         0.1637
     15 C9          3.8924    3.6865   -1.9290 C.3       1 <0>         0.0050
     16 H3          2.9682    3.5231   -2.4834 H         1 <0>         0.1563
     17 C10         4.2180    5.1813   -1.9096 C.3       1 <0>        -0.0899
     18 C11         4.2645    5.7037   -3.3224 C.ar      1 <0>        -0.1239
     19 C12         5.4532    5.6842   -4.0277 C.ar      1 <0>        -0.1395
     20 C13         5.4959    6.1633   -5.3236 C.ar      1 <0>        -0.1080
     21 C14         4.3497    6.6615   -5.9144 C.ar      1 <0>        -0.1065
     22 C15         3.1608    6.6802   -5.2094 C.ar      1 <0>        -0.1069
     23 C16         3.1172    6.1971   -3.9150 C.ar      1 <0>        -0.1039
     24 N2          4.9886    2.9549   -2.5779 N.4       1 <0>        -0.6381
     25 O4          4.8906    3.5018    0.2642 O.3       1 <0>        -0.5140
     26 H4         -1.8485    0.3439   -0.9363 H         1 <0>         0.0522
     27 H5         -1.7043   -1.3262   -0.3379 H         1 <0>         0.0571
     28 H6         -1.9986    0.0063    0.8049 H         1 <0>         0.0532
     29 H7          0.2370    0.9689    0.1845 H         1 <0>         0.0619
     30 H8          0.2764   -1.9293    1.1415 H         1 <0>         0.0580
     31 H9          1.5715   -0.7349    1.3948 H         1 <0>         0.0554
     32 H10        -0.0165   -0.5023    2.1644 H         1 <0>         0.0512
     33 H11         0.5977   -1.6848   -1.2767 H         1 <0>         0.0865
     34 H12         0.3253   -0.1207   -2.0817 H         1 <0>         0.0633
     35 H13         1.7603    1.7412   -1.4830 H         1 <0>         0.3944
     36 H14         3.4484    5.7136   -1.3505 H         1 <0>         0.1229
     37 H15         5.1859    5.3362   -1.4329 H         1 <0>         0.1051
     38 H16         6.3487    5.2949   -3.5661 H         1 <0>         0.1226
     39 H17         6.4247    6.1488   -5.8744 H         1 <0>         0.1304
     40 H18         4.3832    7.0365   -6.9267 H         1 <0>         0.1298
     41 H19         2.2654    7.0697   -5.6709 H         1 <0>         0.1308
     42 H20         2.1875    6.2082   -3.3654 H         1 <0>         0.1303
     43 H21         4.7738    1.9691   -2.5907 H         1 <0>         0.4538
     44 H22         5.1008    3.2870   -3.5240 H         1 <0>         0.4364
     45 H23         5.7035    3.1085   -0.0817 H         1 <0>         0.3783
     46 H24         5.8440    3.1062   -2.0647 H         1 <0>         0.4236
@<TRIPOS>BOND
     1    1    2 1
     2    1   26 1
     3    1   27 1
     4    1   28 1
     5    2    3 1
     6    2    4 1
     7    2   29 1
     8    3   30 1
     9    3   31 1
    10    3   32 1
    11    4    5 1
    12    4   33 1
    13    4   34 1
    14    5    6 1
    15    5    7 1
    16    5   10 1
    17    7    8 2
    18    7    9 1
    19   10   11 am
    20   10   35 1
    21   11   12 2
    22   11   13 1
    23   13   14 1
    24   13   15 1
    25   13   25 1
    26   15   16 1
    27   15   17 1
    28   15   24 1
    29   17   18 1
    30   17   36 1
    31   17   37 1
    32   18   23 ar
    33   18   19 ar
    34   19   20 ar
    35   19   38 1
    36   20   21 ar
    37   20   39 1
    38   21   22 ar
    39   21   40 1
    40   22   23 ar
    41   22   41 1
    42   23   42 1
    43   24   43 1
    44   24   44 1
    45   24   46 1
    46   25   45 1
@<TRIPOS>MOLECULE
ZINC01542895
   45    45     0     0     0
SMALL
USER_CHARGES

@<TRIPOS>ATOM
      1 C1          0.6528   -0.2592    1.3564 C.3       1 <0>        -0.1445
      2 C2          0.0386   -0.0894   -0.0345 C.3       1 <0>        -0.0966
      3 C3          0.8796   -0.8522   -1.0600 C.3       1 <0>        -0.1471
      4 C4         -1.3882   -0.6419   -0.0329 C.3       1 <0>        -0.1047
      5 C5         -2.0504   -0.3483   -1.3805 C.3       1 <0>         0.0724
      6 H1         -1.4402   -0.7627   -2.1831 H         1 <0>         0.0844
      7 C6         -3.4197   -0.9765   -1.4149 C.2       1 <0>         0.4903
      8 O1         -4.4145   -0.2719   -1.3899 O.co2     1 <0>        -0.6843
      9 O2         -3.5329   -2.1893   -1.4677 O.co2     1 <0>        -0.6968
     10 N1         -2.1732    1.1006   -1.5589 N.am      1 <0>        -0.6848
     11 C7         -2.2403    1.6236   -2.7993 C.2       1 <0>         0.4808
     12 O3         -2.1991    0.8947   -3.7678 O.2       1 <0>        -0.5425
     13 C8         -2.3666    3.1140   -2.9828 C.3       1 <0>         0.0531
     14 H2         -1.5529    3.6150   -2.4584 H         1 <0>         0.1189
     15 C9         -3.7065    3.5861   -2.4146 C.3       1 <0>         0.0778
     16 H3         -3.7206    3.4261   -1.3365 H         1 <0>         0.0933
     17 C10        -3.8900    5.0758   -2.7116 C.3       1 <0>        -0.0675
     18 C11        -5.1496    5.5690   -2.0473 C.ar      1 <0>        -0.0627
     19 C12        -6.3538    5.5169   -2.7241 C.ar      1 <0>        -0.0897
     20 C13        -7.5092    5.9693   -2.1148 C.ar      1 <0>        -0.1228
     21 C14        -7.4604    6.4734   -0.8286 C.ar      1 <0>        -0.1293
     22 C15        -6.2564    6.5247   -0.1515 C.ar      1 <0>        -0.1239
     23 C16        -5.1017    6.0683   -0.7592 C.ar      1 <0>        -0.1216
     24 N2         -4.7978    2.8247   -3.0370 N.3       1 <0>        -0.8349
     25 O4         -2.3018    3.4298   -4.3750 O.3       1 <0>        -0.5371
     26 H4          1.6967    0.0535    1.3333 H         1 <0>         0.0492
     27 H5          0.1057    0.3539    2.0726 H         1 <0>         0.0514
     28 H6          0.5937   -1.3060    1.6544 H         1 <0>         0.0539
     29 H7          0.0183    0.9685   -0.2960 H         1 <0>         0.0646
     30 H8          0.8999   -1.9102   -0.7985 H         1 <0>         0.0544
     31 H9          0.4420   -0.7313   -2.0510 H         1 <0>         0.0576
     32 H10         1.8961   -0.4587   -1.0612 H         1 <0>         0.0469
     33 H11        -1.3606   -1.7191    0.1314 H         1 <0>         0.0795
     34 H12        -1.9606   -0.1674    0.7642 H         1 <0>         0.0604
     35 H13        -2.2061    1.6836   -0.7844 H         1 <0>         0.3898
     36 H14        -3.0347    5.6310   -2.3264 H         1 <0>         0.0744
     37 H15        -3.9648    5.2250   -3.7887 H         1 <0>         0.0776
     38 H16        -6.3919    5.1230   -3.7290 H         1 <0>         0.1198
     39 H17        -8.4499    5.9293   -2.6438 H         1 <0>         0.1166
     40 H18        -8.3630    6.8275   -0.3528 H         1 <0>         0.1149
     41 H19        -6.2182    6.9188    0.8533 H         1 <0>         0.1159
     42 H20        -4.1616    6.1049   -0.2288 H         1 <0>         0.1168
     43 H21        -4.8061    2.9566   -4.0373 H         1 <0>         0.3280
     44 H22        -2.9976    3.0171   -4.9047 H         1 <0>         0.3769
     45 H23        -4.7354    1.8455   -2.8019 H         1 <0>         0.3711
@<TRIPOS>BOND
     1    1    2 1
     2    1   26 1
     3    1   27 1
     4    1   28 1
     5    2    3 1
     6    2    4 1
     7    2   29 1
     8    3   30 1
     9    3   31 1
    10    3   32 1
    11    4    5 1
    12    4   33 1
    13    4   34 1
    14    5    6 1
    15    5    7 1
    16    5   10 1
    17    7    8 2
    18    7    9 1
    19   10   11 am
    20   10   35 1
    21   11   12 2
    22   11   13 1
    23   13   14 1
    24   13   15 1
    25   13   25 1
    26   15   16 1
    27   15   17 1
    28   15   24 1
    29   17   18 1
    30   17   36 1
    31   17   37 1
    32   18   23 ar
    33   18   19 ar
    34   19   20 ar
    35   19   38 1
    36   20   21 ar
    37   20   39 1
    38   21   22 ar
    39   21   40 1
    40   22   23 ar
    41   22   41 1
    42   23   42 1
    43   24   43 1
    44   24   45 1
    45   25   44 1
