@<TRIPOS>MOLECULE
ZINC21982951
   60    63     0     0     0
SMALL
USER_CHARGES

@<TRIPOS>ATOM
      1 C1         -2.0700    1.6928    0.2333 C.3       1 <0>        -0.1170
      2 C2         -1.6482    0.2604    0.0301 C.ar      1 <0>        -0.0813
      3 C3         -1.8479   -0.3525   -1.1919 C.ar      1 <0>        -0.1034
      4 C4         -1.4615   -1.6665   -1.3798 C.ar      1 <0>        -0.0990
      5 C5         -0.8738   -2.3725   -0.3459 C.ar      1 <0>        -0.1046
      6 C6         -0.6714   -1.7660    0.8791 C.ar      1 <0>        -0.0220
      7 C7         -1.0534   -0.4428    1.0688 C.ar      1 <0>         0.1347
      8 N1         -0.8441    0.1769    2.3055 N.am      1 <0>        -0.6659
      9 C8         -1.2819   -0.4110    3.4365 C.2       1 <0>         0.6018
     10 O1         -1.7689   -1.5261    3.3939 O.2       1 <0>        -0.4722
     11 C9         -1.1720    0.2905    4.7149 C.2       1 <0>        -0.2635
     12 C10        -1.5472   -0.1201    5.9866 C.2       1 <0>         0.1512
     13 N2         -1.3262    0.7270    6.9599 N.2       1 <0>        -0.5510
     14 C11        -0.7756    1.9070    6.7361 C.2       1 <0>         0.2513
     15 S1         -0.5107    1.9100    5.0742 S.3       1 <0>         0.2445
     16 N3         -0.4817    2.8997    7.6498 N.pl3     1 <0>        -0.5870
     17 C12        -0.6908    2.6801    9.0050 C.ar      1 <0>         0.4543
     18 C13        -1.0534    1.4192    9.4679 C.ar      1 <0>        -0.2926
     19 C14        -1.2512    1.2508   10.8352 C.ar      1 <0>         0.4935
     20 N4         -1.0875    2.2952   11.6453 N.ar      1 <0>        -0.5328
     21 C15        -0.7435    3.4737   11.1677 C.ar      1 <0>         0.4541
     22 N5         -0.5417    3.6719    9.8809 N.ar      1 <0>        -0.5672
     23 C16        -0.5694    4.6273   12.1217 C.3       1 <0>        -0.1251
     24 N6         -1.6138    0.0143   11.3464 N.pl3     1 <0>        -0.5370
     25 C17        -2.0559   -0.1253   12.7422 C.3       1 <0>         0.1090
     26 C18        -3.3866   -0.8852   12.7576 C.3       1 <0>         0.0383
     27 N7         -3.2335   -2.1493   12.0251 N.3       1 <0>        -0.5289
     28 C19        -2.9165   -1.9105   10.6107 C.3       1 <0>         0.0343
     29 C20        -1.5725   -1.1917   10.5056 C.3       1 <0>         0.1057
     30 C21        -4.4334   -2.9856   12.1619 C.3       1 <0>         0.0545
     31 C22        -4.1483   -4.3816   11.6043 C.3       1 <0>         0.0776
     32 O2         -3.1500   -5.0191   12.4038 O.3       1 <0>        -0.5606
     33 Cl1         0.0658   -2.6526    2.1768 Cl        1 <0>        -0.0453
     34 H1         -1.2464    2.3553   -0.0328 H         1 <0>         0.0773
     35 H2         -2.9308    1.9112   -0.3987 H         1 <0>         0.0785
     36 H3         -2.3379    1.8478    1.2784 H         1 <0>         0.0640
     37 H4         -2.3069    0.1956   -2.0014 H         1 <0>         0.1372
     38 H5         -1.6193   -2.1430   -2.3361 H         1 <0>         0.1391
     39 H6         -0.5731   -3.3989   -0.4959 H         1 <0>         0.1403
     40 H7         -0.3838    1.0296    2.3489 H         1 <0>         0.4083
     41 H8         -1.9972   -1.0858    6.1634 H         1 <0>         0.2027
     42 H9         -0.1293    3.7505    7.3451 H         1 <0>         0.4460
     43 H10        -1.1784    0.5927    8.7841 H         1 <0>         0.2218
     44 H11         0.4644    4.6619   12.4652 H         1 <0>         0.1245
     45 H12        -0.8146    5.5596   11.6130 H         1 <0>         0.1071
     46 H13        -1.2322    4.4948   12.9768 H         1 <0>         0.1273
     47 H14        -1.3096   -0.6823   13.3087 H         1 <0>         0.0989
     48 H15        -2.1929    0.8619   13.1834 H         1 <0>         0.1094
     49 H16        -3.6740   -1.0944   13.7880 H         1 <0>         0.1036
     50 H17        -4.1569   -0.2794   12.2806 H         1 <0>         0.0428
     51 H18        -2.8631   -2.8634   10.0841 H         1 <0>         0.1043
     52 H19        -3.6935   -1.2904   10.1636 H         1 <0>         0.0450
     53 H20        -1.3900   -0.9091    9.4688 H         1 <0>         0.1029
     54 H21        -0.7788   -1.8532   10.8529 H         1 <0>         0.1042
     55 H22        -4.7041   -3.0633   13.2149 H         1 <0>         0.0912
     56 H23        -5.2561   -2.5340   11.6075 H         1 <0>         0.0533
     57 H24        -5.0627   -4.9745   11.6240 H         1 <0>         0.0547
     58 H25        -3.7921   -4.2970   10.5776 H         1 <0>         0.0454
     59 H26        -2.9188   -5.9101   12.1076 H         1 <0>         0.3805
     60 H27        -0.2852    4.5531    9.5669 H         1 <0>         0.4414
@<TRIPOS>BOND
     1    1    2 1
     2    1   34 1
     3    1   35 1
     4    1   36 1
     5    2    7 ar
     6    2    3 ar
     7    3    4 ar
     8    3   37 1
     9    4    5 ar
    10    4   38 1
    11    5    6 ar
    12    5   39 1
    13    6    7 ar
    14    6   33 1
    15    7    8 1
    16    8    9 am
    17    8   40 1
    18    9   10 2
    19    9   11 1
    20   11   15 1
    21   11   12 2
    22   12   13 1
    23   12   41 1
    24   13   14 2
    25   14   15 1
    26   14   16 1
    27   16   17 1
    28   16   42 1
    29   17   22 ar
    30   17   18 ar
    31   18   19 ar
    32   18   43 1
    33   19   20 ar
    34   19   24 1
    35   20   21 ar
    36   21   22 ar
    37   21   23 1
    38   22   60 1
    39   23   44 1
    40   23   45 1
    41   23   46 1
    42   24   29 1
    43   24   25 1
    44   25   26 1
    45   25   47 1
    46   25   48 1
    47   26   27 1
    48   26   49 1
    49   26   50 1
    50   27   28 1
    51   27   30 1
    52   28   29 1
    53   28   51 1
    54   28   52 1
    55   29   53 1
    56   29   54 1
    57   30   31 1
    58   30   55 1
    59   30   56 1
    60   31   32 1
    61   31   57 1
    62   31   58 1
    63   32   59 1
@<TRIPOS>MOLECULE
ZINC21982951
   60    63     0     0     0
SMALL
USER_CHARGES

@<TRIPOS>ATOM
      1 C1          3.2739    6.6585    1.8418 C.3       1 <0>        -0.1168
      2 C2          2.5810    7.9910    1.9663 C.ar      1 <0>        -0.0823
      3 C3          2.8983    9.0189    1.0995 C.ar      1 <0>        -0.1038
      4 C4          2.2635   10.2419    1.2126 C.ar      1 <0>        -0.1008
      5 C5          1.3088   10.4411    2.1933 C.ar      1 <0>        -0.1049
      6 C6          0.9869    9.4175    3.0639 C.ar      1 <0>        -0.0226
      7 C7          1.6192    8.1849    2.9486 C.ar      1 <0>         0.1373
      8 N1          1.2913    7.1440    3.8238 N.am      1 <0>        -0.6678
      9 C8          1.3128    7.3511    5.1554 C.2       1 <0>         0.6036
     10 O1          1.5184    8.4680    5.5945 O.2       1 <0>        -0.4759
     11 C9          1.0891    6.2346    6.0728 C.2       1 <0>        -0.2694
     12 C10         1.0619    6.2190    7.4604 C.2       1 <0>         0.1522
     13 N2          0.8357    5.0596    8.0247 N.2       1 <0>        -0.5060
     14 C11         0.6446    3.9678    7.3056 C.2       1 <0>         0.2464
     15 S1          0.7674    4.5141    5.7185 S.3       1 <0>         0.2029
     16 N3          0.3973    2.6842    7.7505 N.pl3     1 <0>        -0.5650
     17 C12         0.2197    2.4414    9.1063 C.ar      1 <0>         0.4999
     18 C13        -0.1342    1.1736    9.5555 C.ar      1 <0>        -0.3181
     19 C14        -0.3003    0.9817   10.9244 C.ar      1 <0>         0.4940
     20 N4         -0.1157    2.0114   11.7481 N.ar      1 <0>        -0.5712
     21 C15         0.2193    3.1978   11.2829 C.ar      1 <0>         0.4509
     22 N5          0.3911    3.4178    9.9956 N.ar      1 <0>        -0.4879
     23 C16         0.4179    4.3344   12.2523 C.3       1 <0>        -0.1253
     24 N6         -0.6531   -0.2629   11.4224 N.pl3     1 <0>        -0.5744
     25 C17        -0.9639   -0.4449   12.8484 C.3       1 <0>         0.1013
     26 C18        -2.3114   -1.1652   12.9649 C.3       1 <0>         0.0387
     27 N7         -2.2712   -2.4031   12.1749 N.3       1 <0>        -0.5277
     28 C19        -2.0835   -2.1176   10.7462 C.3       1 <0>         0.0305
     29 C20        -0.7325   -1.4351   10.5377 C.3       1 <0>         0.1149
     30 C21        -3.4796   -3.2085   12.3965 C.3       1 <0>         0.0543
     31 C22        -3.2958   -4.5889   11.7629 C.3       1 <0>         0.0774
     32 O2         -2.2472   -5.2869   12.4378 O.3       1 <0>        -0.5615
     33 Cl1        -0.2110    9.6681    4.2952 Cl        1 <0>        -0.0453
     34 H1          2.7121    6.0191    1.1609 H         1 <0>         0.0767
     35 H2          4.2810    6.8077    1.4524 H         1 <0>         0.0779
     36 H3          3.3298    6.1850    2.8220 H         1 <0>         0.0648
     37 H4          3.6435    8.8670    0.3327 H         1 <0>         0.1365
     38 H5          2.5139   11.0437    0.5337 H         1 <0>         0.1383
     39 H6          0.8148   11.3976    2.2790 H         1 <0>         0.1396
     40 H7          1.0484    6.2731    3.4723 H         1 <0>         0.4083
     41 H8          1.2191    7.1147    8.0430 H         1 <0>         0.1979
     42 H9          0.3477    1.9521    7.1161 H         1 <0>         0.4525
     43 H10        -0.2767    0.3593    8.8606 H         1 <0>         0.1835
     44 H11         1.4596    4.3615   12.5720 H         1 <0>         0.1250
     45 H12         0.1626    5.2758   11.7656 H         1 <0>         0.1301
     46 H13        -0.2249    4.1881   13.1203 H         1 <0>         0.1049
     47 H14        -0.1857   -1.0458   13.3190 H         1 <0>         0.1119
     48 H15        -1.0251    0.5276   13.3369 H         1 <0>         0.0843
     49 H16        -2.5057   -1.4068   14.0099 H         1 <0>         0.1076
     50 H17        -3.1034   -0.5184   12.5874 H         1 <0>         0.0465
     51 H18        -2.1124   -3.0499   10.1822 H         1 <0>         0.1076
     52 H19        -2.8786   -1.4576   10.3996 H         1 <0>         0.0467
     53 H20        -0.6409   -1.1170    9.4992 H         1 <0>         0.1034
     54 H21         0.0684   -2.1330   10.7819 H         1 <0>         0.1075
     55 H22        -3.6507   -3.3200   13.4672 H         1 <0>         0.0925
     56 H23        -4.3362   -2.7111   11.9416 H         1 <0>         0.0553
     57 H24        -4.2233   -5.1548   11.8494 H         1 <0>         0.0565
     58 H25        -3.0370   -4.4741   10.7103 H         1 <0>         0.0456
     59 H26        -2.0752   -6.1719   12.0881 H         1 <0>         0.3821
     60 H27        -0.2297    1.8867   12.7033 H         1 <0>         0.4392
@<TRIPOS>BOND
     1    1    2 1
     2    1   34 1
     3    1   35 1
     4    1   36 1
     5    2    7 ar
     6    2    3 ar
     7    3    4 ar
     8    3   37 1
     9    4    5 ar
    10    4   38 1
    11    5    6 ar
    12    5   39 1
    13    6    7 ar
    14    6   33 1
    15    7    8 1
    16    8    9 am
    17    8   40 1
    18    9   10 2
    19    9   11 1
    20   11   15 1
    21   11   12 2
    22   12   13 1
    23   12   41 1
    24   13   14 2
    25   14   15 1
    26   14   16 1
    27   16   17 1
    28   16   42 1
    29   17   18 ar
    30   17   22 ar
    31   18   43 1
    32   18   19 ar
    33   19   24 1
    34   19   20 ar
    35   20   60 1
    36   20   21 ar
    37   21   23 1
    38   21   22 ar
    39   23   44 1
    40   23   45 1
    41   23   46 1
    42   24   29 1
    43   24   25 1
    44   25   26 1
    45   25   47 1
    46   25   48 1
    47   26   27 1
    48   26   49 1
    49   26   50 1
    50   27   28 1
    51   27   30 1
    52   28   29 1
    53   28   51 1
    54   28   52 1
    55   29   53 1
    56   29   54 1
    57   30   31 1
    58   30   55 1
    59   30   56 1
    60   31   32 1
    61   31   57 1
    62   31   58 1
    63   32   59 1
@<TRIPOS>MOLECULE
ZINC21982951
   59    62     0     0     0
SMALL
USER_CHARGES

@<TRIPOS>ATOM
      1 C1          3.4106    6.6420    1.8847 C.3       1 <0>        -0.1165
      2 C2          2.6976    7.9659    1.9845 C.ar      1 <0>        -0.0852
      3 C3          3.0204    8.9921    1.1176 C.ar      1 <0>        -0.1055
      4 C4          2.3672   10.2073    1.2080 C.ar      1 <0>        -0.1070
      5 C5          1.3885   10.4004    2.1660 C.ar      1 <0>        -0.1064
      6 C6          1.0609    9.3785    3.0365 C.ar      1 <0>        -0.0243
      7 C7          1.7118    8.1536    2.9438 C.ar      1 <0>         0.1460
      8 N1          1.3783    7.1144    3.8189 N.am      1 <0>        -0.6734
      9 C8          1.3676    7.3308    5.1492 C.2       1 <0>         0.6131
     10 O1          1.5489    8.4533    5.5848 O.2       1 <0>        -0.4899
     11 C9          1.1384    6.2176    6.0693 C.2       1 <0>        -0.3092
     12 C10         1.0807    6.2111    7.4561 C.2       1 <0>         0.1722
     13 N2          0.8573    5.0526    8.0233 N.2       1 <0>        -0.5180
     14 C11         0.6966    3.9535    7.3079 C.2       1 <0>         0.3121
     15 S1          0.8472    4.4907    5.7202 S.3       1 <0>         0.1340
     16 N3          0.4564    2.6698    7.7563 N.pl3     1 <0>        -0.5904
     17 C12         0.2490    2.4343    9.1091 C.ar      1 <0>         0.4412
     18 C13        -0.1036    1.1661    9.5586 C.ar      1 <0>        -0.3412
     19 C14        -0.3003    0.9817   10.9244 C.ar      1 <0>         0.4686
     20 N4         -0.1450    2.0186   11.7452 N.ar      1 <0>        -0.5923
     21 C15         0.1898    3.2050   11.2799 C.ar      1 <0>         0.3946
     22 N5          0.3901    3.4182    9.9956 N.ar      1 <0>        -0.5459
     23 C16         0.3546    4.3498   12.2460 C.3       1 <0>        -0.0834
     24 N6         -0.6531   -0.2629   11.4224 N.pl3     1 <0>        -0.5966
     25 C17        -1.0693   -0.4249   12.8237 C.3       1 <0>         0.1300
     26 C18        -2.3993   -1.1856   12.8517 C.3       1 <0>         0.0401
     27 N7         -2.2595   -2.4378   12.0965 N.3       1 <0>        -0.5276
     28 C19        -1.9688   -2.1765   10.6804 C.3       1 <0>         0.0363
     29 C20        -0.6270   -1.4554   10.5619 C.3       1 <0>         0.1269
     30 C21        -3.4565   -3.2768   12.2420 C.3       1 <0>         0.0537
     31 C22        -3.1814   -4.6636   11.6572 C.3       1 <0>         0.0792
     32 O2         -2.1684   -5.3132   12.4279 O.3       1 <0>        -0.5589
     33 Cl1        -0.1672    9.6214    4.2392 Cl        1 <0>        -0.0433
     34 H1          2.8725    5.9906    1.1961 H         1 <0>         0.0754
     35 H2          4.4240    6.8020    1.5166 H         1 <0>         0.0754
     36 H3          3.4510    6.1760    2.8692 H         1 <0>         0.0676
     37 H4          3.7844    8.8450    0.3685 H         1 <0>         0.1337
     38 H5          2.6220   11.0077    0.5292 H         1 <0>         0.1350
     39 H6          0.8801   11.3508    2.2339 H         1 <0>         0.1371
     40 H7          1.1547    6.2381    3.4683 H         1 <0>         0.4085
     41 H8          1.2132    7.1127    8.0357 H         1 <0>         0.1884
     42 H9          0.4325    1.9325    7.1264 H         1 <0>         0.4387
     43 H10        -0.2220    0.3459    8.8660 H         1 <0>         0.1413
     44 H11         1.3882    4.3890   12.5900 H         1 <0>         0.0870
     45 H12         0.1021    5.2855   11.7470 H         1 <0>         0.0890
     46 H13        -0.3072    4.2031   13.0995 H         1 <0>         0.0846
     47 H14        -0.3126   -0.9904   13.3674 H         1 <0>         0.0744
     48 H15        -1.1984    0.5551   13.2831 H         1 <0>         0.1008
     49 H16        -2.6676   -1.4113   13.8837 H         1 <0>         0.0903
     50 H17        -3.1785   -0.5727   12.3986 H         1 <0>         0.0372
     51 H18        -1.9249   -3.1208   10.1378 H         1 <0>         0.0905
     52 H19        -2.7540   -1.5497   10.2576 H         1 <0>         0.0380
     53 H20        -0.4638   -1.1563    9.5265 H         1 <0>         0.0877
     54 H21         0.1731   -2.1219   10.8840 H         1 <0>         0.0802
     55 H22        -3.7077   -3.3713   13.2985 H         1 <0>         0.0861
     56 H23        -4.2894   -2.8169   11.7102 H         1 <0>         0.0487
     57 H24        -4.0952   -5.2572   11.6843 H         1 <0>         0.0498
     58 H25        -2.8443   -4.5626   10.6256 H         1 <0>         0.0451
     59 H26        -1.9426   -6.1994   12.1134 H         1 <0>         0.3762
@<TRIPOS>BOND
     1    1    2 1
     2    1   34 1
     3    1   35 1
     4    1   36 1
     5    2    7 ar
     6    2    3 ar
     7    3    4 ar
     8    3   37 1
     9    4    5 ar
    10    4   38 1
    11    5    6 ar
    12    5   39 1
    13    6    7 ar
    14    6   33 1
    15    7    8 1
    16    8    9 am
    17    8   40 1
    18    9   10 2
    19    9   11 1
    20   11   15 1
    21   11   12 2
    22   12   13 1
    23   12   41 1
    24   13   14 2
    25   14   15 1
    26   14   16 1
    27   16   17 1
    28   16   42 1
    29   17   18 ar
    30   17   22 ar
    31   18   43 1
    32   18   19 ar
    33   19   24 1
    34   19   20 ar
    35   20   21 ar
    36   21   23 1
    37   21   22 ar
    38   23   44 1
    39   23   45 1
    40   23   46 1
    41   24   29 1
    42   24   25 1
    43   25   26 1
    44   25   47 1
    45   25   48 1
    46   26   27 1
    47   26   49 1
    48   26   50 1
    49   27   28 1
    50   27   30 1
    51   28   29 1
    52   28   51 1
    53   28   52 1
    54   29   53 1
    55   29   54 1
    56   30   31 1
    57   30   55 1
    58   30   56 1
    59   31   32 1
    60   31   57 1
    61   31   58 1
    62   32   59 1
@<TRIPOS>MOLECULE
ZINC21982951
   61    64     0     0     0
SMALL
USER_CHARGES

@<TRIPOS>ATOM
      1 C1          3.2770    6.6581    1.8427 C.3       1 <0>        -0.1166
      2 C2          2.5837    7.9904    1.9667 C.ar      1 <0>        -0.0814
      3 C3          2.9012    9.0183    1.0999 C.ar      1 <0>        -0.1028
      4 C4          2.2660   10.2411    1.2125 C.ar      1 <0>        -0.0975
      5 C5          1.3108   10.4402    2.1928 C.ar      1 <0>        -0.1039
      6 C6          0.9888    9.4167    3.0634 C.ar      1 <0>        -0.0218
      7 C7          1.6215    8.1842    2.9485 C.ar      1 <0>         0.1327
      8 N1          1.2933    7.1433    3.8237 N.am      1 <0>        -0.6648
      9 C8          1.3141    7.3507    5.1552 C.2       1 <0>         0.5983
     10 O1          1.5193    8.4677    5.5943 O.2       1 <0>        -0.4690
     11 C9          1.0903    6.2342    6.0727 C.2       1 <0>        -0.2500
     12 C10         1.0624    6.2188    7.4604 C.2       1 <0>         0.1439
     13 N2          0.8362    5.0594    8.0246 N.2       1 <0>        -0.4984
     14 C11         0.6458    3.9675    7.3056 C.2       1 <0>         0.2172
     15 S1          0.7692    4.5136    5.7185 S.3       1 <0>         0.2242
     16 N3          0.3986    2.6839    7.7506 N.pl3     1 <0>        -0.5513
     17 C12         0.2203    2.4413    9.1063 C.ar      1 <0>         0.5098
     18 C13        -0.1335    1.1734    9.5556 C.ar      1 <0>        -0.3097
     19 C14        -0.3003    0.9817   10.9244 C.ar      1 <0>         0.4927
     20 N4         -0.1163    2.0116   11.7481 N.ar      1 <0>        -0.5695
     21 C15         0.2187    3.1980   11.2828 C.ar      1 <0>         0.4589
     22 N5          0.3911    3.4178    9.9956 N.ar      1 <0>        -0.4762
     23 C16         0.4165    4.3348   12.2521 C.3       1 <0>        -0.1303
     24 N6         -0.6531   -0.2629   11.4224 N.pl3     1 <0>        -0.6123
     25 C17        -0.9643   -0.4465   12.8484 C.3       1 <0>         0.0782
     26 C18        -2.3027   -1.1838   12.9625 C.3       1 <0>        -0.0204
     27 N7         -2.2406   -2.4311   12.1903 N.4       1 <0>        -0.3852
     28 C19        -2.0770   -2.1279   10.7629 C.3       1 <0>        -0.0304
     29 C20        -0.7330   -1.4363   10.5388 C.3       1 <0>         0.0932
     30 C21        -3.4827   -3.1900   12.3886 C.3       1 <0>        -0.0061
     31 C22        -3.3702   -4.5448   11.6865 C.3       1 <0>         0.0434
     32 O2         -2.3479   -5.3224   12.3128 O.3       1 <0>        -0.5819
     33 Cl1        -0.2098    9.6671    4.2940 Cl        1 <0>        -0.0466
     34 H1          2.7157    6.0184    1.1617 H         1 <0>         0.0770
     35 H2          4.2843    6.8074    1.4538 H         1 <0>         0.0791
     36 H3          3.3325    6.1847    2.8230 H         1 <0>         0.0631
     37 H4          3.6468    8.8665    0.3335 H         1 <0>         0.1380
     38 H5          2.5166   11.0428    0.5336 H         1 <0>         0.1401
     39 H6          0.8165   11.3966    2.2780 H         1 <0>         0.1410
     40 H7          1.0508    6.2723    3.4722 H         1 <0>         0.4077
     41 H8          1.2191    7.1146    8.0429 H         1 <0>         0.2016
     42 H9          0.3494    1.9517    7.1163 H         1 <0>         0.4545
     43 H10        -0.2756    0.3590    8.8607 H         1 <0>         0.1860
     44 H11         1.4581    4.3621   12.5724 H         1 <0>         0.1309
     45 H12         0.1613    5.2760   11.7653 H         1 <0>         0.1358
     46 H13        -0.2267    4.1885   13.1199 H         1 <0>         0.1083
     47 H14        -0.1795   -1.0367   13.3215 H         1 <0>         0.1249
     48 H15        -1.0392    0.5259   13.3352 H         1 <0>         0.1232
     49 H16        -2.5028   -1.4138   14.0090 H         1 <0>         0.1602
     50 H17        -3.0999   -0.5526   12.5701 H         1 <0>         0.1410
     51 H18        -2.1110   -3.0537   10.1885 H         1 <0>         0.1585
     52 H19        -2.8811   -1.4682   10.4370 H         1 <0>         0.1418
     53 H20        -0.6550   -1.1179    9.4992 H         1 <0>         0.1416
     54 H21         0.0756   -2.1281   10.7747 H         1 <0>         0.1211
     55 H22        -3.6469   -3.3459   13.4548 H         1 <0>         0.1465
     56 H23        -4.3202   -2.6321   11.9697 H         1 <0>         0.1464
     57 H24        -4.3221   -5.0710   11.7578 H         1 <0>         0.1026
     58 H25        -3.1180   -4.3904   10.6374 H         1 <0>         0.0719
     59 H26        -2.2211   -6.1961   11.9183 H         1 <0>         0.4154
     60 H27        -0.2308    1.8869   12.7032 H         1 <0>         0.4393
     61 H28        -1.4578   -2.9831   12.5075 H         1 <0>         0.4359
@<TRIPOS>BOND
     1    1    2 1
     2    1   34 1
     3    1   35 1
     4    1   36 1
     5    2    7 ar
     6    2    3 ar
     7    3    4 ar
     8    3   37 1
     9    4    5 ar
    10    4   38 1
    11    5    6 ar
    12    5   39 1
    13    6    7 ar
    14    6   33 1
    15    7    8 1
    16    8    9 am
    17    8   40 1
    18    9   10 2
    19    9   11 1
    20   11   15 1
    21   11   12 2
    22   12   13 1
    23   12   41 1
    24   13   14 2
    25   14   15 1
    26   14   16 1
    27   16   17 1
    28   16   42 1
    29   17   18 ar
    30   17   22 ar
    31   18   43 1
    32   18   19 ar
    33   19   24 1
    34   19   20 ar
    35   20   60 1
    36   20   21 ar
    37   21   23 1
    38   21   22 ar
    39   23   44 1
    40   23   45 1
    41   23   46 1
    42   24   29 1
    43   24   25 1
    44   25   26 1
    45   25   47 1
    46   25   48 1
    47   26   27 1
    48   26   49 1
    49   26   50 1
    50   27   28 1
    51   27   30 1
    52   27   61 1
    53   28   29 1
    54   28   51 1
    55   28   52 1
    56   29   53 1
    57   29   54 1
    58   30   31 1
    59   30   55 1
    60   30   56 1
    61   31   32 1
    62   31   57 1
    63   31   58 1
    64   32   59 1
@<TRIPOS>MOLECULE
ZINC00581684
   52    54     0     0     0
SMALL
USER_CHARGES

@<TRIPOS>ATOM
      1 C1         -0.3920    1.3196    0.2829 C.3       1 <0>        -0.1144
      2 C2         -0.1867   -0.1617    0.0967 C.ar      1 <0>        -0.1268
      3 C3         -0.3263   -0.7256   -1.1570 C.ar      1 <0>        -0.0825
      4 C4         -0.1394   -2.0830   -1.3319 C.ar      1 <0>        -0.1290
      5 C5          0.1904   -2.8860   -0.2467 C.ar      1 <0>         0.1580
      6 C6          0.3318   -2.3229    1.0134 C.ar      1 <0>        -0.1501
      7 C7          0.1484   -0.9579    1.1847 C.ar      1 <0>         0.1606
      8 N1          0.2955   -0.3855    2.4522 N.am      1 <0>        -0.6629
      9 C8          0.0535   -1.1204    3.5557 C.2       1 <0>         0.5622
     10 O1         -0.2158   -2.3016    3.4526 O.2       1 <0>        -0.5145
     11 C9          0.1154   -0.4914    4.8893 C.ar      1 <0>        -0.1506
     12 C10         0.4192    0.8673    5.0097 C.ar      1 <0>        -0.0674
     13 C11         0.4760    1.4504    6.2558 C.ar      1 <0>        -0.1527
     14 C12         0.2322    0.6893    7.3931 C.ar      1 <0>         0.1394
     15 C13        -0.0698   -0.6625    7.2777 C.ar      1 <0>        -0.1532
     16 C14        -0.1352   -1.2517    6.0348 C.ar      1 <0>        -0.0369
     17 O2          0.2896    1.2676    8.6195 O.3       1 <0>        -0.4971
     18 N2          0.3790   -4.2602   -0.4245 N.am      1 <0>        -0.6664
     19 C15         0.9498   -4.7214   -1.5549 C.2       1 <0>         0.5619
     20 O3          1.2253   -3.9516   -2.4545 O.2       1 <0>        -0.5163
     21 C16         1.2409   -6.1634   -1.7009 C.ar      1 <0>        -0.0899
     22 C17         0.9202   -7.0505   -0.6714 C.ar      1 <0>        -0.1453
     23 C18         1.1928   -8.3959   -0.8100 C.ar      1 <0>        -0.0758
     24 C19         1.7835   -8.8709   -1.9662 C.ar      1 <0>        -0.1713
     25 C20         2.1068   -7.9963   -2.9969 C.ar      1 <0>         0.2078
     26 C21         1.8316   -6.6431   -2.8697 C.ar      1 <0>        -0.1355
     27 N3          2.7044   -8.4812   -4.1629 N.pl3     1 <0>        -0.6372
     28 C22         2.9904   -9.9115   -4.2993 C.3       1 <0>         0.0917
     29 C23         3.0451   -7.5592   -5.2493 C.3       1 <0>         0.0891
     30 H1          0.5556    1.8387    0.1393 H         1 <0>         0.0713
     31 H2         -1.1179    1.6802   -0.4458 H         1 <0>         0.0736
     32 H3         -0.7623    1.5113    1.2900 H         1 <0>         0.0611
     33 H4         -0.5825   -0.1037   -2.0020 H         1 <0>         0.1311
     34 H5         -0.2499   -2.5208   -2.3130 H         1 <0>         0.1399
     35 H6          0.5880   -2.9448    1.8584 H         1 <0>         0.1542
     36 H7          0.5717    0.5405    2.5370 H         1 <0>         0.4114
     37 H8          0.6094    1.4592    4.1265 H         1 <0>         0.1303
     38 H9          0.7107    2.5004    6.3497 H         1 <0>         0.1385
     39 H10        -0.2583   -1.2506    8.1638 H         1 <0>         0.1394
     40 H11        -0.3746   -2.3010    5.9456 H         1 <0>         0.1435
     41 H12        -0.5533    1.6320    8.9223 H         1 <0>         0.3984
     42 H13         0.0990   -4.8815    0.2658 H         1 <0>         0.4128
     43 H14         0.4590   -6.6834    0.2335 H         1 <0>         0.1228
     44 H15         0.9443   -9.0803   -0.0124 H         1 <0>         0.1302
     45 H16         1.9948   -9.9251   -2.0687 H         1 <0>         0.1284
     46 H17         2.0782   -5.9623   -3.6711 H         1 <0>         0.1377
     47 H18         2.1327  -10.4123   -4.7483 H         1 <0>         0.0505
     48 H19         3.8649  -10.0481   -4.9353 H         1 <0>         0.0689
     49 H20         3.1863  -10.3382   -3.3156 H         1 <0>         0.0694
     50 H21         4.0582   -7.1845   -5.1035 H         1 <0>         0.0512
     51 H22         2.9854   -8.0836   -6.2030 H         1 <0>         0.0692
     52 H23         2.3452   -6.7236   -5.2496 H         1 <0>         0.0713
@<TRIPOS>BOND
     1    1    2 1
     2    1   30 1
     3    1   31 1
     4    1   32 1
     5    2    7 ar
     6    2    3 ar
     7    3    4 ar
     8    3   33 1
     9    4    5 ar
    10    4   34 1
    11    5    6 ar
    12    5   18 1
    13    6    7 ar
    14    6   35 1
    15    7    8 1
    16    8    9 am
    17    8   36 1
    18    9   10 2
    19    9   11 1
    20   11   16 ar
    21   11   12 ar
    22   12   13 ar
    23   12   37 1
    24   13   14 ar
    25   13   38 1
    26   14   15 ar
    27   14   17 1
    28   15   16 ar
    29   15   39 1
    30   16   40 1
    31   17   41 1
    32   18   19 am
    33   18   42 1
    34   19   20 2
    35   19   21 1
    36   21   26 ar
    37   21   22 ar
    38   22   23 ar
    39   22   43 1
    40   23   24 ar
    41   23   44 1
    42   24   25 ar
    43   24   45 1
    44   25   26 ar
    45   25   27 1
    46   26   46 1
    47   27   28 1
    48   27   29 1
    49   28   47 1
    50   28   48 1
    51   28   49 1
    52   29   50 1
    53   29   51 1
    54   29   52 1
@<TRIPOS>MOLECULE
ZINC28950516
   42    44     0     0     0
SMALL
USER_CHARGES
3-[[4-(5-hydroxy-2-methyl-anilino)pyrimidin-2-yl]amino]benzamide
@<TRIPOS>ATOM
      1 C1          3.6524   -0.4211   -1.5409 C.3       1 <0>        -0.1074
      2 C2          3.0901    0.7261   -0.7416 C.ar      1 <0>        -0.1228
      3 C3          2.4361    0.4819    0.4506 C.ar      1 <0>        -0.0695
      4 C4          1.9244    1.5320    1.1887 C.ar      1 <0>        -0.1528
      5 C5          2.0567    2.8352    0.7292 C.ar      1 <0>         0.1617
      6 C6          2.7120    3.0845   -0.4660 C.ar      1 <0>        -0.2087
      7 C7          3.2302    2.0287   -1.2038 C.ar      1 <0>         0.1818
      8 N1          3.8915    2.2760   -2.4102 N.pl3     1 <0>        -0.6774
      9 C8          3.2239    2.1086   -3.6137 C.ar      1 <0>         0.4855
     10 C9          1.8844    1.7129   -3.6319 C.ar      1 <0>        -0.3312
     11 C10         1.2584    1.5627   -4.8538 C.ar      1 <0>         0.2109
     12 N2          1.9439    1.7874   -5.9653 N.ar      1 <0>        -0.5937
     13 C11         3.2151    2.1574   -5.9184 C.ar      1 <0>         0.5994
     14 N3          3.8505    2.3170   -4.7671 N.ar      1 <0>        -0.6176
     15 N4          3.8970    2.3826   -7.1029 N.pl3     1 <0>        -0.6526
     16 C12         3.2808    2.1073   -8.3277 C.ar      1 <0>         0.1706
     17 C13         2.4061    1.0327   -8.4397 C.ar      1 <0>        -0.0892
     18 C14         1.7909    0.7594   -9.6468 C.ar      1 <0>        -0.1066
     19 C15         2.0490    1.5452  -10.7518 C.ar      1 <0>        -0.1075
     20 C16         2.9297    2.6233  -10.6512 C.ar      1 <0>        -0.1168
     21 C17         3.5466    2.9025   -9.4317 C.ar      1 <0>        -0.0935
     22 C18         3.2083    3.4663  -11.8335 C.2       1 <0>         0.5644
     23 O1          3.9760    4.4045  -11.7438 O.2       1 <0>        -0.5491
     24 N5          2.6110    3.1946  -13.0108 N.am      1 <0>        -0.8731
     25 O2          1.5488    3.8665    1.4540 O.3       1 <0>        -0.5082
     26 H1          3.4452   -1.3674   -1.0197 H         1 <0>         0.0667
     27 H2          4.7394   -0.2934   -1.6508 H         1 <0>         0.0669
     28 H3          3.1829   -0.4399   -2.5355 H         1 <0>         0.0652
     29 H4          2.3281   -0.5314    0.8084 H         1 <0>         0.1347
     30 H5          1.4172    1.3382    2.1223 H         1 <0>         0.1327
     31 H6          2.8198    4.0981   -0.8228 H         1 <0>         0.1300
     32 H7          4.9416    2.6034   -2.4047 H         1 <0>         0.4392
     33 H8          1.3494    1.5317   -2.7114 H         1 <0>         0.1382
     34 H9          0.2225    1.2614   -4.9030 H         1 <0>         0.1668
     35 H10         4.9232    2.7780   -7.0801 H         1 <0>         0.4501
     36 H11         2.2034    0.4118   -7.5796 H         1 <0>         0.1381
     37 H12         1.1093   -0.0746   -9.7268 H         1 <0>         0.1313
     38 H13         1.5697    1.3256  -11.6943 H         1 <0>         0.1256
     39 H14         4.2293    3.7351   -9.3479 H         1 <0>         0.1369
     40 H15         2.8183    3.8218  -13.8904 H         1 <0>         0.4265
     41 H16         1.9162    2.3457  -13.0921 H         1 <0>         0.4189
     42 H17         1.6538    4.8991    1.0896 H         1 <0>         0.4358
@<TRIPOS>BOND
     1    1    2 1
     2    1   26 1
     3    1   27 1
     4    1   28 1
     5    2    7 ar
     6    2    3 ar
     7    3    4 ar
     8    3   29 1
     9    4    5 ar
    10    4   30 1
    11    5    6 ar
    12    5   25 1
    13    6    7 ar
    14    6   31 1
    15    7    8 1
    16    8    9 1
    17    8   32 1
    18    9   14 ar
    19    9   10 ar
    20   10   11 ar
    21   10   33 1
    22   11   12 ar
    23   11   34 1
    24   12   13 ar
    25   13   14 ar
    26   13   15 1
    27   15   16 1
    28   15   35 1
    29   16   21 ar
    30   16   17 ar
    31   17   18 ar
    32   17   36 1
    33   18   19 ar
    34   18   37 1
    35   19   20 ar
    36   19   38 1
    37   20   21 ar
    38   20   22 1
    39   21   39 1
    40   22   23 2
    41   22   24 am
    42   24   40 1
    43   24   41 1
    44   25   42 1
@<TRIPOS>MOLECULE
ZINC02576349
   43    46     0     0     0
SMALL
USER_CHARGES
7-(1-naphthyl)-9-tert-butyl-2,4,8,9-tetrazabicyclo[4.3.0]nona-1,3,5,7-tetraen-5-amine
@<TRIPOS>ATOM
      1 C1         -2.2648    1.4156   -1.1798 C.3       1 <0>        -0.1444
      2 C2         -1.0921    2.2875   -0.7266 C.3       1 <0>         0.1895
      3 C3         -1.4339    2.9467    0.6111 C.3       1 <0>        -0.1619
      4 C4         -0.8260    3.3695   -1.7751 C.3       1 <0>        -0.1623
      5 N1          0.1032    1.4552   -0.5696 N.pl3     1 <0>        -0.3674
      6 C5          1.3308    1.9052   -0.1828 C.ar      1 <0>         0.3804
      7 C6          2.1889    0.7898   -0.1661 C.ar      1 <0>        -0.3265
      8 C7          1.3808   -0.3606   -0.5722 C.2       1 <0>         0.1648
      9 N2          0.1635    0.0765   -0.7990 N.2       1 <0>        -0.2277
     10 C8          1.8488   -1.7584   -0.7026 C.ar      1 <0>        -0.0125
     11 C9          2.9319   -2.0612   -1.5103 C.ar      1 <0>        -0.0976
     12 C10         3.3811   -3.3708   -1.6324 C.ar      1 <0>        -0.1175
     13 C11         2.7643   -4.3918   -0.9743 C.ar      1 <0>        -0.0881
     14 C12         1.6574   -4.1307   -0.1487 C.ar      1 <0>        -0.0497
     15 C13         1.1904   -2.8012   -0.0075 C.ar      1 <0>        -0.0279
     16 C14         0.0864   -2.5419    0.8173 C.ar      1 <0>        -0.1006
     17 C15        -0.5230   -3.5696    1.4714 C.ar      1 <0>        -0.1104
     18 C16        -0.0653   -4.8782    1.3334 C.ar      1 <0>        -0.1109
     19 C17         1.0037   -5.1664    0.5416 C.ar      1 <0>        -0.1058
     20 C18         3.5302    0.9803    0.2031 C.ar      1 <0>         0.5194
     21 N3          3.9291    2.2083    0.5206 N.ar      1 <0>        -0.6077
     22 C19         3.0891    3.2274    0.4913 C.ar      1 <0>         0.3852
     23 N4          1.8252    3.0965    0.1525 N.ar      1 <0>        -0.5722
     24 N5          4.4132   -0.0817    0.2360 N.pl3     1 <0>        -0.8244
     25 H1         -2.4544    0.6447   -0.4329 H         1 <0>         0.0672
     26 H2         -3.1541    2.0348   -1.2967 H         1 <0>         0.0758
     27 H3         -2.0213    0.9459   -2.1329 H         1 <0>         0.0677
     28 H4         -0.5984    3.5679    0.9340 H         1 <0>         0.0772
     29 H5         -2.3232    3.5660    0.4943 H         1 <0>         0.0800
     30 H6         -1.6235    2.1759    1.3581 H         1 <0>         0.0594
     31 H7         -0.5825    2.8999   -2.7281 H         1 <0>         0.0596
     32 H8         -1.7154    3.9888   -1.8919 H         1 <0>         0.0799
     33 H9          0.0094    3.9907   -1.4522 H         1 <0>         0.0773
     34 H10         3.4359   -1.2709   -2.0469 H         1 <0>         0.1296
     35 H11         4.2309   -3.5835   -2.2641 H         1 <0>         0.1329
     36 H12         3.1262   -5.4030   -1.0874 H         1 <0>         0.1333
     37 H13        -0.2792   -1.5323    0.9330 H         1 <0>         0.1262
     38 H14        -1.3729   -3.3671    2.1063 H         1 <0>         0.1247
     39 H15        -0.5658   -5.6756    1.8626 H         1 <0>         0.1263
     40 H16         1.3482   -6.1854    0.4444 H         1 <0>         0.1313
     41 H17         3.4552    4.2081    0.7568 H         1 <0>         0.2041
     42 H18         4.0875   -0.9872    0.1138 H         1 <0>         0.4127
     43 H19         5.3589    0.0781    0.3813 H         1 <0>         0.4111
@<TRIPOS>BOND
     1    1    2 1
     2    1   25 1
     3    1   26 1
     4    1   27 1
     5    2    3 1
     6    2    4 1
     7    2    5 1
     8    3   28 1
     9    3   29 1
    10    3   30 1
    11    4   31 1
    12    4   32 1
    13    4   33 1
    14    5    9 1
    15    5    6 1
    16    6   23 ar
    17    6    7 ar
    18    7    8 1
    19    7   20 ar
    20    8    9 2
    21    8   10 1
    22   10   15 ar
    23   10   11 ar
    24   11   12 ar
    25   11   34 1
    26   12   13 ar
    27   12   35 1
    28   13   14 ar
    29   13   36 1
    30   14   19 ar
    31   14   15 ar
    32   15   16 ar
    33   16   17 ar
    34   16   37 1
    35   17   18 ar
    36   17   38 1
    37   18   19 ar
    38   18   39 1
    39   19   40 1
    40   20   21 ar
    41   20   24 1
    42   21   22 ar
    43   22   23 ar
    44   22   41 1
    45   24   42 1
    46   24   43 1
@<TRIPOS>MOLECULE
ZINC02047275
   40    42     0     0     0
SMALL
USER_CHARGES

@<TRIPOS>ATOM
      1 C1          0.7504    1.4813   -0.5243 C.3       1 <0>        -0.1202
      2 C2          0.6799   -0.0230   -0.4691 C.ar      1 <0>        -0.0709
      3 C3         -0.5065   -0.6686   -0.7679 C.ar      1 <0>        -0.1163
      4 C4         -0.5769   -2.0460   -0.7194 C.ar      1 <0>        -0.0803
      5 C5          0.5506   -2.7869   -0.3684 C.ar      1 <0>        -0.0302
      6 C6          1.7435   -2.1308   -0.0684 C.ar      1 <0>        -0.1049
      7 C7          1.8034   -0.7533   -0.1253 C.ar      1 <0>        -0.1170
      8 C8          0.4813   -4.2668   -0.3141 C.2       1 <0>         0.1646
      9 C9          1.0233   -5.1212    0.7421 C.ar      1 <0>        -0.3256
     10 C10         1.7203   -4.8974    1.9412 C.ar      1 <0>         0.5179
     11 N1          2.0660   -5.9499    2.6758 N.ar      1 <0>        -0.6060
     12 C11         1.7644   -7.1781    2.2929 C.ar      1 <0>         0.3830
     13 N2          1.1143   -7.4354    1.1795 N.ar      1 <0>        -0.5706
     14 C12         0.7242   -6.4464    0.3753 C.ar      1 <0>         0.3781
     15 N3          0.0542   -6.3875   -0.8104 N.pl3     1 <0>        -0.3674
     16 N4         -0.0827   -5.0514   -1.2016 N.2       1 <0>        -0.2318
     17 C13        -0.4483   -7.5436   -1.5568 C.3       1 <0>         0.1893
     18 C14        -1.4481   -8.3137   -0.6918 C.3       1 <0>        -0.1621
     19 C15        -1.1417   -7.0641   -2.8336 C.3       1 <0>        -0.1441
     20 C16         0.7202   -8.4603   -1.9245 C.3       1 <0>        -0.1621
     21 N5          2.0388   -3.6157    2.3464 N.pl3     1 <0>        -0.8296
     22 H1          1.0385    1.7949   -1.5277 H         1 <0>         0.0748
     23 H2         -0.2256    1.9000   -0.2789 H         1 <0>         0.0696
     24 H3          1.4893    1.8370    0.1937 H         1 <0>         0.0697
     25 H4         -1.3795   -0.0936   -1.0393 H         1 <0>         0.1298
     26 H5         -1.5038   -2.5489   -0.9525 H         1 <0>         0.1288
     27 H6          2.6201   -2.6997    0.2042 H         1 <0>         0.1308
     28 H7          2.7281   -0.2441    0.1030 H         1 <0>         0.1308
     29 H8          2.0645   -8.0045    2.9201 H         1 <0>         0.2039
     30 H9         -2.2806   -7.6606   -0.4299 H         1 <0>         0.0595
     31 H10        -1.8220   -9.1739   -1.2472 H         1 <0>         0.0799
     32 H11        -0.9541   -8.6553    0.2178 H         1 <0>         0.0770
     33 H12        -0.4294   -6.5155   -3.4498 H         1 <0>         0.0676
     34 H13        -1.5156   -7.9243   -3.3889 H         1 <0>         0.0757
     35 H14        -1.9742   -6.4110   -2.5716 H         1 <0>         0.0673
     36 H15         1.2142   -8.8019   -1.0149 H         1 <0>         0.0770
     37 H16         0.3463   -9.3205   -2.4798 H         1 <0>         0.0799
     38 H17         1.4325   -7.9117   -2.5407 H         1 <0>         0.0596
     39 H18         1.5920   -2.8546    1.9438 H         1 <0>         0.4138
     40 H19         2.7091   -3.4768    3.0336 H         1 <0>         0.4102
@<TRIPOS>BOND
     1    1    2 1
     2    1   22 1
     3    1   23 1
     4    1   24 1
     5    2    7 ar
     6    2    3 ar
     7    3    4 ar
     8    3   25 1
     9    4    5 ar
    10    4   26 1
    11    5    6 ar
    12    5    8 1
    13    6    7 ar
    14    6   27 1
    15    7   28 1
    16    8   16 2
    17    8    9 1
    18    9   14 ar
    19    9   10 ar
    20   10   11 ar
    21   10   21 1
    22   11   12 ar
    23   12   13 ar
    24   12   29 1
    25   13   14 ar
    26   14   15 1
    27   15   16 1
    28   15   17 1
    29   17   18 1
    30   17   19 1
    31   17   20 1
    32   18   30 1
    33   18   31 1
    34   18   32 1
    35   19   33 1
    36   19   34 1
    37   19   35 1
    38   20   36 1
    39   20   37 1
    40   20   38 1
    41   21   39 1
    42   21   40 1
@<TRIPOS>MOLECULE
ZINC13533769
   36    37     0     0     0
SMALL
USER_CHARGES
2-amino-4-methyl-N-(2,4,6-trimethylphenyl)thiazole-5-carboxamide
@<TRIPOS>ATOM
      1 C1         -1.2677    1.9964   -0.1336 C.3       1 <0>        -0.1151
      2 C2          0.0479    1.2639   -0.0745 C.ar      1 <0>        -0.0791
      3 C3          1.1006    1.7935    0.6492 C.ar      1 <0>        -0.1175
      4 C4          2.3094    1.1276    0.7006 C.ar      1 <0>        -0.0592
      5 C5          2.4672   -0.0754    0.0246 C.ar      1 <0>         0.1273
      6 C6          1.4079   -0.6047   -0.7013 C.ar      1 <0>        -0.0850
      7 C7          0.2017    0.0663   -0.7487 C.ar      1 <0>        -0.1181
      8 C8          1.5746   -1.9094   -1.4368 C.3       1 <0>        -0.1113
      9 N1          3.6897   -0.7525    0.0750 N.am      1 <0>        -0.6731
     10 C9          4.8205   -0.1316   -0.3151 C.2       1 <0>         0.6202
     11 O1          4.7925    1.0452   -0.6267 O.2       1 <0>        -0.5086
     12 C10         6.0807   -0.8709   -0.3641 C.2       1 <0>        -0.3235
     13 C11         7.3468   -0.4410   -0.7354 C.2       1 <0>         0.2125
     14 N2          8.3235   -1.3092   -0.6883 N.2       1 <0>        -0.5890
     15 C12         8.1195   -2.5626   -0.3107 C.2       1 <0>         0.3759
     16 S1          6.4170   -2.5813    0.0300 S.3       1 <0>         0.0593
     17 N3          9.0299   -3.5930   -0.2132 N.pl3     1 <0>        -0.7833
     18 C13         7.5889    0.9803   -1.1741 C.3       1 <0>        -0.0950
     19 C14         3.4559    1.7053    1.4899 C.3       1 <0>        -0.1077
     20 H1         -1.9062    1.6631    0.6846 H         1 <0>         0.0711
     21 H2         -1.0911    3.0682   -0.0432 H         1 <0>         0.0671
     22 H3         -1.7574    1.7877   -1.0848 H         1 <0>         0.0668
     23 H4          0.9773    2.7290    1.1747 H         1 <0>         0.1253
     24 H5         -0.6223   -0.3445   -1.3132 H         1 <0>         0.1255
     25 H6          1.9316   -1.7135   -2.4479 H         1 <0>         0.0722
     26 H7          2.2974   -2.5331   -0.9108 H         1 <0>         0.0610
     27 H8          0.6156   -2.4252   -1.4836 H         1 <0>         0.0701
     28 H9          3.7238   -1.6690    0.3907 H         1 <0>         0.4040
     29 H10         8.7394   -4.4707    0.0804 H         1 <0>         0.4248
     30 H11         9.9610   -3.4404   -0.4382 H         1 <0>         0.4212
     31 H12         7.8419    1.5901   -0.3069 H         1 <0>         0.0839
     32 H13         8.4120    1.0048   -1.8882 H         1 <0>         0.0755
     33 H14         6.6879    1.3738   -1.6446 H         1 <0>         0.0983
     34 H15         3.9760    2.4478    0.8846 H         1 <0>         0.0863
     35 H16         3.0728    2.1776    2.3944 H         1 <0>         0.0607
     36 H17         4.1482    0.9084    1.7613 H         1 <0>         0.0565
@<TRIPOS>BOND
     1    1    2 1
     2    1   20 1
     3    1   21 1
     4    1   22 1
     5    2    7 ar
     6    2    3 ar
     7    3    4 ar
     8    3   23 1
     9    4    5 ar
    10    4   19 1
    11    5    6 ar
    12    5    9 1
    13    6    7 ar
    14    6    8 1
    15    7   24 1
    16    8   25 1
    17    8   26 1
    18    8   27 1
    19    9   10 am
    20    9   28 1
    21   10   11 2
    22   10   12 1
    23   12   16 1
    24   12   13 2
    25   13   14 1
    26   13   18 1
    27   14   15 2
    28   15   16 1
    29   15   17 1
    30   17   29 1
    31   17   30 1
    32   18   31 1
    33   18   32 1
    34   18   33 1
    35   19   34 1
    36   19   35 1
    37   19   36 1
@<TRIPOS>MOLECULE
ZINC28950583
   44    47     0     0     0
SMALL
USER_CHARGES
3-[[4-[(5-methyl-1H-indazol-4-yl)amino]pyrimidin-2-yl]amino]benzamide
@<TRIPOS>ATOM
      1 C1         -1.9860   -0.1503    0.5089 C.3       1 <0>        -0.1055
      2 C2         -0.7365   -0.7545   -0.0785 C.ar      1 <0>        -0.1195
      3 C3         -0.6690   -2.1241   -0.2949 C.ar      1 <0>        -0.0596
      4 C4          0.4627   -2.6956   -0.8302 C.ar      1 <0>        -0.1348
      5 C5          1.5565   -1.8985   -1.1607 C.ar      1 <0>         0.1213
      6 C6          1.4959   -0.5090   -0.9512 C.ar      1 <0>        -0.1779
      7 C7          0.3336    0.0586   -0.3982 C.ar      1 <0>         0.2179
      8 N1          0.2599    1.4344   -0.1795 N.pl3     1 <0>        -0.6744
      9 C8          0.9531    2.0066    0.8760 C.ar      1 <0>         0.4848
     10 C9          1.8315    1.2402    1.6454 C.ar      1 <0>        -0.3284
     11 C10         2.5010    1.8523    2.6868 C.ar      1 <0>         0.2108
     12 N2          2.2924    3.1392    2.9242 N.ar      1 <0>        -0.5928
     13 C11         1.4533    3.8421    2.1780 C.ar      1 <0>         0.5987
     14 N3          0.7957    3.2939    1.1671 N.ar      1 <0>        -0.6151
     15 N4          1.2624    5.1850    2.4588 N.pl3     1 <0>        -0.6520
     16 C12         1.8735    5.7591    3.5780 C.ar      1 <0>         0.1706
     17 C13         2.0515    5.0084    4.7344 C.ar      1 <0>        -0.0901
     18 C14         2.6600    5.5694    5.8412 C.ar      1 <0>        -0.1068
     19 C15         3.0849    6.8823    5.8097 C.ar      1 <0>        -0.1082
     20 C16         2.9056    7.6464    4.6555 C.ar      1 <0>        -0.1169
     21 C17         2.2966    7.0785    3.5364 C.ar      1 <0>        -0.0940
     22 C18         3.3594    9.0532    4.6193 C.2       1 <0>         0.5644
     23 O1          3.2019    9.7169    3.6132 O.2       1 <0>        -0.5491
     24 N5          3.9475    9.5996    5.7019 N.am      1 <0>        -0.8732
     25 C19         2.7374    0.0252   -1.3699 C.2       1 <0>         0.0751
     26 N6          3.4842   -0.9480   -1.8048 N.2       1 <0>        -0.2330
     27 N7          2.7926   -2.1604   -1.6941 N.pl3     1 <0>        -0.5126
     28 H1          3.0738   -3.1926   -1.9498 H         1 <0>         0.4735
     29 H2         -2.7237   -0.9443    0.6971 H         1 <0>         0.0676
     30 H3         -2.4065    0.5810   -0.1970 H         1 <0>         0.0682
     31 H4         -1.7398    0.3533    1.4553 H         1 <0>         0.0661
     32 H5         -1.5135   -2.7476   -0.0408 H         1 <0>         0.1361
     33 H6          0.5031   -3.7624   -0.9938 H         1 <0>         0.1307
     34 H7         -0.3482    2.0652   -0.8445 H         1 <0>         0.4405
     35 H8          1.9839    0.1928    1.4307 H         1 <0>         0.1376
     36 H9          3.1870    1.2882    3.3013 H         1 <0>         0.1656
     37 H10         0.6301    5.7999    1.8014 H         1 <0>         0.4502
     38 H11         1.7168    3.9820    4.7666 H         1 <0>         0.1402
     39 H12         2.7997    4.9799    6.7353 H         1 <0>         0.1309
     40 H13         3.5556    7.3185    6.6784 H         1 <0>         0.1252
     41 H14         2.1549    7.6649    2.6406 H         1 <0>         0.1369
     42 H15         4.2851   10.6462    5.6750 H         1 <0>         0.4263
     43 H16         4.0899    8.9990    6.6124 H         1 <0>         0.4188
     44 H17         3.0170    1.0679   -1.3383 H         1 <0>         0.1857
@<TRIPOS>BOND
     1    1    2 1
     2    1   29 1
     3    1   30 1
     4    1   31 1
     5    2    7 ar
     6    2    3 ar
     7    3    4 ar
     8    3   32 1
     9    4    5 ar
    10    4   33 1
    11    5   27 1
    12    5    6 ar
    13    6    7 ar
    14    6   25 1
    15    7    8 1
    16    8    9 1
    17    8   34 1
    18    9   14 ar
    19    9   10 ar
    20   10   11 ar
    21   10   35 1
    22   11   12 ar
    23   11   36 1
    24   12   13 ar
    25   13   14 ar
    26   13   15 1
    27   15   16 1
    28   15   37 1
    29   16   21 ar
    30   16   17 ar
    31   17   18 ar
    32   17   38 1
    33   18   19 ar
    34   18   39 1
    35   19   20 ar
    36   19   40 1
    37   20   21 ar
    38   20   22 1
    39   21   41 1
    40   22   23 2
    41   22   24 am
    42   24   42 1
    43   24   43 1
    44   25   26 2
    45   25   44 1
    46   26   27 1
    47   27   28 1
@<TRIPOS>MOLECULE
ZINC01383151
   37    39     0     0     0
SMALL
USER_CHARGES

@<TRIPOS>ATOM
      1 C1         -1.1455    1.2885   -0.6608 C.3       1 <0>        -0.1446
      2 C2         -0.6741   -0.1436   -0.4002 C.3       1 <0>         0.1889
      3 C3          0.0885   -0.1963    0.9251 C.3       1 <0>        -0.1620
      4 C4         -1.8863   -1.0744   -0.3285 C.3       1 <0>        -0.1626
      5 N1          0.2077   -0.5730   -1.4885 N.pl3     1 <0>        -0.3657
      6 C5          0.8042   -1.7951   -1.5829 C.ar      1 <0>         0.3794
      7 C6          1.5592   -1.7908   -2.7708 C.ar      1 <0>        -0.3246
      8 C7          1.3681   -0.4739   -3.3780 C.2       1 <0>         0.1589
      9 N2          0.5635    0.2052   -2.5951 N.2       1 <0>        -0.2267
     10 C8          1.9678    0.0032   -4.6470 C.ar      1 <0>        -0.0171
     11 C9          1.9680   -0.8188   -5.7730 C.ar      1 <0>        -0.0978
     12 C10         2.5276   -0.3699   -6.9517 C.ar      1 <0>        -0.1054
     13 C11         3.0885    0.8941   -7.0172 C.ar      1 <0>        -0.0242
     14 C12         3.0913    1.7142   -5.9017 C.ar      1 <0>        -0.1044
     15 C13         2.5284    1.2775   -4.7201 C.ar      1 <0>        -0.0724
     16 Cl1         3.7914    1.4526   -8.5031 Cl        1 <0>        -0.0595
     17 C14         2.2822   -2.9459   -3.1108 C.ar      1 <0>         0.5178
     18 N3          2.2203   -3.9926   -2.2933 N.ar      1 <0>        -0.6043
     19 C15         1.4984   -3.9529   -1.1876 C.ar      1 <0>         0.3844
     20 N4          0.8058   -2.8942   -0.8290 N.ar      1 <0>        -0.5698
     21 N5          3.0384   -2.9934   -4.2660 N.pl3     1 <0>        -0.8297
     22 H1         -0.2819    1.9516   -0.7119 H         1 <0>         0.0676
     23 H2         -1.6888    1.3260   -1.6050 H         1 <0>         0.0678
     24 H3         -1.8016    1.6080    0.1489 H         1 <0>         0.0763
     25 H4         -0.5676    0.1232    1.7348 H         1 <0>         0.0806
     26 H5          0.4243   -1.2165    1.1107 H         1 <0>         0.0770
     27 H6          0.9521    0.4669    0.8740 H         1 <0>         0.0599
     28 H7         -2.4296   -1.0369   -1.2727 H         1 <0>         0.0599
     29 H8         -1.5504   -2.0947   -0.1429 H         1 <0>         0.0774
     30 H9         -2.5423   -0.7549    0.4811 H         1 <0>         0.0804
     31 H10         1.5313   -1.8053   -5.7227 H         1 <0>         0.1409
     32 H11         2.5283   -1.0059   -7.8246 H         1 <0>         0.1431
     33 H12         3.5304    2.6993   -5.9580 H         1 <0>         0.1422
     34 H13         2.5267    1.9198   -3.8518 H         1 <0>         0.1395
     35 H14         1.4759   -4.8260   -0.5523 H         1 <0>         0.2047
     36 H15         3.2655   -2.1730   -4.7311 H         1 <0>         0.4126
     37 H16         3.3423   -3.8471   -4.6119 H         1 <0>         0.4114
@<TRIPOS>BOND
     1    1    2 1
     2    1   22 1
     3    1   23 1
     4    1   24 1
     5    2    3 1
     6    2    4 1
     7    2    5 1
     8    3   25 1
     9    3   26 1
    10    3   27 1
    11    4   28 1
    12    4   29 1
    13    4   30 1
    14    5    9 1
    15    5    6 1
    16    6   20 ar
    17    6    7 ar
    18    7    8 1
    19    7   17 ar
    20    8    9 2
    21    8   10 1
    22   10   15 ar
    23   10   11 ar
    24   11   12 ar
    25   11   31 1
    26   12   13 ar
    27   12   32 1
    28   13   14 ar
    29   13   16 1
    30   14   15 ar
    31   14   33 1
    32   15   34 1
    33   17   18 ar
    34   17   21 1
    35   18   19 ar
    36   19   20 ar
    37   19   35 1
    38   21   36 1
    39   21   37 1
@<TRIPOS>MOLECULE
ZINC02541690
   50    54     0     0     0
SMALL
USER_CHARGES

@<TRIPOS>ATOM
      1 C1          3.3370    1.3633    3.5653 C.ar      1 <0>        -0.1527
      2 C2          3.4192   -0.0168    3.5450 C.ar      1 <0>        -0.0823
      3 C3          3.5025   -0.6873    2.3401 C.ar      1 <0>        -0.1944
      4 C4          3.5032    0.0255    1.1495 C.ar      1 <0>         0.1211
      5 C5          3.4202    1.4104    1.1728 C.ar      1 <0>        -0.1464
      6 C6          3.3375    2.0760    2.3804 C.ar      1 <0>        -0.0823
      7 O1          3.5855   -0.6316   -0.0370 O.3       1 <0>        -0.2596
      8 C7          3.6573   -1.9885   -0.0113 C.ar      1 <0>         0.0806
      9 C8          2.4934   -2.7445   -0.0465 C.ar      1 <0>        -0.1152
     10 C9          2.5628   -4.1217   -0.0205 C.ar      1 <0>        -0.0956
     11 C10         3.8037   -4.7546    0.0407 C.ar      1 <0>        -0.0013
     12 C11         4.9707   -3.9925    0.0755 C.ar      1 <0>        -0.1142
     13 C12         4.8946   -2.6157    0.0443 C.ar      1 <0>        -0.1163
     14 C13         3.8820   -6.2349    0.0693 C.2       1 <0>        -0.1093
     15 C14         3.1900   -7.0680    0.8846 C.2       1 <0>         0.0680
     16 N1          3.5310   -8.3656    0.6127 N.pl3     1 <0>        -0.4461
     17 C15         4.4590   -8.4116   -0.3923 C.ar      1 <0>         0.3477
     18 C16         4.7196   -7.0869   -0.7844 C.ar      1 <0>        -0.2532
     19 C17         5.6424   -6.8580   -1.8136 C.ar      1 <0>         0.4929
     20 N2          6.2315   -7.9083   -2.3789 N.ar      1 <0>        -0.6011
     21 C18         5.9559   -9.1375   -1.9825 C.ar      1 <0>         0.3628
     22 N3          5.1023   -9.3977   -1.0159 N.ar      1 <0>        -0.5701
     23 N4          5.9333   -5.5718   -2.2318 N.pl3     1 <0>        -0.8318
     24 C19         2.9816   -9.5372    1.2994 C.3       1 <0>         0.1310
     25 C20         1.4444   -9.5530    1.1702 C.3       1 <0>        -0.1342
     26 C21         0.9538  -10.0912    2.5372 C.3       1 <0>        -0.1235
     27 C22         1.9381   -9.4341    3.5364 C.3       1 <0>        -0.1246
     28 C23         3.2955   -9.4617    2.8039 C.3       1 <0>        -0.1367
     29 H1          3.2678    1.8854    4.5083 H         1 <0>         0.1255
     30 H2          3.4186   -0.5710    4.4719 H         1 <0>         0.1257
     31 H3          3.5673   -1.7652    2.3248 H         1 <0>         0.1277
     32 H4          3.4209    1.9675    0.2475 H         1 <0>         0.1325
     33 H5          3.2732    3.1539    2.3991 H         1 <0>         0.1316
     34 H6          1.5325   -2.2536   -0.0939 H         1 <0>         0.1350
     35 H7          1.6570   -4.7092   -0.0472 H         1 <0>         0.1340
     36 H8          5.9333   -4.4797    0.1229 H         1 <0>         0.1335
     37 H9          5.7983   -2.0248    0.0675 H         1 <0>         0.1354
     38 H10         2.4781   -6.7556    1.6344 H         1 <0>         0.1773
     39 H11         6.4563   -9.9625   -2.4676 H         1 <0>         0.1997
     40 H12         5.4964   -4.8146   -1.8115 H         1 <0>         0.4109
     41 H13         6.5741   -5.4271   -2.9455 H         1 <0>         0.4078
     42 H14         3.4020  -10.4492    0.8756 H         1 <0>         0.1116
     43 H15         1.0657   -8.5454    0.9987 H         1 <0>         0.0765
     44 H16         1.1361  -10.2196    0.3648 H         1 <0>         0.0773
     45 H17        -0.0689   -9.7697    2.7344 H         1 <0>         0.0747
     46 H18         1.0325  -11.1777    2.5753 H         1 <0>         0.0737
     47 H19         1.6391   -8.4073    3.7471 H         1 <0>         0.0685
     48 H20         1.9900  -10.0140    4.4579 H         1 <0>         0.0731
     49 H21         3.8675  -10.3374    3.1104 H         1 <0>         0.0798
     50 H22         3.8565   -8.5532    3.0231 H         1 <0>         0.0749
@<TRIPOS>BOND
     1    1    6 ar
     2    1    2 ar
     3    1   29 1
     4    2    3 ar
     5    2   30 1
     6    3    4 ar
     7    3   31 1
     8    4    5 ar
     9    4    7 1
    10    5    6 ar
    11    5   32 1
    12    6   33 1
    13    7    8 1
    14    8   13 ar
    15    8    9 ar
    16    9   10 ar
    17    9   34 1
    18   10   11 ar
    19   10   35 1
    20   11   12 ar
    21   11   14 1
    22   12   13 ar
    23   12   36 1
    24   13   37 1
    25   14   18 1
    26   14   15 2
    27   15   16 1
    28   15   38 1
    29   16   17 1
    30   16   24 1
    31   17   22 ar
    32   17   18 ar
    33   18   19 ar
    34   19   20 ar
    35   19   23 1
    36   20   21 ar
    37   21   22 ar
    38   21   39 1
    39   23   40 1
    40   23   41 1
    41   24   28 1
    42   24   25 1
    43   24   42 1
    44   25   26 1
    45   25   43 1
    46   25   44 1
    47   26   27 1
    48   26   45 1
    49   26   46 1
    50   27   28 1
    51   27   47 1
    52   27   48 1
    53   28   49 1
    54   28   50 1
@<TRIPOS>MOLECULE
ZINC06718642
   44    46     0     0     0
SMALL
USER_CHARGES
1-[2-amino-7-(3-hydroxypropyl)-9-(p-tolyl)-3,5,7-triazabicyclo[4.3.0]nona-2,4,8,10-tetraen-8-yl]-2-fluoro-ethanone
@<TRIPOS>ATOM
      1 C1         -0.3086   -6.7342   -4.2199 C.3       1 <0>        -0.1202
      2 C2         -0.2380   -5.5323   -3.3135 C.ar      1 <0>        -0.0734
      3 C3         -1.2449   -5.3043   -2.3922 C.ar      1 <0>        -0.1189
      4 C4         -1.1861   -4.2063   -1.5593 C.ar      1 <0>        -0.1029
      5 C5         -0.1080   -3.3240   -1.6476 C.ar      1 <0>        -0.0516
      6 C6          0.9016   -3.5568   -2.5831 C.ar      1 <0>        -0.0906
      7 C7          0.8333   -4.6615   -3.4065 C.ar      1 <0>        -0.1155
      8 C8         -0.0387   -2.1445   -0.7581 C.2       1 <0>        -0.0252
      9 C9          0.1543   -2.1487    0.6904 C.ar      1 <0>        -0.2585
     10 C10         0.3258   -3.1516    1.6613 C.ar      1 <0>         0.5060
     11 N1          0.4796   -2.7822    2.9297 N.ar      1 <0>        -0.6024
     12 C11         0.4721   -1.5071    3.2724 C.ar      1 <0>         0.3757
     13 N2          0.3151   -0.5355    2.3995 N.ar      1 <0>        -0.5717
     14 C12         0.1531   -0.8016    1.1032 C.ar      1 <0>         0.3655
     15 N3         -0.0266   -0.0195   -0.0022 N.pl3     1 <0>        -0.4316
     16 C13        -0.1493   -0.8097   -1.1320 C.2       1 <0>        -0.0111
     17 C14        -0.3505   -0.3386   -2.4464 C.2       1 <0>         0.3990
     18 O1          0.6036   -0.1211   -3.1664 O.2       1 <0>        -0.3919
     19 C15        -1.7488   -0.1052   -2.9575 C.3       1 <0>         0.0406
     20 F1         -1.6987    0.2390   -4.3126 F         1 <0>        -0.1899
     21 C16        -0.0871    1.4443    0.0075 C.3       1 <0>         0.1088
     22 C17         1.3204    2.0141   -0.1794 C.3       1 <0>        -0.1409
     23 C18         1.2572    3.5428   -0.1693 C.3       1 <0>         0.0822
     24 O2          2.5718    4.0751   -0.3438 O.3       1 <0>        -0.5712
     25 N4          0.3346   -4.4851    1.3068 N.pl3     1 <0>        -0.8214
     26 H1         -0.8373   -6.4684   -5.1352 H         1 <0>         0.0744
     27 H2          0.7009   -7.0635   -4.4660 H         1 <0>         0.0691
     28 H3         -0.8404   -7.5400   -3.7140 H         1 <0>         0.0692
     29 H4         -2.0785   -5.9877   -2.3250 H         1 <0>         0.1287
     30 H5         -1.9727   -4.0294   -0.8406 H         1 <0>         0.1269
     31 H6          1.7362   -2.8756   -2.6595 H         1 <0>         0.1261
     32 H7          1.6158   -4.8450   -4.1279 H         1 <0>         0.1280
     33 H8          0.6008   -1.2508    4.3136 H         1 <0>         0.2032
     34 H9         -2.2883   -0.9397   -2.8453 H         1 <0>         0.1014
     35 H10        -2.2112    0.7050   -2.3937 H         1 <0>         0.1136
     36 H11        -0.7286    1.7868   -0.8045 H         1 <0>         0.0897
     37 H12        -0.4935    1.7848    0.9599 H         1 <0>         0.1094
     38 H13         1.9619    1.6716    0.6326 H         1 <0>         0.0832
     39 H14         1.7268    1.6736   -1.1318 H         1 <0>         0.0783
     40 H15         0.6158    3.8853   -0.9813 H         1 <0>         0.0485
     41 H16         0.8509    3.8833    0.7831 H         1 <0>         0.0525
     42 H17         2.6077    5.0414   -0.3475 H         1 <0>         0.3847
     43 H18         0.4541   -5.1668    1.9865 H         1 <0>         0.4109
     44 H19         0.2213   -4.7409    0.3780 H         1 <0>         0.4132
@<TRIPOS>BOND
     1    1    2 1
     2    1   26 1
     3    1   27 1
     4    1   28 1
     5    2    7 ar
     6    2    3 ar
     7    3    4 ar
     8    3   29 1
     9    4    5 ar
    10    4   30 1
    11    5    6 ar
    12    5    8 1
    13    6    7 ar
    14    6   31 1
    15    7   32 1
    16    8   16 2
    17    8    9 1
    18    9   14 ar
    19    9   10 ar
    20   10   11 ar
    21   10   25 1
    22   11   12 ar
    23   12   13 ar
    24   12   33 1
    25   13   14 ar
    26   14   15 1
    27   15   16 1
    28   15   21 1
    29   16   17 1
    30   17   18 2
    31   17   19 1
    32   19   20 1
    33   19   34 1
    34   19   35 1
    35   21   22 1
    36   21   36 1
    37   21   37 1
    38   22   23 1
    39   22   38 1
    40   22   39 1
    41   23   24 1
    42   23   40 1
    43   23   41 1
    44   24   42 1
    45   25   43 1
    46   25   44 1
@<TRIPOS>MOLECULE
ZINC13132888
   46    49     0     0     0
SMALL
USER_CHARGES

@<TRIPOS>ATOM
      1 C1         -0.4024    1.4640   -0.2596 C.3       1 <0>        -0.1435
      2 C2         -0.2022   -0.0486   -0.1459 C.3       1 <0>         0.1912
      3 C3          0.5317   -0.3694    1.1577 C.3       1 <0>        -0.1615
      4 C4         -1.5645   -0.7450   -0.1490 C.3       1 <0>        -0.1622
      5 N1          0.5913   -0.5229   -1.2824 N.pl3     1 <0>        -0.3634
      6 C5          0.9612   -1.8141   -1.5150 C.ar      1 <0>         0.3746
      7 C6          1.7077   -1.8088   -2.7096 C.ar      1 <0>        -0.3278
      8 C7          1.7573   -0.4719   -3.1602 C.2       1 <0>         0.1297
      9 N2          1.0952    0.2715   -2.3201 N.2       1 <0>        -0.2391
     10 C8          2.4532    0.0125   -4.4060 C.3       1 <0>        -0.0064
     11 C9          1.4787    0.0187   -5.5556 C.ar      1 <0>        -0.0714
     12 C10         1.4067   -1.0488   -6.3972 C.ar      1 <0>        -0.1084
     13 C11         0.5121   -1.0612   -7.4653 C.ar      1 <0>        -0.1155
     14 C12        -0.3156   -0.0059   -7.6985 C.ar      1 <0>        -0.1014
     15 C13        -0.2700    1.1138   -6.8511 C.ar      1 <0>        -0.0506
     16 C14         0.6357    1.1238   -5.7608 C.ar      1 <0>        -0.0393
     17 C15         0.6771    2.2415   -4.9097 C.ar      1 <0>        -0.0979
     18 C16        -0.1547    3.2939   -5.1394 C.ar      1 <0>        -0.1148
     19 C17        -1.0498    3.2813   -6.2077 C.ar      1 <0>        -0.1134
     20 C18        -1.1085    2.2222   -7.0604 C.ar      1 <0>        -0.1091
     21 C19         2.2169   -3.0332   -3.1834 C.ar      1 <0>         0.5199
     22 N3          1.9692   -4.1339   -2.4817 N.ar      1 <0>        -0.6092
     23 C20         1.2632   -4.0896   -1.3658 C.ar      1 <0>         0.3850
     24 N4          0.7670   -2.9710   -0.8841 N.ar      1 <0>        -0.5722
     25 N5          2.9554   -3.0885   -4.3491 N.pl3     1 <0>        -0.8266
     26 H1          0.5681    1.9601   -0.2574 H         1 <0>         0.0677
     27 H2         -0.9252    1.6925   -1.1883 H         1 <0>         0.0677
     28 H3         -0.9928    1.8169    0.5860 H         1 <0>         0.0748
     29 H4         -0.0587   -0.0165    2.0033 H         1 <0>         0.0794
     30 H5          0.6743   -1.4470    1.2387 H         1 <0>         0.0761
     31 H6          1.5022    0.1268    1.1599 H         1 <0>         0.0599
     32 H7         -2.0873   -0.5165   -1.0777 H         1 <0>         0.0592
     33 H8         -1.4218   -1.8226   -0.0681 H         1 <0>         0.0763
     34 H9         -2.1548   -0.3922    0.6966 H         1 <0>         0.0794
     35 H10         2.8290    1.0226   -4.2429 H         1 <0>         0.1038
     36 H11         3.2855   -0.6517   -4.6388 H         1 <0>         0.0893
     37 H12         2.0530   -1.8987   -6.2348 H         1 <0>         0.1192
     38 H13         0.4751   -1.9207   -8.1182 H         1 <0>         0.1252
     39 H14        -1.0035   -0.0292   -8.5308 H         1 <0>         0.1280
     40 H15         1.3650    2.2650   -4.0775 H         1 <0>         0.1310
     41 H16        -0.1208    4.1515   -4.4839 H         1 <0>         0.1230
     42 H17        -1.6992    4.1294   -6.3675 H         1 <0>         0.1230
     43 H18        -1.8067    2.2268   -7.8844 H         1 <0>         0.1269
     44 H19         1.0860   -5.0091   -0.8278 H         1 <0>         0.2029
     45 H20         3.2072   -2.2692   -4.8032 H         1 <0>         0.4085
     46 H21         3.2222   -3.9468   -4.7139 H         1 <0>         0.4119
@<TRIPOS>BOND
     1    1    2 1
     2    1   26 1
     3    1   27 1
     4    1   28 1
     5    2    3 1
     6    2    4 1
     7    2    5 1
     8    3   29 1
     9    3   30 1
    10    3   31 1
    11    4   32 1
    12    4   33 1
    13    4   34 1
    14    5    9 1
    15    5    6 1
    16    6   24 ar
    17    6    7 ar
    18    7    8 1
    19    7   21 ar
    20    8    9 2
    21    8   10 1
    22   10   11 1
    23   10   35 1
    24   10   36 1
    25   11   16 ar
    26   11   12 ar
    27   12   13 ar
    28   12   37 1
    29   13   14 ar
    30   13   38 1
    31   14   15 ar
    32   14   39 1
    33   15   20 ar
    34   15   16 ar
    35   16   17 ar
    36   17   18 ar
    37   17   40 1
    38   18   19 ar
    39   18   41 1
    40   19   20 ar
    41   19   42 1
    42   20   43 1
    43   21   22 ar
    44   21   25 1
    45   22   23 ar
    46   23   24 ar
    47   23   44 1
    48   25   45 1
    49   25   46 1
