@<TRIPOS>MOLECULE
ZINC01493878
   48    50     0     0     0
SMALL
USER_CHARGES

@<TRIPOS>ATOM
      1 C1         -1.0955   -5.0083   -6.9234 C.3       1 <0>         0.0847
      2 N1         -1.5520   -4.3038   -5.7228 N.am      1 <0>        -0.7137
      3 C2         -1.8827   -5.0004   -4.6175 C.2       1 <0>         0.5696
      4 O1         -1.8023   -6.2129   -4.6168 O.2       1 <0>        -0.5284
      5 C3         -2.3445   -4.2878   -3.4031 C.ar      1 <0>         0.1129
      6 C4         -2.6788   -5.0128   -2.2640 C.ar      1 <0>        -0.1883
      7 C5         -3.1110   -4.3279   -1.1310 C.ar      1 <0>         0.1595
      8 C6         -3.1903   -2.9389   -1.1877 C.ar      1 <0>        -0.1766
      9 C7         -2.8404   -2.2885   -2.3571 C.ar      1 <0>         0.1349
     10 N2         -2.4302   -2.9626   -3.4105 N.ar      1 <0>        -0.4815
     11 O2         -3.4471   -4.9979    0.0005 O.3       1 <0>        -0.2437
     12 C8         -3.4462   -6.3570   -0.0383 C.ar      1 <0>         0.0568
     13 C9         -2.2447   -7.0505   -0.0178 C.ar      1 <0>        -0.1074
     14 C10        -2.2431   -8.4307   -0.0577 C.ar      1 <0>        -0.1009
     15 C11        -3.4442   -9.1246   -0.1179 C.ar      1 <0>         0.1671
     16 C12        -4.6464   -8.4301   -0.1379 C.ar      1 <0>        -0.1272
     17 C13        -4.6469   -7.0500   -0.0928 C.ar      1 <0>        -0.0940
     18 N3         -3.4432  -10.5252   -0.1588 N.am      1 <0>        -0.6776
     19 C14        -2.5108  -11.2187    0.5239 C.2       1 <0>         0.7077
     20 O3         -1.6217  -10.6297    1.1080 O.2       1 <0>        -0.5493
     21 N4         -2.5639  -12.5649    0.5593 N.am      1 <0>        -0.6795
     22 C15        -1.6655  -13.2800    1.3600 C.ar      1 <0>         0.1700
     23 C16        -1.2529  -12.7583    2.5792 C.ar      1 <0>        -0.0742
     24 C17        -0.3670  -13.4659    3.3674 C.ar      1 <0>        -0.0871
     25 C18         0.1097  -14.6941    2.9434 C.ar      1 <0>        -0.0077
     26 C19        -0.2993  -15.2159    1.7290 C.ar      1 <0>        -0.1564
     27 C20        -1.1898  -14.5147    0.9394 C.ar      1 <0>        -0.0879
     28 C21         0.2222  -16.5533    1.2702 C.3       1 <0>         0.5112
     29 F1         -0.3299  -16.8663    0.0234 F         1 <0>        -0.1743
     30 F2          1.6160  -16.4983    1.1626 F         1 <0>        -0.1671
     31 F3         -0.1354  -17.5367    2.1987 F         1 <0>        -0.1677
     32 Cl1         1.2234  -15.5812    3.9366 Cl        1 <0>        -0.0394
     33 H1         -0.8760   -4.2843   -7.7081 H         1 <0>         0.0803
     34 H2         -0.1948   -5.5764   -6.6909 H         1 <0>         0.0631
     35 H3         -1.8761   -5.6883   -7.2645 H         1 <0>         0.0629
     36 H4         -1.6162   -3.3359   -5.7233 H         1 <0>         0.4141
     37 H5         -2.6047   -6.0902   -2.2584 H         1 <0>         0.1546
     38 H6         -3.5217   -2.3755   -0.3280 H         1 <0>         0.1523
     39 H7         -2.9005   -1.2112   -2.4052 H         1 <0>         0.1747
     40 H8         -1.3104   -6.5106    0.0290 H         1 <0>         0.1364
     41 H9         -1.3078   -8.9704   -0.0424 H         1 <0>         0.1514
     42 H10        -5.5809   -8.9693   -0.1851 H         1 <0>         0.1386
     43 H11        -5.5820   -6.5098   -0.1039 H         1 <0>         0.1400
     44 H12        -4.1137  -10.9957   -0.6785 H         1 <0>         0.4131
     45 H13        -3.2246  -13.0383    0.0299 H         1 <0>         0.4146
     46 H14        -1.6244  -11.7997    2.9103 H         1 <0>         0.1546
     47 H15        -0.0456  -13.0604    4.3154 H         1 <0>         0.1524
     48 H16        -1.5123  -14.9245   -0.0064 H         1 <0>         0.1525
@<TRIPOS>BOND
     1    1    2 1
     2    1   33 1
     3    1   34 1
     4    1   35 1
     5    2    3 am
     6    2   36 1
     7    3    4 2
     8    3    5 1
     9    5   10 ar
    10    5    6 ar
    11    6    7 ar
    12    6   37 1
    13    7    8 ar
    14    7   11 1
    15    8    9 ar
    16    8   38 1
    17    9   10 ar
    18    9   39 1
    19   11   12 1
    20   12   17 ar
    21   12   13 ar
    22   13   14 ar
    23   13   40 1
    24   14   15 ar
    25   14   41 1
    26   15   16 ar
    27   15   18 1
    28   16   17 ar
    29   16   42 1
    30   17   43 1
    31   18   19 am
    32   18   44 1
    33   19   20 2
    34   19   21 am
    35   21   22 1
    36   21   45 1
    37   22   27 ar
    38   22   23 ar
    39   23   24 ar
    40   23   46 1
    41   24   25 ar
    42   24   47 1
    43   25   26 ar
    44   25   32 1
    45   26   27 ar
    46   26   28 1
    47   27   48 1
    48   28   29 1
    49   28   30 1
    50   28   31 1
@<TRIPOS>MOLECULE
ZINC21982951
   60    63     0     0     0
SMALL
USER_CHARGES

@<TRIPOS>ATOM
      1 C1         -2.0700    1.6928    0.2333 C.3       1 <0>        -0.1170
      2 C2         -1.6482    0.2604    0.0301 C.ar      1 <0>        -0.0813
      3 C3         -1.8479   -0.3525   -1.1919 C.ar      1 <0>        -0.1034
      4 C4         -1.4615   -1.6665   -1.3798 C.ar      1 <0>        -0.0990
      5 C5         -0.8738   -2.3725   -0.3459 C.ar      1 <0>        -0.1046
      6 C6         -0.6714   -1.7660    0.8791 C.ar      1 <0>        -0.0220
      7 C7         -1.0534   -0.4428    1.0688 C.ar      1 <0>         0.1347
      8 N1         -0.8441    0.1769    2.3055 N.am      1 <0>        -0.6659
      9 C8         -1.2819   -0.4110    3.4365 C.2       1 <0>         0.6018
     10 O1         -1.7689   -1.5261    3.3939 O.2       1 <0>        -0.4722
     11 C9         -1.1720    0.2905    4.7149 C.2       1 <0>        -0.2635
     12 C10        -1.5472   -0.1201    5.9866 C.2       1 <0>         0.1512
     13 N2         -1.3262    0.7270    6.9599 N.2       1 <0>        -0.5510
     14 C11        -0.7756    1.9070    6.7361 C.2       1 <0>         0.2513
     15 S1         -0.5107    1.9100    5.0742 S.3       1 <0>         0.2445
     16 N3         -0.4817    2.8997    7.6498 N.pl3     1 <0>        -0.5870
     17 C12        -0.6908    2.6801    9.0050 C.ar      1 <0>         0.4543
     18 C13        -1.0534    1.4192    9.4679 C.ar      1 <0>        -0.2926
     19 C14        -1.2512    1.2508   10.8352 C.ar      1 <0>         0.4935
     20 N4         -1.0875    2.2952   11.6453 N.ar      1 <0>        -0.5328
     21 C15        -0.7435    3.4737   11.1677 C.ar      1 <0>         0.4541
     22 N5         -0.5417    3.6719    9.8809 N.ar      1 <0>        -0.5672
     23 C16        -0.5694    4.6273   12.1217 C.3       1 <0>        -0.1251
     24 N6         -1.6138    0.0143   11.3464 N.pl3     1 <0>        -0.5370
     25 C17        -2.0559   -0.1253   12.7422 C.3       1 <0>         0.1090
     26 C18        -3.3866   -0.8852   12.7576 C.3       1 <0>         0.0383
     27 N7         -3.2335   -2.1493   12.0251 N.3       1 <0>        -0.5289
     28 C19        -2.9165   -1.9105   10.6107 C.3       1 <0>         0.0343
     29 C20        -1.5725   -1.1917   10.5056 C.3       1 <0>         0.1057
     30 C21        -4.4334   -2.9856   12.1619 C.3       1 <0>         0.0545
     31 C22        -4.1483   -4.3816   11.6043 C.3       1 <0>         0.0776
     32 O2         -3.1500   -5.0191   12.4038 O.3       1 <0>        -0.5606
     33 Cl1         0.0658   -2.6526    2.1768 Cl        1 <0>        -0.0453
     34 H1         -1.2464    2.3553   -0.0328 H         1 <0>         0.0773
     35 H2         -2.9308    1.9112   -0.3987 H         1 <0>         0.0785
     36 H3         -2.3379    1.8478    1.2784 H         1 <0>         0.0640
     37 H4         -2.3069    0.1956   -2.0014 H         1 <0>         0.1372
     38 H5         -1.6193   -2.1430   -2.3361 H         1 <0>         0.1391
     39 H6         -0.5731   -3.3989   -0.4959 H         1 <0>         0.1403
     40 H7         -0.3838    1.0296    2.3489 H         1 <0>         0.4083
     41 H8         -1.9972   -1.0858    6.1634 H         1 <0>         0.2027
     42 H9         -0.1293    3.7505    7.3451 H         1 <0>         0.4460
     43 H10        -1.1784    0.5927    8.7841 H         1 <0>         0.2218
     44 H11         0.4644    4.6619   12.4652 H         1 <0>         0.1245
     45 H12        -0.8146    5.5596   11.6130 H         1 <0>         0.1071
     46 H13        -1.2322    4.4948   12.9768 H         1 <0>         0.1273
     47 H14        -1.3096   -0.6823   13.3087 H         1 <0>         0.0989
     48 H15        -2.1929    0.8619   13.1834 H         1 <0>         0.1094
     49 H16        -3.6740   -1.0944   13.7880 H         1 <0>         0.1036
     50 H17        -4.1569   -0.2794   12.2806 H         1 <0>         0.0428
     51 H18        -2.8631   -2.8634   10.0841 H         1 <0>         0.1043
     52 H19        -3.6935   -1.2904   10.1636 H         1 <0>         0.0450
     53 H20        -1.3900   -0.9091    9.4688 H         1 <0>         0.1029
     54 H21        -0.7788   -1.8532   10.8529 H         1 <0>         0.1042
     55 H22        -4.7041   -3.0633   13.2149 H         1 <0>         0.0912
     56 H23        -5.2561   -2.5340   11.6075 H         1 <0>         0.0533
     57 H24        -5.0627   -4.9745   11.6240 H         1 <0>         0.0547
     58 H25        -3.7921   -4.2970   10.5776 H         1 <0>         0.0454
     59 H26        -2.9188   -5.9101   12.1076 H         1 <0>         0.3805
     60 H27        -0.2852    4.5531    9.5669 H         1 <0>         0.4414
@<TRIPOS>BOND
     1    1    2 1
     2    1   34 1
     3    1   35 1
     4    1   36 1
     5    2    7 ar
     6    2    3 ar
     7    3    4 ar
     8    3   37 1
     9    4    5 ar
    10    4   38 1
    11    5    6 ar
    12    5   39 1
    13    6    7 ar
    14    6   33 1
    15    7    8 1
    16    8    9 am
    17    8   40 1
    18    9   10 2
    19    9   11 1
    20   11   15 1
    21   11   12 2
    22   12   13 1
    23   12   41 1
    24   13   14 2
    25   14   15 1
    26   14   16 1
    27   16   17 1
    28   16   42 1
    29   17   22 ar
    30   17   18 ar
    31   18   19 ar
    32   18   43 1
    33   19   20 ar
    34   19   24 1
    35   20   21 ar
    36   21   22 ar
    37   21   23 1
    38   22   60 1
    39   23   44 1
    40   23   45 1
    41   23   46 1
    42   24   29 1
    43   24   25 1
    44   25   26 1
    45   25   47 1
    46   25   48 1
    47   26   27 1
    48   26   49 1
    49   26   50 1
    50   27   28 1
    51   27   30 1
    52   28   29 1
    53   28   51 1
    54   28   52 1
    55   29   53 1
    56   29   54 1
    57   30   31 1
    58   30   55 1
    59   30   56 1
    60   31   32 1
    61   31   57 1
    62   31   58 1
    63   32   59 1
@<TRIPOS>MOLECULE
ZINC21982951
   60    63     0     0     0
SMALL
USER_CHARGES

@<TRIPOS>ATOM
      1 C1          3.2739    6.6585    1.8418 C.3       1 <0>        -0.1168
      2 C2          2.5810    7.9910    1.9663 C.ar      1 <0>        -0.0823
      3 C3          2.8983    9.0189    1.0995 C.ar      1 <0>        -0.1038
      4 C4          2.2635   10.2419    1.2126 C.ar      1 <0>        -0.1008
      5 C5          1.3088   10.4411    2.1933 C.ar      1 <0>        -0.1049
      6 C6          0.9869    9.4175    3.0639 C.ar      1 <0>        -0.0226
      7 C7          1.6192    8.1849    2.9486 C.ar      1 <0>         0.1373
      8 N1          1.2913    7.1440    3.8238 N.am      1 <0>        -0.6678
      9 C8          1.3128    7.3511    5.1554 C.2       1 <0>         0.6036
     10 O1          1.5184    8.4680    5.5945 O.2       1 <0>        -0.4759
     11 C9          1.0891    6.2346    6.0728 C.2       1 <0>        -0.2694
     12 C10         1.0619    6.2190    7.4604 C.2       1 <0>         0.1522
     13 N2          0.8357    5.0596    8.0247 N.2       1 <0>        -0.5060
     14 C11         0.6446    3.9678    7.3056 C.2       1 <0>         0.2464
     15 S1          0.7674    4.5141    5.7185 S.3       1 <0>         0.2029
     16 N3          0.3973    2.6842    7.7505 N.pl3     1 <0>        -0.5650
     17 C12         0.2197    2.4414    9.1063 C.ar      1 <0>         0.4999
     18 C13        -0.1342    1.1736    9.5555 C.ar      1 <0>        -0.3181
     19 C14        -0.3003    0.9817   10.9244 C.ar      1 <0>         0.4940
     20 N4         -0.1157    2.0114   11.7481 N.ar      1 <0>        -0.5712
     21 C15         0.2193    3.1978   11.2829 C.ar      1 <0>         0.4509
     22 N5          0.3911    3.4178    9.9956 N.ar      1 <0>        -0.4879
     23 C16         0.4179    4.3344   12.2523 C.3       1 <0>        -0.1253
     24 N6         -0.6531   -0.2629   11.4224 N.pl3     1 <0>        -0.5744
     25 C17        -0.9639   -0.4449   12.8484 C.3       1 <0>         0.1013
     26 C18        -2.3114   -1.1652   12.9649 C.3       1 <0>         0.0387
     27 N7         -2.2712   -2.4031   12.1749 N.3       1 <0>        -0.5277
     28 C19        -2.0835   -2.1176   10.7462 C.3       1 <0>         0.0305
     29 C20        -0.7325   -1.4351   10.5377 C.3       1 <0>         0.1149
     30 C21        -3.4796   -3.2085   12.3965 C.3       1 <0>         0.0543
     31 C22        -3.2958   -4.5889   11.7629 C.3       1 <0>         0.0774
     32 O2         -2.2472   -5.2869   12.4378 O.3       1 <0>        -0.5615
     33 Cl1        -0.2110    9.6681    4.2952 Cl        1 <0>        -0.0453
     34 H1          2.7121    6.0191    1.1609 H         1 <0>         0.0767
     35 H2          4.2810    6.8077    1.4524 H         1 <0>         0.0779
     36 H3          3.3298    6.1850    2.8220 H         1 <0>         0.0648
     37 H4          3.6435    8.8670    0.3327 H         1 <0>         0.1365
     38 H5          2.5139   11.0437    0.5337 H         1 <0>         0.1383
     39 H6          0.8148   11.3976    2.2790 H         1 <0>         0.1396
     40 H7          1.0484    6.2731    3.4723 H         1 <0>         0.4083
     41 H8          1.2191    7.1147    8.0430 H         1 <0>         0.1979
     42 H9          0.3477    1.9521    7.1161 H         1 <0>         0.4525
     43 H10        -0.2767    0.3593    8.8606 H         1 <0>         0.1835
     44 H11         1.4596    4.3615   12.5720 H         1 <0>         0.1250
     45 H12         0.1626    5.2758   11.7656 H         1 <0>         0.1301
     46 H13        -0.2249    4.1881   13.1203 H         1 <0>         0.1049
     47 H14        -0.1857   -1.0458   13.3190 H         1 <0>         0.1119
     48 H15        -1.0251    0.5276   13.3369 H         1 <0>         0.0843
     49 H16        -2.5057   -1.4068   14.0099 H         1 <0>         0.1076
     50 H17        -3.1034   -0.5184   12.5874 H         1 <0>         0.0465
     51 H18        -2.1124   -3.0499   10.1822 H         1 <0>         0.1076
     52 H19        -2.8786   -1.4576   10.3996 H         1 <0>         0.0467
     53 H20        -0.6409   -1.1170    9.4992 H         1 <0>         0.1034
     54 H21         0.0684   -2.1330   10.7819 H         1 <0>         0.1075
     55 H22        -3.6507   -3.3200   13.4672 H         1 <0>         0.0925
     56 H23        -4.3362   -2.7111   11.9416 H         1 <0>         0.0553
     57 H24        -4.2233   -5.1548   11.8494 H         1 <0>         0.0565
     58 H25        -3.0370   -4.4741   10.7103 H         1 <0>         0.0456
     59 H26        -2.0752   -6.1719   12.0881 H         1 <0>         0.3821
     60 H27        -0.2297    1.8867   12.7033 H         1 <0>         0.4392
@<TRIPOS>BOND
     1    1    2 1
     2    1   34 1
     3    1   35 1
     4    1   36 1
     5    2    7 ar
     6    2    3 ar
     7    3    4 ar
     8    3   37 1
     9    4    5 ar
    10    4   38 1
    11    5    6 ar
    12    5   39 1
    13    6    7 ar
    14    6   33 1
    15    7    8 1
    16    8    9 am
    17    8   40 1
    18    9   10 2
    19    9   11 1
    20   11   15 1
    21   11   12 2
    22   12   13 1
    23   12   41 1
    24   13   14 2
    25   14   15 1
    26   14   16 1
    27   16   17 1
    28   16   42 1
    29   17   18 ar
    30   17   22 ar
    31   18   43 1
    32   18   19 ar
    33   19   24 1
    34   19   20 ar
    35   20   60 1
    36   20   21 ar
    37   21   23 1
    38   21   22 ar
    39   23   44 1
    40   23   45 1
    41   23   46 1
    42   24   29 1
    43   24   25 1
    44   25   26 1
    45   25   47 1
    46   25   48 1
    47   26   27 1
    48   26   49 1
    49   26   50 1
    50   27   28 1
    51   27   30 1
    52   28   29 1
    53   28   51 1
    54   28   52 1
    55   29   53 1
    56   29   54 1
    57   30   31 1
    58   30   55 1
    59   30   56 1
    60   31   32 1
    61   31   57 1
    62   31   58 1
    63   32   59 1
@<TRIPOS>MOLECULE
ZINC21982951
   59    62     0     0     0
SMALL
USER_CHARGES

@<TRIPOS>ATOM
      1 C1          3.4106    6.6420    1.8847 C.3       1 <0>        -0.1165
      2 C2          2.6976    7.9659    1.9845 C.ar      1 <0>        -0.0852
      3 C3          3.0204    8.9921    1.1176 C.ar      1 <0>        -0.1055
      4 C4          2.3672   10.2073    1.2080 C.ar      1 <0>        -0.1070
      5 C5          1.3885   10.4004    2.1660 C.ar      1 <0>        -0.1064
      6 C6          1.0609    9.3785    3.0365 C.ar      1 <0>        -0.0243
      7 C7          1.7118    8.1536    2.9438 C.ar      1 <0>         0.1460
      8 N1          1.3783    7.1144    3.8189 N.am      1 <0>        -0.6734
      9 C8          1.3676    7.3308    5.1492 C.2       1 <0>         0.6131
     10 O1          1.5489    8.4533    5.5848 O.2       1 <0>        -0.4899
     11 C9          1.1384    6.2176    6.0693 C.2       1 <0>        -0.3092
     12 C10         1.0807    6.2111    7.4561 C.2       1 <0>         0.1722
     13 N2          0.8573    5.0526    8.0233 N.2       1 <0>        -0.5180
     14 C11         0.6966    3.9535    7.3079 C.2       1 <0>         0.3121
     15 S1          0.8472    4.4907    5.7202 S.3       1 <0>         0.1340
     16 N3          0.4564    2.6698    7.7563 N.pl3     1 <0>        -0.5904
     17 C12         0.2490    2.4343    9.1091 C.ar      1 <0>         0.4412
     18 C13        -0.1036    1.1661    9.5586 C.ar      1 <0>        -0.3412
     19 C14        -0.3003    0.9817   10.9244 C.ar      1 <0>         0.4686
     20 N4         -0.1450    2.0186   11.7452 N.ar      1 <0>        -0.5923
     21 C15         0.1898    3.2050   11.2799 C.ar      1 <0>         0.3946
     22 N5          0.3901    3.4182    9.9956 N.ar      1 <0>        -0.5459
     23 C16         0.3546    4.3498   12.2460 C.3       1 <0>        -0.0834
     24 N6         -0.6531   -0.2629   11.4224 N.pl3     1 <0>        -0.5966
     25 C17        -1.0693   -0.4249   12.8237 C.3       1 <0>         0.1300
     26 C18        -2.3993   -1.1856   12.8517 C.3       1 <0>         0.0401
     27 N7         -2.2595   -2.4378   12.0965 N.3       1 <0>        -0.5276
     28 C19        -1.9688   -2.1765   10.6804 C.3       1 <0>         0.0363
     29 C20        -0.6270   -1.4554   10.5619 C.3       1 <0>         0.1269
     30 C21        -3.4565   -3.2768   12.2420 C.3       1 <0>         0.0537
     31 C22        -3.1814   -4.6636   11.6572 C.3       1 <0>         0.0792
     32 O2         -2.1684   -5.3132   12.4279 O.3       1 <0>        -0.5589
     33 Cl1        -0.1672    9.6214    4.2392 Cl        1 <0>        -0.0433
     34 H1          2.8725    5.9906    1.1961 H         1 <0>         0.0754
     35 H2          4.4240    6.8020    1.5166 H         1 <0>         0.0754
     36 H3          3.4510    6.1760    2.8692 H         1 <0>         0.0676
     37 H4          3.7844    8.8450    0.3685 H         1 <0>         0.1337
     38 H5          2.6220   11.0077    0.5292 H         1 <0>         0.1350
     39 H6          0.8801   11.3508    2.2339 H         1 <0>         0.1371
     40 H7          1.1547    6.2381    3.4683 H         1 <0>         0.4085
     41 H8          1.2132    7.1127    8.0357 H         1 <0>         0.1884
     42 H9          0.4325    1.9325    7.1264 H         1 <0>         0.4387
     43 H10        -0.2220    0.3459    8.8660 H         1 <0>         0.1413
     44 H11         1.3882    4.3890   12.5900 H         1 <0>         0.0870
     45 H12         0.1021    5.2855   11.7470 H         1 <0>         0.0890
     46 H13        -0.3072    4.2031   13.0995 H         1 <0>         0.0846
     47 H14        -0.3126   -0.9904   13.3674 H         1 <0>         0.0744
     48 H15        -1.1984    0.5551   13.2831 H         1 <0>         0.1008
     49 H16        -2.6676   -1.4113   13.8837 H         1 <0>         0.0903
     50 H17        -3.1785   -0.5727   12.3986 H         1 <0>         0.0372
     51 H18        -1.9249   -3.1208   10.1378 H         1 <0>         0.0905
     52 H19        -2.7540   -1.5497   10.2576 H         1 <0>         0.0380
     53 H20        -0.4638   -1.1563    9.5265 H         1 <0>         0.0877
     54 H21         0.1731   -2.1219   10.8840 H         1 <0>         0.0802
     55 H22        -3.7077   -3.3713   13.2985 H         1 <0>         0.0861
     56 H23        -4.2894   -2.8169   11.7102 H         1 <0>         0.0487
     57 H24        -4.0952   -5.2572   11.6843 H         1 <0>         0.0498
     58 H25        -2.8443   -4.5626   10.6256 H         1 <0>         0.0451
     59 H26        -1.9426   -6.1994   12.1134 H         1 <0>         0.3762
@<TRIPOS>BOND
     1    1    2 1
     2    1   34 1
     3    1   35 1
     4    1   36 1
     5    2    7 ar
     6    2    3 ar
     7    3    4 ar
     8    3   37 1
     9    4    5 ar
    10    4   38 1
    11    5    6 ar
    12    5   39 1
    13    6    7 ar
    14    6   33 1
    15    7    8 1
    16    8    9 am
    17    8   40 1
    18    9   10 2
    19    9   11 1
    20   11   15 1
    21   11   12 2
    22   12   13 1
    23   12   41 1
    24   13   14 2
    25   14   15 1
    26   14   16 1
    27   16   17 1
    28   16   42 1
    29   17   18 ar
    30   17   22 ar
    31   18   43 1
    32   18   19 ar
    33   19   24 1
    34   19   20 ar
    35   20   21 ar
    36   21   23 1
    37   21   22 ar
    38   23   44 1
    39   23   45 1
    40   23   46 1
    41   24   29 1
    42   24   25 1
    43   25   26 1
    44   25   47 1
    45   25   48 1
    46   26   27 1
    47   26   49 1
    48   26   50 1
    49   27   28 1
    50   27   30 1
    51   28   29 1
    52   28   51 1
    53   28   52 1
    54   29   53 1
    55   29   54 1
    56   30   31 1
    57   30   55 1
    58   30   56 1
    59   31   32 1
    60   31   57 1
    61   31   58 1
    62   32   59 1
@<TRIPOS>MOLECULE
ZINC21982951
   61    64     0     0     0
SMALL
USER_CHARGES

@<TRIPOS>ATOM
      1 C1          3.2770    6.6581    1.8427 C.3       1 <0>        -0.1166
      2 C2          2.5837    7.9904    1.9667 C.ar      1 <0>        -0.0814
      3 C3          2.9012    9.0183    1.0999 C.ar      1 <0>        -0.1028
      4 C4          2.2660   10.2411    1.2125 C.ar      1 <0>        -0.0975
      5 C5          1.3108   10.4402    2.1928 C.ar      1 <0>        -0.1039
      6 C6          0.9888    9.4167    3.0634 C.ar      1 <0>        -0.0218
      7 C7          1.6215    8.1842    2.9485 C.ar      1 <0>         0.1327
      8 N1          1.2933    7.1433    3.8237 N.am      1 <0>        -0.6648
      9 C8          1.3141    7.3507    5.1552 C.2       1 <0>         0.5983
     10 O1          1.5193    8.4677    5.5943 O.2       1 <0>        -0.4690
     11 C9          1.0903    6.2342    6.0727 C.2       1 <0>        -0.2500
     12 C10         1.0624    6.2188    7.4604 C.2       1 <0>         0.1439
     13 N2          0.8362    5.0594    8.0246 N.2       1 <0>        -0.4984
     14 C11         0.6458    3.9675    7.3056 C.2       1 <0>         0.2172
     15 S1          0.7692    4.5136    5.7185 S.3       1 <0>         0.2242
     16 N3          0.3986    2.6839    7.7506 N.pl3     1 <0>        -0.5513
     17 C12         0.2203    2.4413    9.1063 C.ar      1 <0>         0.5098
     18 C13        -0.1335    1.1734    9.5556 C.ar      1 <0>        -0.3097
     19 C14        -0.3003    0.9817   10.9244 C.ar      1 <0>         0.4927
     20 N4         -0.1163    2.0116   11.7481 N.ar      1 <0>        -0.5695
     21 C15         0.2187    3.1980   11.2828 C.ar      1 <0>         0.4589
     22 N5          0.3911    3.4178    9.9956 N.ar      1 <0>        -0.4762
     23 C16         0.4165    4.3348   12.2521 C.3       1 <0>        -0.1303
     24 N6         -0.6531   -0.2629   11.4224 N.pl3     1 <0>        -0.6123
     25 C17        -0.9643   -0.4465   12.8484 C.3       1 <0>         0.0782
     26 C18        -2.3027   -1.1838   12.9625 C.3       1 <0>        -0.0204
     27 N7         -2.2406   -2.4311   12.1903 N.4       1 <0>        -0.3852
     28 C19        -2.0770   -2.1279   10.7629 C.3       1 <0>        -0.0304
     29 C20        -0.7330   -1.4363   10.5388 C.3       1 <0>         0.0932
     30 C21        -3.4827   -3.1900   12.3886 C.3       1 <0>        -0.0061
     31 C22        -3.3702   -4.5448   11.6865 C.3       1 <0>         0.0434
     32 O2         -2.3479   -5.3224   12.3128 O.3       1 <0>        -0.5819
     33 Cl1        -0.2098    9.6671    4.2940 Cl        1 <0>        -0.0466
     34 H1          2.7157    6.0184    1.1617 H         1 <0>         0.0770
     35 H2          4.2843    6.8074    1.4538 H         1 <0>         0.0791
     36 H3          3.3325    6.1847    2.8230 H         1 <0>         0.0631
     37 H4          3.6468    8.8665    0.3335 H         1 <0>         0.1380
     38 H5          2.5166   11.0428    0.5336 H         1 <0>         0.1401
     39 H6          0.8165   11.3966    2.2780 H         1 <0>         0.1410
     40 H7          1.0508    6.2723    3.4722 H         1 <0>         0.4077
     41 H8          1.2191    7.1146    8.0429 H         1 <0>         0.2016
     42 H9          0.3494    1.9517    7.1163 H         1 <0>         0.4545
     43 H10        -0.2756    0.3590    8.8607 H         1 <0>         0.1860
     44 H11         1.4581    4.3621   12.5724 H         1 <0>         0.1309
     45 H12         0.1613    5.2760   11.7653 H         1 <0>         0.1358
     46 H13        -0.2267    4.1885   13.1199 H         1 <0>         0.1083
     47 H14        -0.1795   -1.0367   13.3215 H         1 <0>         0.1249
     48 H15        -1.0392    0.5259   13.3352 H         1 <0>         0.1232
     49 H16        -2.5028   -1.4138   14.0090 H         1 <0>         0.1602
     50 H17        -3.0999   -0.5526   12.5701 H         1 <0>         0.1410
     51 H18        -2.1110   -3.0537   10.1885 H         1 <0>         0.1585
     52 H19        -2.8811   -1.4682   10.4370 H         1 <0>         0.1418
     53 H20        -0.6550   -1.1179    9.4992 H         1 <0>         0.1416
     54 H21         0.0756   -2.1281   10.7747 H         1 <0>         0.1211
     55 H22        -3.6469   -3.3459   13.4548 H         1 <0>         0.1465
     56 H23        -4.3202   -2.6321   11.9697 H         1 <0>         0.1464
     57 H24        -4.3221   -5.0710   11.7578 H         1 <0>         0.1026
     58 H25        -3.1180   -4.3904   10.6374 H         1 <0>         0.0719
     59 H26        -2.2211   -6.1961   11.9183 H         1 <0>         0.4154
     60 H27        -0.2308    1.8869   12.7032 H         1 <0>         0.4393
     61 H28        -1.4578   -2.9831   12.5075 H         1 <0>         0.4359
@<TRIPOS>BOND
     1    1    2 1
     2    1   34 1
     3    1   35 1
     4    1   36 1
     5    2    7 ar
     6    2    3 ar
     7    3    4 ar
     8    3   37 1
     9    4    5 ar
    10    4   38 1
    11    5    6 ar
    12    5   39 1
    13    6    7 ar
    14    6   33 1
    15    7    8 1
    16    8    9 am
    17    8   40 1
    18    9   10 2
    19    9   11 1
    20   11   15 1
    21   11   12 2
    22   12   13 1
    23   12   41 1
    24   13   14 2
    25   14   15 1
    26   14   16 1
    27   16   17 1
    28   16   42 1
    29   17   18 ar
    30   17   22 ar
    31   18   43 1
    32   18   19 ar
    33   19   24 1
    34   19   20 ar
    35   20   60 1
    36   20   21 ar
    37   21   23 1
    38   21   22 ar
    39   23   44 1
    40   23   45 1
    41   23   46 1
    42   24   29 1
    43   24   25 1
    44   25   26 1
    45   25   47 1
    46   25   48 1
    47   26   27 1
    48   26   49 1
    49   26   50 1
    50   27   28 1
    51   27   30 1
    52   27   61 1
    53   28   29 1
    54   28   51 1
    55   28   52 1
    56   29   53 1
    57   29   54 1
    58   30   31 1
    59   30   55 1
    60   30   56 1
    61   31   32 1
    62   31   57 1
    63   31   58 1
    64   32   59 1
@<TRIPOS>MOLECULE
ZINC00172369
   21    22     0     0     0
SMALL
USER_CHARGES

@<TRIPOS>ATOM
      1 C1         -1.5962    1.3844    0.6687 C.3       1 <0>        -0.1146
      2 C2         -1.4239   -0.1110    0.5967 C.2       1 <0>        -0.0899
      3 C3         -2.0795   -0.8255   -0.3298 C.2       1 <0>        -0.1432
      4 S1         -1.5566   -2.5001   -0.0113 S.3       1 <0>         0.1033
      5 C4         -0.4717   -2.1949    1.3576 C.ar      1 <0>         0.1439
      6 C5         -0.5414   -0.7944    1.5261 C.ar      1 <0>        -0.2360
      7 C6          0.2554   -0.2668    2.5789 C.ar      1 <0>         0.4868
      8 N1          0.9910   -1.0915    3.3068 N.ar      1 <0>        -0.5817
      9 C7          1.0115   -2.3941    3.0890 C.ar      1 <0>         0.3582
     10 N2          0.2864   -2.9436    2.1339 N.ar      1 <0>        -0.5162
     11 N3          0.2620    1.0918    2.8388 N.pl3     1 <0>        -0.8424
     12 C8         -3.0320   -0.3309   -1.3876 C.3       1 <0>        -0.0715
     13 H1         -0.7788    1.8704    0.1360 H         1 <0>         0.0743
     14 H2         -2.5451    1.6633    0.2105 H         1 <0>         0.0777
     15 H3         -1.5893    1.7012    1.7116 H         1 <0>         0.0737
     16 H4          1.6292   -3.0241    3.7119 H         1 <0>         0.2095
     17 H5          0.1103    1.7241    2.1189 H         1 <0>         0.4135
     18 H6          0.4182    1.4124    3.7409 H         1 <0>         0.4093
     19 H7         -2.4756   -0.0893   -2.2932 H         1 <0>         0.0830
     20 H8         -3.7652   -1.1069   -1.6078 H         1 <0>         0.0778
     21 H9         -3.5442    0.5611   -1.0270 H         1 <0>         0.0845
@<TRIPOS>BOND
     1    1    2 1
     2    1   13 1
     3    1   14 1
     4    1   15 1
     5    2    6 1
     6    2    3 2
     7    3    4 1
     8    3   12 1
     9    4    5 1
    10    5   10 ar
    11    5    6 ar
    12    6    7 ar
    13    7    8 ar
    14    7   11 1
    15    8    9 ar
    16    9   10 ar
    17    9   16 1
    18   11   17 1
    19   11   18 1
    20   12   19 1
    21   12   20 1
    22   12   21 1
@<TRIPOS>MOLECULE
ZINC03814434
   62    69     0     0     0
SMALL
USER_CHARGES

@<TRIPOS>ATOM
      1 C1         -0.1295    1.5952   -0.2973 C.3       1 <0>        -0.1687
      2 C2         -0.0862    0.0696   -0.1900 C.3       1 <0>         0.3342
      3 C3          0.5692   -0.4501   -1.4637 C.3       1 <0>         0.0405
      4 H1          1.4796    0.1159   -1.6612 H         1 <0>         0.1372
      5 C4          0.9167   -1.9328   -1.2889 C.3       1 <0>        -0.0061
      6 H2          1.3963   -2.3075   -2.1932 H         1 <0>         0.1555
      7 C5          1.8785   -2.0596   -0.1021 C.3       1 <0>        -0.1827
      8 C6          1.2061   -1.5198    1.1541 C.3       1 <0>         0.2999
      9 H3          1.9797   -1.4243    1.9161 H         1 <0>         0.1550
     10 O1          0.6555   -0.2442    0.9666 O.3       1 <0>        -0.3234
     11 N1          0.2189   -2.4746    1.6600 N.pl3     1 <0>        -0.5366
     12 C7          0.4705   -3.5508    2.4739 C.ar      1 <0>         0.1469
     13 C8          1.6649   -4.0152    3.0240 C.ar      1 <0>        -0.1522
     14 C9          1.5948   -5.1456    3.8201 C.ar      1 <0>        -0.0582
     15 C10         0.4006   -5.7997    4.0696 C.ar      1 <0>        -0.1457
     16 C11        -0.7984   -5.3597    3.5358 C.ar      1 <0>        -0.0280
     17 C12        -0.7487   -4.2198    2.7307 C.ar      1 <0>        -0.1131
     18 C13        -1.7893   -3.4830    2.0197 C.ar      1 <0>         0.0276
     19 C14        -1.1442   -2.4197    1.3841 C.ar      1 <0>         0.0376
     20 C15        -1.8806   -1.5095    0.6175 C.ar      1 <0>         0.0894
     21 N2         -1.4718   -0.3951   -0.1095 N.pl3     1 <0>        -0.5183
     22 C16        -2.5611    0.1913   -0.7090 C.ar      1 <0>         0.1618
     23 C17        -2.6521    1.3277   -1.5118 C.ar      1 <0>        -0.1305
     24 C18        -3.9109    1.6745   -1.9733 C.ar      1 <0>        -0.0737
     25 C19        -5.0393    0.9368   -1.6616 C.ar      1 <0>        -0.1358
     26 C20        -4.9745   -0.1955   -0.8662 C.ar      1 <0>        -0.0503
     27 C21        -3.7147   -0.5596   -0.3919 C.ar      1 <0>        -0.1042
     28 C22        -3.2693   -1.6660    0.4845 C.ar      1 <0>        -0.0360
     29 C23        -3.9084   -2.7313    1.1102 C.ar      1 <0>        -0.0288
     30 C24        -3.1873   -3.6421    1.8754 C.ar      1 <0>        -0.1255
     31 C25        -4.1221   -4.6480    2.4030 C.2       1 <0>         0.5632
     32 O2         -3.8062   -5.5851    3.1110 O.2       1 <0>        -0.5106
     33 N3         -5.3744   -4.3851    1.9926 N.am      1 <0>        -0.7162
     34 C26        -5.3495   -3.1771    1.1601 C.3       1 <0>         0.1358
     35 N4         -0.3067   -2.7008   -1.0216 N.4       1 <0>        -0.5252
     36 C27         0.0145   -4.1336   -0.9773 C.3       1 <0>        -0.0497
     37 O3         -0.3340   -0.2979   -2.5607 O.3       1 <0>        -0.3614
     38 C28         0.3101   -0.0933   -3.8198 C.3       1 <0>         0.0162
     39 H4          0.8261    2.0094    0.0240 H         1 <0>         0.0984
     40 H5         -0.3202    1.8814   -1.3317 H         1 <0>         0.1036
     41 H6         -0.9255    1.9818    0.3392 H         1 <0>         0.0921
     42 H7          2.1370   -3.1081    0.0458 H         1 <0>         0.1233
     43 H8          2.7835   -1.4869   -0.3048 H         1 <0>         0.1455
     44 H9          2.6036   -3.5149    2.8368 H         1 <0>         0.1365
     45 H10         2.5026   -5.5304    4.2610 H         1 <0>         0.1359
     46 H11         0.4045   -6.6780    4.6980 H         1 <0>         0.1352
     47 H12        -1.7278   -5.8736    3.7323 H         1 <0>         0.1600
     48 H13        -1.7792    1.9122   -1.7624 H         1 <0>         0.1440
     49 H14        -4.0153    2.5500   -2.5970 H         1 <0>         0.1336
     50 H15        -5.9967    1.2527   -2.0488 H         1 <0>         0.1332
     51 H16        -5.8575   -0.7687   -0.6249 H         1 <0>         0.1415
     52 H17        -6.1628   -4.9065    2.2103 H         1 <0>         0.4348
     53 H18        -5.9671   -2.3994    1.6094 H         1 <0>         0.1115
     54 H19        -5.7060   -3.4063    0.1559 H         1 <0>         0.1103
     55 H20        -0.6958   -2.4158   -0.1353 H         1 <0>         0.4186
     56 H21         0.4349   -4.4415   -1.9347 H         1 <0>         0.1256
     57 H22         0.7403   -4.3189   -0.1854 H         1 <0>         0.1191
     58 H23        -0.8932   -4.7035   -0.7789 H         1 <0>         0.1256
     59 H24         0.9168    0.8112   -3.7748 H         1 <0>         0.0633
     60 H25         0.9482   -0.9479   -4.0446 H         1 <0>         0.0514
     61 H26        -0.4433    0.0130   -4.6003 H         1 <0>         0.1100
     62 H27        -0.9785   -2.5293   -1.7546 H         1 <0>         0.4274
@<TRIPOS>BOND
     1    1    2 1
     2    1   39 1
     3    1   40 1
     4    1   41 1
     5    2   10 1
     6    2   21 1
     7    2    3 1
     8    3    4 1
     9    3    5 1
    10    3   37 1
    11    5    6 1
    12    5    7 1
    13    5   35 1
    14    7    8 1
    15    7   42 1
    16    7   43 1
    17    8    9 1
    18    8   10 1
    19    8   11 1
    20   11   19 1
    21   11   12 1
    22   12   17 ar
    23   12   13 ar
    24   13   14 ar
    25   13   44 1
    26   14   15 ar
    27   14   45 1
    28   15   16 ar
    29   15   46 1
    30   16   17 ar
    31   16   47 1
    32   17   18 1
    33   18   30 ar
    34   18   19 ar
    35   19   20 ar
    36   20   28 ar
    37   20   21 1
    38   21   22 1
    39   22   27 ar
    40   22   23 ar
    41   23   24 ar
    42   23   48 1
    43   24   25 ar
    44   24   49 1
    45   25   26 ar
    46   25   50 1
    47   26   27 ar
    48   26   51 1
    49   27   28 1
    50   28   29 ar
    51   29   34 1
    52   29   30 ar
    53   30   31 1
    54   31   32 2
    55   31   33 am
    56   33   34 1
    57   33   52 1
    58   34   53 1
    59   34   54 1
    60   35   36 1
    61   35   55 1
    62   35   62 1
    63   36   56 1
    64   36   57 1
    65   36   58 1
    66   37   38 1
    67   38   59 1
    68   38   60 1
    69   38   61 1
@<TRIPOS>MOLECULE
ZINC20714298
   37    40     0     0     0
SMALL
USER_CHARGES
benzylBLAHamine
@<TRIPOS>ATOM
      1 C1         -1.5305    4.2144    0.8693 C.ar      1 <0>        -0.1163
      2 C2         -0.4325    3.3880    1.0188 C.ar      1 <0>        -0.1199
      3 C3          0.8419    3.8927    0.8399 C.ar      1 <0>        -0.0968
      4 C4          1.0185    5.2251    0.5166 C.ar      1 <0>        -0.0912
      5 C5         -0.0792    6.0528    0.3727 C.ar      1 <0>        -0.1161
      6 C6         -1.3536    5.5480    0.5512 C.ar      1 <0>        -0.1196
      7 C7          2.4079    5.7753    0.3215 C.3       1 <0>         0.0936
      8 N1          2.7963    5.6358   -1.0883 N.3       1 <0>        -0.5230
      9 C8          4.0389    6.3694   -1.3674 C.3       1 <0>         0.0511
     10 C9          4.6251    5.9179   -2.7070 C.3       1 <0>        -0.0650
     11 C10         3.5305    6.0172   -3.7671 C.2       1 <0>        -0.0712
     12 C11         2.2335    6.0933   -3.3859 C.2       1 <0>        -0.1652
     13 S1          1.3086    6.1944   -4.8960 S.3       1 <0>         0.1303
     14 C12         2.6550    6.1344   -6.0343 C.ar      1 <0>         0.1364
     15 C13         3.7943    6.0364   -5.1941 C.ar      1 <0>        -0.2547
     16 C14         5.0631    5.9686   -5.8380 C.ar      1 <0>         0.5008
     17 N2          5.0415    6.0050   -7.1690 N.ar      1 <0>        -0.6028
     18 C15         3.9393    6.0975   -7.8854 C.ar      1 <0>         0.3589
     19 N3          2.7261    6.1639   -7.3498 N.ar      1 <0>        -0.5065
     20 N4          6.2443    5.8714   -5.1249 N.pl3     1 <0>        -0.8484
     21 C16         1.7145    6.0895   -1.9820 C.3       1 <0>         0.1346
     22 H1         -2.5263    3.8190    1.0048 H         1 <0>         0.1223
     23 H2         -0.5705    2.3469    1.2711 H         1 <0>         0.1231
     24 H3          1.6996    3.2460    0.9523 H         1 <0>         0.1241
     25 H4          0.0588    7.0938    0.1205 H         1 <0>         0.1188
     26 H5         -2.2113    6.1946    0.4384 H         1 <0>         0.1229
     27 H6          2.4240    6.8386    0.6028 H         1 <0>         0.0488
     28 H7          3.1150    5.2181    0.9535 H         1 <0>         0.0925
     29 H8          3.8261    7.4477   -1.4110 H         1 <0>         0.0451
     30 H9          4.7688    6.1717   -0.5685 H         1 <0>         0.0890
     31 H10         5.4703    6.5687   -2.9754 H         1 <0>         0.0819
     32 H11         4.9752    4.8785   -2.6224 H         1 <0>         0.0939
     33 H12         4.0271    6.1200   -8.9616 H         1 <0>         0.2020
     34 H13         7.2056    5.8212   -5.6572 H         1 <0>         0.4319
     35 H14         6.2224    5.8443   -4.0255 H         1 <0>         0.4331
     36 H15         0.8583    5.4039   -1.8987 H         1 <0>         0.1020
     37 H16         1.4015    7.1037   -1.6933 H         1 <0>         0.0594
@<TRIPOS>BOND
     1    1    6 ar
     2    1    2 ar
     3    1   22 1
     4    2    3 ar
     5    2   23 1
     6    3    4 ar
     7    3   24 1
     8    4    5 ar
     9    4    7 1
    10    5    6 ar
    11    5   25 1
    12    6   26 1
    13    7    8 1
    14    7   27 1
    15    7   28 1
    16    8   21 1
    17    8    9 1
    18    9   10 1
    19    9   29 1
    20    9   30 1
    21   10   11 1
    22   10   31 1
    23   10   32 1
    24   11   15 1
    25   11   12 2
    26   12   13 1
    27   12   21 1
    28   13   14 1
    29   14   19 ar
    30   14   15 ar
    31   15   16 ar
    32   16   17 ar
    33   16   20 1
    34   17   18 ar
    35   18   19 ar
    36   18   33 1
    37   20   34 1
    38   20   35 1
    39   21   36 1
    40   21   37 1
@<TRIPOS>MOLECULE
ZINC00078174
   25    27     0     0     0
SMALL
USER_CHARGES
5,6,7,8-tetrahydrobenzothiopheno[3,2-e]pyrimidin-4-amine
@<TRIPOS>ATOM
      1 C1         -6.9282    0.6137    0.5768 C.ar      1 <0>         0.3544
      2 N1         -6.4823    0.4527   -0.6531 N.ar      1 <0>        -0.5943
      3 C2         -5.1916    0.4289   -0.9796 C.ar      1 <0>         0.4918
      4 C3         -4.2752    0.5911    0.0993 C.ar      1 <0>        -0.2449
      5 C4         -2.8237    0.6035    0.0242 C.2       1 <0>        -0.0833
      6 C5         -2.1573    0.7724    1.1889 C.2       1 <0>        -0.1512
      7 S1         -3.4170    0.9230    2.4309 S.3       1 <0>         0.1147
      8 C6         -4.8327    0.7589    1.3921 C.ar      1 <0>         0.1326
      9 N2         -6.1299    0.7701    1.6259 N.ar      1 <0>        -0.4983
     10 C7         -0.6697    0.8206    1.3886 C.3       1 <0>        -0.0405
     11 C8          0.0043    0.2800    0.1197 C.3       1 <0>        -0.1157
     12 C9         -0.6337    0.9500   -1.1009 C.3       1 <0>        -0.1200
     13 C10        -2.0612    0.4363   -1.2877 C.3       1 <0>        -0.0719
     14 N3         -4.7669    0.2571   -2.2848 N.pl3     1 <0>        -0.8279
     15 H1         -7.9959    0.6190    0.7390 H         1 <0>         0.2042
     16 H2         -0.3909    0.2035    2.2428 H         1 <0>         0.0863
     17 H3         -0.3564    1.8506    1.5593 H         1 <0>         0.0874
     18 H4         -0.1384   -0.7991    0.0610 H         1 <0>         0.0698
     19 H5          1.0700    0.5071    0.1464 H         1 <0>         0.0778
     20 H6         -0.6537    2.0296   -0.9523 H         1 <0>         0.0694
     21 H7         -0.0462    0.7186   -1.9895 H         1 <0>         0.0739
     22 H8         -2.5554    1.0090   -2.0725 H         1 <0>         0.0784
     23 H9         -2.0365   -0.6174   -1.5655 H         1 <0>         0.0810
     24 H10        -5.3895    0.3826   -3.0179 H         1 <0>         0.4111
     25 H11        -3.8465    0.0110   -2.4669 H         1 <0>         0.4151
@<TRIPOS>BOND
     1    1    9 ar
     2    1    2 ar
     3    1   15 1
     4    2    3 ar
     5    3    4 ar
     6    3   14 1
     7    4    8 ar
     8    4    5 1
     9    5   13 1
    10    5    6 2
    11    6    7 1
    12    6   10 1
    13    7    8 1
    14    8    9 ar
    15   10   11 1
    16   10   16 1
    17   10   17 1
    18   11   12 1
    19   11   18 1
    20   11   19 1
    21   12   13 1
    22   12   20 1
    23   12   21 1
    24   13   22 1
    25   13   23 1
    26   14   24 1
    27   14   25 1
@<TRIPOS>MOLECULE
ZINC00110227
   22    24     0     0     0
SMALL
USER_CHARGES
BLAHamine
@<TRIPOS>ATOM
      1 C1         -0.1436    2.1656    5.3346 C.ar      1 <0>         0.3644
      2 N1          0.8614    1.6698    4.6348 N.ar      1 <0>        -0.5922
      3 C2          0.7723    1.4503    3.3324 C.ar      1 <0>         0.4887
      4 C3         -0.4443    1.7578    2.6637 C.ar      1 <0>        -0.2358
      5 C4         -0.7675    1.5985    1.2380 C.2       1 <0>        -0.1107
      6 C5         -2.0004    1.9695    0.8499 C.2       1 <0>        -0.1770
      7 S1         -2.7991    2.5411    2.3325 S.3       1 <0>         0.1509
      8 C6         -1.4679    2.2821    3.4731 C.ar      1 <0>         0.1449
      9 N2         -1.2951    2.4696    4.7678 N.ar      1 <0>        -0.5203
     10 C7         -2.2177    1.7665   -0.6258 C.3       1 <0>        -0.0362
     11 C8         -0.7957    1.6150   -1.2094 C.3       1 <0>        -0.1152
     12 C9         -0.0127    1.0858    0.0080 C.3       1 <0>        -0.0686
     13 N3          1.8460    0.9293    2.6330 N.pl3     1 <0>        -0.8252
     14 H1         -0.0193    2.3256    6.3955 H         1 <0>         0.2097
     15 H2         -2.7166    2.6331   -1.0596 H         1 <0>         0.0844
     16 H3         -2.8002    0.8626   -0.8037 H         1 <0>         0.0900
     17 H4         -0.4037    2.5778   -1.5371 H         1 <0>         0.0796
     18 H5         -0.7837    0.8923   -2.0253 H         1 <0>         0.0880
     19 H6          0.0021   -0.0041    0.0020 H         1 <0>         0.0843
     20 H7          1.0050    1.4762    0.0004 H         1 <0>         0.0727
     21 H8          1.7724    0.7711    1.6788 H         1 <0>         0.4122
     22 H9          2.6724    0.7222    3.0967 H         1 <0>         0.4113
@<TRIPOS>BOND
     1    1    9 ar
     2    1    2 ar
     3    1   14 1
     4    2    3 ar
     5    3    4 ar
     6    3   13 1
     7    4    8 ar
     8    4    5 1
     9    5   12 1
    10    5    6 2
    11    6    7 1
    12    6   10 1
    13    7    8 1
    14    8    9 ar
    15   10   11 1
    16   10   15 1
    17   10   16 1
    18   11   12 1
    19   11   17 1
    20   11   18 1
    21   12   19 1
    22   12   20 1
    23   13   21 1
    24   13   22 1
@<TRIPOS>MOLECULE
ZINC04363396
   28    30     0     0     0
SMALL
USER_CHARGES
BLAHamine
@<TRIPOS>ATOM
      1 C1         -0.1263   -4.8487    0.0679 C.ar      1 <0>         0.3578
      2 N1          0.7319   -4.5768    1.0348 N.ar      1 <0>        -0.5840
      3 C2          1.1535   -3.3463    1.2776 C.ar      1 <0>         0.4854
      4 C3          0.6679   -2.2779    0.4732 C.ar      1 <0>        -0.2387
      5 C4          0.9931   -0.8496    0.5582 C.2       1 <0>        -0.0782
      6 C5          0.3821   -0.0360   -0.3255 C.2       1 <0>        -0.1426
      7 S1         -0.6296   -1.1026   -1.3195 S.3       1 <0>         0.1092
      8 C6         -0.2423   -2.6451   -0.5360 C.ar      1 <0>         0.1429
      9 N2         -0.6095   -3.9001   -0.7108 N.ar      1 <0>        -0.5162
     10 C7          0.5177    1.4498   -0.4521 C.3       1 <0>        -0.0437
     11 C8          2.0057    1.8236   -0.4679 C.3       1 <0>        -0.1156
     12 C9          2.4583    2.0549    0.9703 C.3       1 <0>        -0.1228
     13 C10         1.6913    1.1305    1.9141 C.3       1 <0>        -0.1261
     14 C11         1.9882   -0.3287    1.5915 C.3       1 <0>        -0.0720
     15 N3          2.0540   -3.1021    2.2987 N.pl3     1 <0>        -0.8408
     16 H1         -0.4387   -5.8705   -0.0889 H         1 <0>         0.2088
     17 H2          0.0497    1.7802   -1.3794 H         1 <0>         0.0797
     18 H3          0.0301    1.9331    0.3946 H         1 <0>         0.0950
     19 H4          2.5837    1.0113   -0.9086 H         1 <0>         0.0680
     20 H5          2.1493    2.7345   -1.0490 H         1 <0>         0.0744
     21 H6          2.2691    3.0921    1.2469 H         1 <0>         0.0675
     22 H7          3.5256    1.8482    1.0497 H         1 <0>         0.0654
     23 H8          0.6221    1.3124    1.8053 H         1 <0>         0.0751
     24 H9          1.9882    1.3392    2.9419 H         1 <0>         0.0692
     25 H10         1.9092   -0.9235    2.5015 H         1 <0>         0.0794
     26 H11         2.9994   -0.4105    1.1928 H         1 <0>         0.0802
     27 H12         2.0903   -3.6951    3.0655 H         1 <0>         0.4090
     28 H13         2.6492   -2.3379    2.2481 H         1 <0>         0.4137
@<TRIPOS>BOND
     1    1    9 ar
     2    1    2 ar
     3    1   16 1
     4    2    3 ar
     5    3    4 ar
     6    3   15 1
     7    4    8 ar
     8    4    5 1
     9    5   14 1
    10    5    6 2
    11    6    7 1
    12    6   10 1
    13    7    8 1
    14    8    9 ar
    15   10   11 1
    16   10   17 1
    17   10   18 1
    18   11   12 1
    19   11   19 1
    20   11   20 1
    21   12   13 1
    22   12   21 1
    23   12   22 1
    24   13   14 1
    25   13   23 1
    26   13   24 1
    27   14   25 1
    28   14   26 1
    29   15   27 1
    30   15   28 1
@<TRIPOS>MOLECULE
ZINC12404913
   28    30     0     0     0
SMALL
USER_CHARGES
(5R)-5-methyl-5,6,7,8-tetrahydrobenzothiopheno[3,2-e]pyrimidin-4-amine
@<TRIPOS>ATOM
      1 C1         -0.0127    1.0858    0.0080 C.3       1 <0>        -0.1558
      2 C2         -0.7334    1.5824    1.2748 C.3       1 <0>        -0.0339
      3 H1         -0.7153    2.6732    1.2871 H         1 <0>         0.0755
      4 C3          0.0403    1.0524    2.4762 C.3       1 <0>        -0.1174
      5 C4         -0.8363    0.8396    3.7064 C.3       1 <0>        -0.1142
      6 C5         -1.8566   -0.2648    3.3763 C.3       1 <0>        -0.0407
      7 C6         -2.6264    0.2322    2.1903 C.2       1 <0>        -0.1561
      8 C7         -2.1743    1.0900    1.2436 C.2       1 <0>        -0.0719
      9 C8         -3.1480    1.5080    0.2433 C.ar      1 <0>        -0.2382
     10 C9         -3.0139    2.5057   -0.7636 C.ar      1 <0>         0.4922
     11 N1         -4.0415    2.6372   -1.6051 N.ar      1 <0>        -0.6022
     12 C10        -5.1606    1.9506   -1.5237 C.ar      1 <0>         0.3573
     13 N2         -5.3845    1.0603   -0.5665 N.ar      1 <0>        -0.5033
     14 C11        -4.4116    0.8591    0.3001 C.ar      1 <0>         0.1326
     15 S1         -4.2782   -0.1910    1.7109 S.3       1 <0>         0.1170
     16 N3         -1.9189    3.3430   -0.8786 N.pl3     1 <0>        -0.8224
     17 H2          0.0021   -0.0041    0.0020 H         1 <0>         0.0632
     18 H3          1.0099    1.4631    0.0003 H         1 <0>         0.0659
     19 H4         -0.5399    1.4469   -0.8751 H         1 <0>         0.0580
     20 H5          0.5125    0.1021    2.2035 H         1 <0>         0.0696
     21 H6          0.8385    1.7612    2.7255 H         1 <0>         0.0712
     22 H7         -0.2238    0.5224    4.5504 H         1 <0>         0.0781
     23 H8         -1.3630    1.7585    3.9577 H         1 <0>         0.0700
     24 H9         -1.3383   -1.1855    3.1255 H         1 <0>         0.0895
     25 H10        -2.5246   -0.4147    4.2191 H         1 <0>         0.0863
     26 H11        -5.9294    2.1206   -2.2618 H         1 <0>         0.2041
     27 H12        -1.1837    3.2689   -0.2502 H         1 <0>         0.4133
     28 H13        -1.8862    4.0042   -1.5876 H         1 <0>         0.4125
@<TRIPOS>BOND
     1    1    2 1
     2    1   17 1
     3    1   18 1
     4    1   19 1
     5    2    3 1
     6    2    8 1
     7    2    4 1
     8    4    5 1
     9    4   20 1
    10    4   21 1
    11    5    6 1
    12    5   22 1
    13    5   23 1
    14    6    7 1
    15    6   24 1
    16    6   25 1
    17    7   15 1
    18    7    8 2
    19    8    9 1
    20    9   14 ar
    21    9   10 ar
    22   10   11 ar
    23   10   16 1
    24   11   12 ar
    25   12   13 ar
    26   12   26 1
    27   13   14 ar
    28   14   15 1
    29   16   27 1
    30   16   28 1
@<TRIPOS>MOLECULE
ZINC12404914
   28    30     0     0     0
SMALL
USER_CHARGES
(5S)-5-methyl-5,6,7,8-tetrahydrobenzothiopheno[3,2-e]pyrimidin-4-amine
@<TRIPOS>ATOM
      1 C1         -3.0596    2.0119   -2.0694 C.3       1 <0>        -0.1555
      2 C2         -2.1763    0.9998   -1.3185 C.3       1 <0>        -0.0341
      3 H1         -2.1210    0.0775   -1.8986 H         1 <0>         0.0757
      4 C3         -0.7817    1.6055   -1.2035 C.3       1 <0>        -0.1177
      5 C4         -0.0127    1.0846    0.0080 C.3       1 <0>        -0.1150
      6 C5         -0.7407    1.5805    1.2710 C.3       1 <0>        -0.0407
      7 C6         -2.1324    1.0303    1.1808 C.2       1 <0>        -0.1561
      8 C7         -2.7980    0.7163    0.0428 C.2       1 <0>        -0.0720
      9 C8         -4.0878    0.0619    0.2187 C.ar      1 <0>        -0.2387
     10 C9         -4.9237   -0.5331   -0.7684 C.ar      1 <0>         0.4923
     11 N1         -6.1043   -0.9888   -0.3444 N.ar      1 <0>        -0.6021
     12 C10        -6.5004   -0.9709    0.9099 C.ar      1 <0>         0.3572
     13 N2         -5.7414   -0.5051    1.8929 N.ar      1 <0>        -0.5030
     14 C11        -4.5613   -0.0242    1.5567 C.ar      1 <0>         0.1327
     15 S1         -3.2229    0.6130    2.5127 S.3       1 <0>         0.1169
     16 N3         -4.5592   -0.6892   -2.0937 N.pl3     1 <0>        -0.8224
     17 H2         -2.6412    2.1953   -3.0591 H         1 <0>         0.0658
     18 H3         -4.0678    1.6100   -2.1700 H         1 <0>         0.0579
     19 H4         -3.0954    2.9474   -1.5111 H         1 <0>         0.0631
     20 H5         -0.8708    2.6944   -1.1303 H         1 <0>         0.0699
     21 H6         -0.2165    1.3737   -2.1124 H         1 <0>         0.0716
     22 H7          0.0021   -0.0041    0.0020 H         1 <0>         0.0698
     23 H8          1.0051    1.4707    0.0004 H         1 <0>         0.0786
     24 H9         -0.2445    1.1961    2.1571 H         1 <0>         0.0861
     25 H10        -0.7670    2.6655    1.2810 H         1 <0>         0.0898
     26 H11        -7.4822   -1.3498    1.1493 H         1 <0>         0.2041
     27 H12        -3.6894   -0.3848   -2.3965 H         1 <0>         0.4133
     28 H13        -5.1734   -1.1029   -2.7201 H         1 <0>         0.4124
@<TRIPOS>BOND
     1    1    2 1
     2    1   17 1
     3    1   18 1
     4    1   19 1
     5    2    3 1
     6    2    8 1
     7    2    4 1
     8    4    5 1
     9    4   20 1
    10    4   21 1
    11    5    6 1
    12    5   22 1
    13    5   23 1
    14    6    7 1
    15    6   24 1
    16    6   25 1
    17    7   15 1
    18    7    8 2
    19    8    9 1
    20    9   14 ar
    21    9   10 ar
    22   10   11 ar
    23   10   16 1
    24   11   12 ar
    25   12   13 ar
    26   12   26 1
    27   13   14 ar
    28   14   15 1
    29   16   27 1
    30   16   28 1
@<TRIPOS>MOLECULE
ZINC03938688
   39    41     0     0     0
SMALL
USER_CHARGES

@<TRIPOS>ATOM
      1 C1         -0.0095    1.3826    0.0704 C.ar      1 <0>        -0.0343
      2 C2          0.5587    1.0580   -1.1482 C.ar      1 <0>        -0.1609
      3 C3          1.7655    0.3862   -1.1955 C.ar      1 <0>         0.1753
      4 C4          2.4129    0.0342   -0.0053 C.ar      1 <0>        -0.1954
      5 C5          1.8304    0.3669    1.2233 C.ar      1 <0>         0.1741
      6 C6          0.6231    1.0388    1.2514 C.ar      1 <0>        -0.1610
      7 F1          2.4463    0.0317    2.3781 F         1 <0>        -0.1212
      8 C7          3.6999   -0.6827   -0.0456 C.2       1 <0>         0.6210
      9 O1          4.7383   -0.0615   -0.1600 O.2       1 <0>        -0.4669
     10 N1          3.7255   -2.0272    0.0446 N.am      1 <0>        -0.3962
     11 C8          4.8314   -2.8210    0.1249 C.2       1 <0>         0.5948
     12 N2          4.4249   -4.0694    0.1979 N.2       1 <0>        -0.5873
     13 C9          3.0869   -4.1118    0.1675 C.2       1 <0>         0.5191
     14 N3          2.6183   -2.8904    0.0808 N.2       1 <0>        -0.3480
     15 N4          2.3148   -5.2702    0.2247 N.pl3     1 <0>        -0.6226
     16 C10         2.9267   -6.5079    0.4407 C.ar      1 <0>         0.2365
     17 C11         4.1432   -6.5760    1.1080 C.ar      1 <0>        -0.1584
     18 C12         4.7450   -7.8008    1.3202 C.ar      1 <0>         0.0098
     19 C13         4.1379   -8.9586    0.8692 C.ar      1 <0>        -0.7033
     20 C14         2.9269   -8.8944    0.2046 C.ar      1 <0>         0.0112
     21 C15         2.3170   -7.6734   -0.0063 C.ar      1 <0>        -0.1777
     22 S1          4.9094  -10.5191    1.1415 S.o2      1 <0>         2.7034
     23 O2          4.4084  -11.3993    0.1448 O.2       1 <0>        -0.9656
     24 O3          6.2977  -10.2630    1.3036 O.2       1 <0>        -0.9650
     25 N5          4.3605  -11.0895    2.5960 N.pl3     1 <0>        -1.2510
     26 N6          6.1422   -2.3912    0.1281 N.pl3     1 <0>        -0.7911
     27 F2          2.3185    0.0697   -2.3868 F         1 <0>        -0.1201
     28 H1         -0.9506    1.9116    0.0998 H         1 <0>         0.1546
     29 H2          0.0576    1.3300   -2.0654 H         1 <0>         0.1549
     30 H3          0.1721    1.2963    2.1984 H         1 <0>         0.1546
     31 H4          1.3525   -5.2176    0.1147 H         1 <0>         0.4325
     32 H5          4.6180   -5.6722    1.4601 H         1 <0>         0.1556
     33 H6          5.6909   -7.8544    1.8385 H         1 <0>         0.1456
     34 H7          2.4556   -9.8005   -0.1466 H         1 <0>         0.1475
     35 H8          1.3691   -7.6243   -0.5215 H         1 <0>         0.1387
     36 H9          3.7284  -10.5673    3.1145 H         1 <0>         0.4165
     37 H10         4.6709  -11.9458    2.9296 H         1 <0>         0.4206
     38 H11         6.3422   -1.4439    0.0694 H         1 <0>         0.4292
     39 H12         6.8640   -3.0364    0.1890 H         1 <0>         0.4303
@<TRIPOS>BOND
     1    1    6 ar
     2    1    2 ar
     3    1   28 1
     4    2    3 ar
     5    2   29 1
     6    3    4 ar
     7    3   27 1
     8    4    5 ar
     9    4    8 1
    10    5    6 ar
    11    5    7 1
    12    6   30 1
    13    8    9 2
    14    8   10 am
    15   10   14 1
    16   10   11 1
    17   11   12 2
    18   11   26 1
    19   12   13 1
    20   13   14 2
    21   13   15 1
    22   15   16 1
    23   15   31 1
    24   16   21 ar
    25   16   17 ar
    26   17   18 ar
    27   17   32 1
    28   18   19 ar
    29   18   33 1
    30   19   20 ar
    31   19   22 1
    32   20   21 ar
    33   20   34 1
    34   21   35 1
    35   22   23 2
    36   22   24 2
    37   22   25 1
    38   25   36 1
    39   25   37 1
    40   26   38 1
    41   26   39 1
@<TRIPOS>MOLECULE
ZINC11617039
   55    58     0     0     0
SMALL
USER_CHARGES

@<TRIPOS>ATOM
      1 H1          0.2120    6.2074    3.3921 H         1 <0>         0.1353
      2 C1         -0.6814    5.6062    3.3098 C.ar      1 <0>         0.0196
      3 C2         -1.0741    5.1311    2.1031 C.ar      1 <0>        -0.1998
      4 C3         -2.2288    4.3474    1.9606 C.ar      1 <0>         0.2426
      5 C4         -3.0111    4.0257    3.0293 C.ar      1 <0>        -0.1858
      6 C5         -2.6578    4.4884    4.3143 C.ar      1 <0>         0.1374
      7 C6         -1.4433    5.3059    4.4600 C.ar      1 <0>        -0.2352
      8 C7         -1.3367    5.6110    5.8041 C.2       1 <0>         0.1330
      9 N1         -2.3705    5.0424    6.4391 N.pl3     1 <0>        -0.3190
     10 N2         -3.1795    4.3626    5.5213 N.2       1 <0>        -0.3200
     11 C8         -2.6225    5.1281    7.8797 C.3       1 <0>         0.0831
     12 H2         -3.2434    5.9992    8.0888 H         1 <0>         0.0888
     13 H3         -3.1369    4.2268    8.2129 H         1 <0>         0.0992
     14 H4         -1.6744    5.2222    8.4094 H         1 <0>         0.0983
     15 C9         -0.2495    6.4365    6.4425 C.3       1 <0>        -0.1025
     16 H5         -0.5455    7.4855    6.4477 H         1 <0>         0.0927
     17 H6         -0.0907    6.0987    7.4666 H         1 <0>         0.0807
     18 H7          0.6740    6.3223    5.8749 H         1 <0>         0.0943
     19 H8         -3.8955    3.4210    2.8932 H         1 <0>         0.1075
     20 N3         -2.5862    3.8853    0.6908 N.pl3     1 <0>        -0.5925
     21 C10        -3.6562    3.0160    0.5454 C.ar      1 <0>         0.5430
     22 C11        -3.4766    1.6392    0.6984 C.ar      1 <0>        -0.2193
     23 C12        -4.5711    0.8111    0.5450 C.ar      1 <0>         0.2156
     24 N4         -5.7510    1.3422    0.2594 N.ar      1 <0>        -0.5411
     25 C13        -5.8925    2.6520    0.1199 C.ar      1 <0>         0.6254
     26 N5         -4.8692    3.4808    0.2639 N.ar      1 <0>        -0.5160
     27 N6         -7.1427    3.1682   -0.1788 N.pl3     1 <0>        -0.6061
     28 C14        -7.2911    4.5338   -0.4396 C.ar      1 <0>         0.0902
     29 C15        -6.2697    5.2382   -1.0645 C.ar      1 <0>        -0.0370
     30 C16        -6.4197    6.5867   -1.3210 C.ar      1 <0>        -0.1186
     31 C17        -7.5850    7.2362   -0.9562 C.ar      1 <0>         0.0334
     32 C18        -8.6034    6.5381   -0.3338 C.ar      1 <0>        -0.6606
     33 C19        -8.4623    5.1877   -0.0798 C.ar      1 <0>        -0.0140
     34 S1        -10.0857    7.3705    0.1294 S.o2      1 <0>         2.7024
     35 O1        -10.5091    8.1093   -1.0082 O.2       1 <0>        -0.9461
     36 O2        -10.9137    6.4040    0.7615 O.2       1 <0>        -0.9598
     37 N7         -9.6818    8.4799    1.2907 N.pl3     1 <0>        -1.2481
     38 C20        -7.7450    8.7080   -1.2374 C.3       1 <0>        -0.1567
     39 H9         -8.1929    8.8433   -2.2218 H         1 <0>         0.1090
     40 H10        -8.3897    9.1545   -0.4804 H         1 <0>         0.0769
     41 H11        -6.7680    9.1908   -1.2132 H         1 <0>         0.0924
     42 H12        -4.4665   -0.2581    0.6563 H         1 <0>         0.2280
     43 H13        -2.5039    1.2316    0.9310 H         1 <0>         0.1988
     44 C21        -1.8301    4.3196   -0.4864 C.3       1 <0>         0.0917
     45 H14        -1.0078    3.6271   -0.6659 H         1 <0>         0.0746
     46 H15        -2.4881    4.3354   -1.3553 H         1 <0>         0.0729
     47 H16        -1.4320    5.3196   -0.3140 H         1 <0>         0.0953
     48 H17        -0.4834    5.3620    1.2289 H         1 <0>         0.1346
     49 H18        -7.9152    2.5823   -0.2071 H         1 <0>         0.4391
     50 H19        -5.3592    4.7318   -1.3490 H         1 <0>         0.1427
     51 H20        -5.6260    7.1349   -1.8068 H         1 <0>         0.1482
     52 H21        -9.2599    4.6421    0.4024 H         1 <0>         0.1564
     53 H22        -8.7604    8.5635    1.5820 H         1 <0>         0.4174
     54 H23       -10.3667    9.0460    1.6797 H         1 <0>         0.4270
     55 H24        -6.5221    0.7638    0.1506 H         1 <0>         0.4504
@<TRIPOS>BOND
     1    1    2 1
     2    2    7 ar
     3    2    3 ar
     4    3    4 ar
     5    3   48 1
     6    4    5 ar
     7    4   20 1
     8    5    6 ar
     9    5   19 1
    10    6   10 2
    11    6    7 ar
    12    7    8 2
    13    8    9 1
    14    8   15 1
    15    9   10 1
    16    9   11 1
    17   11   12 1
    18   11   13 1
    19   11   14 1
    20   15   16 1
    21   15   17 1
    22   15   18 1
    23   20   21 1
    24   20   44 1
    25   21   26 ar
    26   21   22 ar
    27   22   23 ar
    28   22   43 1
    29   23   24 ar
    30   23   42 1
    31   24   25 ar
    32   24   55 1
    33   25   26 ar
    34   25   27 1
    35   27   28 1
    36   27   49 1
    37   28   33 ar
    38   28   29 ar
    39   29   30 ar
    40   29   50 1
    41   30   31 ar
    42   30   51 1
    43   31   32 ar
    44   31   38 1
    45   32   33 ar
    46   32   34 1
    47   33   52 1
    48   34   35 2
    49   34   36 2
    50   34   37 1
    51   37   53 1
    52   37   54 1
    53   38   39 1
    54   38   40 1
    55   38   41 1
    56   44   45 1
    57   44   46 1
    58   44   47 1
@<TRIPOS>MOLECULE
ZINC45254824
   59    62     0     0     0
SMALL
USER_CHARGES

@<TRIPOS>ATOM
      1 C1         -3.0524    0.8507    0.8430 C.3       1 <0>        -0.0777
      2 C2         -2.4167   -0.4997    0.6349 C.2       1 <0>        -0.1346
      3 C3         -2.9361   -1.5324   -0.0488 C.2       1 <0>         0.0511
      4 N1         -2.0676   -2.5928   -0.0197 N.pl3     1 <0>        -0.5716
      5 H1         -2.2232   -3.4510   -0.4442 H         1 <0>         0.4241
      6 C4         -0.9494   -2.2627    0.6955 C.ar      1 <0>         0.3229
      7 C5         -1.1133   -0.9353    1.1329 C.ar      1 <0>        -0.2041
      8 C6         -0.0916   -0.3460    1.8927 C.ar      1 <0>         0.4790
      9 N2          0.9909   -1.0695    2.1634 N.ar      1 <0>        -0.5500
     10 C7          1.1055   -2.3119    1.7299 C.ar      1 <0>         0.3284
     11 N3          0.1698   -2.9070    1.0221 N.ar      1 <0>        -0.5357
     12 N4         -0.2071    0.9549    2.3485 N.pl3     1 <0>        -0.6567
     13 C8          0.1720    2.0850    1.4889 C.3       1 <0>         0.1365
     14 C9          1.2054    2.9408    2.2319 C.3       1 <0>         0.0933
     15 N5          0.7007    3.2176    3.5842 N.am      1 <0>        -0.6167
     16 C10         0.3216    2.0875    4.4438 C.3       1 <0>         0.1470
     17 H2          1.2026    1.4857    4.6667 H         1 <0>         0.0806
     18 C11        -0.7171    1.2319    3.6987 C.3       1 <0>         0.1401
     19 C12        -0.2838    2.6138    5.7466 C.3       1 <0>        -0.1377
     20 C13         0.5881    4.4851    4.0282 C.2       1 <0>         0.7087
     21 O1          0.2797    4.6991    5.1846 O.2       1 <0>        -0.5590
     22 N6          0.8175    5.5156    3.1902 N.am      1 <0>        -0.6877
     23 C14         0.8477    6.8249    3.6832 C.ar      1 <0>         0.1839
     24 C15         1.3293    7.0757    4.9620 C.ar      1 <0>        -0.1125
     25 C16         1.3586    8.3680    5.4487 C.ar      1 <0>        -0.0828
     26 C17         0.9093    9.4145    4.6656 C.ar      1 <0>        -0.1345
     27 C18         0.4277    9.1699    3.3875 C.ar      1 <0>         0.1244
     28 C19         0.4020    7.8750    2.8934 C.ar      1 <0>        -0.1477
     29 O2         -0.0143   10.2001    2.6186 O.3       1 <0>        -0.3047
     30 C20         0.9046   11.0014    2.0462 C.2       1 <0>         0.6441
     31 O3          2.0868   10.7394    2.1475 O.2       1 <0>        -0.5506
     32 N7          0.5128   12.0938    1.3609 N.am      1 <0>        -0.6008
     33 C21         1.5122   12.9654    0.7383 C.3       1 <0>         0.1040
     34 C22        -0.9125   12.4097    1.2387 C.3       1 <0>         0.0795
     35 H3         -2.6894    1.5441    0.0844 H         1 <0>         0.0645
     36 H4         -4.1356    0.7587    0.7626 H         1 <0>         0.0646
     37 H5         -2.7922    1.2262    1.8327 H         1 <0>         0.0686
     38 H6         -3.8944   -1.5281   -0.5469 H         1 <0>         0.1823
     39 H7          2.0013   -2.8643    1.9723 H         1 <0>         0.2005
     40 H8          0.6061    1.7101    0.5620 H         1 <0>         0.0821
     41 H9         -0.7090    2.6868    1.2659 H         1 <0>         0.0661
     42 H10         2.1494    2.3998    2.2973 H         1 <0>         0.0818
     43 H11         1.3550    3.8793    1.6981 H         1 <0>         0.0825
     44 H12        -1.6600    1.7744    3.6295 H         1 <0>         0.0662
     45 H13        -0.8703    0.2935    4.2315 H         1 <0>         0.0815
     46 H14        -1.0947    3.3051    5.5172 H         1 <0>         0.0702
     47 H15        -0.6721    1.7791    6.3301 H         1 <0>         0.0471
     48 H16         0.4842    3.1323    6.3207 H         1 <0>         0.0808
     49 H17         0.9616    5.3496    2.2455 H         1 <0>         0.4047
     50 H18         1.6806    6.2597    5.5760 H         1 <0>         0.1417
     51 H19         1.7330    8.5611    6.4431 H         1 <0>         0.1356
     52 H20         0.9328   10.4239    5.0491 H         1 <0>         0.1283
     53 H21         0.0316    7.6833    1.8972 H         1 <0>         0.1321
     54 H22         2.0918   12.3937    0.0134 H         1 <0>         0.0660
     55 H23         1.0104   13.7904    0.2327 H         1 <0>         0.0861
     56 H24         2.1781   13.3605    1.5054 H         1 <0>         0.0663
     57 H25        -1.2162   13.0463    2.0698 H         1 <0>         0.0612
     58 H26        -1.0898   12.9311    0.2981 H         1 <0>         0.0775
     59 H27        -1.4921   11.4868    1.2573 H         1 <0>         0.0791
@<TRIPOS>BOND
     1    1    2 1
     2    1   35 1
     3    1   36 1
     4    1   37 1
     5    2    7 1
     6    2    3 2
     7    3    4 1
     8    3   38 1
     9    4    5 1
    10    4    6 1
    11    6   11 ar
    12    6    7 ar
    13    7    8 ar
    14    8    9 ar
    15    8   12 1
    16    9   10 ar
    17   10   11 ar
    18   10   39 1
    19   12   18 1
    20   12   13 1
    21   13   14 1
    22   13   40 1
    23   13   41 1
    24   14   15 1
    25   14   42 1
    26   14   43 1
    27   15   16 1
    28   15   20 am
    29   16   17 1
    30   16   18 1
    31   16   19 1
    32   18   44 1
    33   18   45 1
    34   19   46 1
    35   19   47 1
    36   19   48 1
    37   20   21 2
    38   20   22 am
    39   22   23 1
    40   22   49 1
    41   23   28 ar
    42   23   24 ar
    43   24   25 ar
    44   24   50 1
    45   25   26 ar
    46   25   51 1
    47   26   27 ar
    48   26   52 1
    49   27   28 ar
    50   27   29 1
    51   28   53 1
    52   29   30 1
    53   30   31 2
    54   30   32 am
    55   32   33 1
    56   32   34 1
    57   33   54 1
    58   33   55 1
    59   33   56 1
    60   34   57 1
    61   34   58 1
    62   34   59 1
@<TRIPOS>MOLECULE
ZINC45254830
   50    53     0     0     0
SMALL
USER_CHARGES

@<TRIPOS>ATOM
      1 C1         -3.6570    1.8706    1.1848 C.3       1 <0>        -0.0765
      2 C2         -3.2550    0.6168    0.4518 C.2       1 <0>        -0.1354
      3 C3         -4.0718   -0.2249   -0.2026 C.2       1 <0>         0.0511
      4 N1         -3.3433   -1.2526   -0.7436 N.pl3     1 <0>        -0.5719
      5 H1         -3.7135   -1.9841   -1.2620 H         1 <0>         0.4240
      6 C4         -2.0177   -1.0946   -0.4456 C.ar      1 <0>         0.3223
      7 C5         -1.9003    0.0860    0.3111 C.ar      1 <0>        -0.2037
      8 C6         -0.6266    0.4838    0.7445 C.ar      1 <0>         0.4790
      9 N2          0.4165   -0.2734    0.4168 N.ar      1 <0>        -0.5484
     10 C7          0.2617   -1.3729   -0.2985 C.ar      1 <0>         0.3282
     11 N3         -0.9138   -1.7882   -0.7187 N.ar      1 <0>        -0.5359
     12 N4         -0.4598    1.6347    1.4934 N.pl3     1 <0>        -0.6537
     13 C8         -0.3285    2.9425    0.8358 C.3       1 <0>         0.1358
     14 C9          0.9717    3.6020    1.3119 C.3       1 <0>         0.1270
     15 N5          1.0203    3.5391    2.7794 N.pl3     1 <0>        -0.6788
     16 C10         0.8890    2.2313    3.4370 C.3       1 <0>         0.1472
     17 H2          1.7376    1.6012    3.1708 H         1 <0>         0.0858
     18 C11        -0.4169    1.5724    2.9611 C.3       1 <0>         0.1401
     19 C12         0.8467    2.4216    4.9545 C.3       1 <0>        -0.1720
     20 C13         1.1857    4.6809    3.5224 C.2       1 <0>         0.6547
     21 N6          0.0901    5.3129    4.0668 N.pl3     1 <0>        -0.5870
     22 C14         0.2412    6.4939    4.7136 C.1       1 <0>         0.4213
     23 N7          0.3680    7.4840    5.2559 N.1       1 <0>        -0.3937
     24 N8          2.3878    5.1705    3.7140 N.2       1 <0>        -0.5449
     25 C15         3.4661    4.6037    3.0875 C.ar      1 <0>         0.1388
     26 C16         3.7765    3.2596    3.3046 C.ar      1 <0>        -0.1241
     27 C17         4.8636    2.6946    2.6709 C.ar      1 <0>        -0.0971
     28 C18         5.6463    3.4563    1.8213 C.ar      1 <0>        -0.1044
     29 C19         5.3446    4.7893    1.6013 C.ar      1 <0>        -0.0746
     30 C20         4.2559    5.3655    2.2249 C.ar      1 <0>        -0.0932
     31 Br1         6.4214    5.8211    0.4387 Br        1 <0>        -0.0491
     32 H3         -3.5385    2.7306    0.5256 H         1 <0>         0.0649
     33 H4         -4.6988    1.7917    1.4954 H         1 <0>         0.0638
     34 H5         -3.0244    1.9965    2.0635 H         1 <0>         0.0683
     35 H6         -5.1421   -0.1094   -0.2895 H         1 <0>         0.1817
     36 H7          1.1353   -1.9590   -0.5426 H         1 <0>         0.1995
     37 H8         -0.2953    2.8067   -0.2452 H         1 <0>         0.0786
     38 H9         -1.1771    3.5726    1.1020 H         1 <0>         0.0647
     39 H10         1.8263    3.0695    0.8944 H         1 <0>         0.0732
     40 H11         0.9932    4.6431    0.9895 H         1 <0>         0.0807
     41 H12        -1.2716    2.1073    3.3751 H         1 <0>         0.0642
     42 H13        -0.4421    0.5317    3.2840 H         1 <0>         0.0787
     43 H14         0.0278    3.0926    5.2139 H         1 <0>         0.0646
     44 H15         0.6927    1.4566    5.4375 H         1 <0>         0.0807
     45 H16         1.7895    2.8510    5.2932 H         1 <0>         0.0668
     46 H17         3.1669    2.6638    3.9677 H         1 <0>         0.1282
     47 H18         5.1047    1.6553    2.8385 H         1 <0>         0.1308
     48 H19         6.4965    3.0090    1.3280 H         1 <0>         0.1311
     49 H20         4.0185    6.4043    2.0492 H         1 <0>         0.1323
     50 H21        -0.7898    4.9126    3.9872 H         1 <0>         0.4363
@<TRIPOS>BOND
     1    1    2 1
     2    1   32 1
     3    1   33 1
     4    1   34 1
     5    2    7 1
     6    2    3 2
     7    3    4 1
     8    3   35 1
     9    4    5 1
    10    4    6 1
    11    6   11 ar
    12    6    7 ar
    13    7    8 ar
    14    8    9 ar
    15    8   12 1
    16    9   10 ar
    17   10   11 ar
    18   10   36 1
    19   12   18 1
    20   12   13 1
    21   13   14 1
    22   13   37 1
    23   13   38 1
    24   14   15 1
    25   14   39 1
    26   14   40 1
    27   15   16 1
    28   15   20 1
    29   16   17 1
    30   16   18 1
    31   16   19 1
    32   18   41 1
    33   18   42 1
    34   19   43 1
    35   19   44 1
    36   19   45 1
    37   20   21 1
    38   20   24 2
    39   21   22 1
    40   21   50 1
    41   22   23 3
    42   24   25 1
    43   25   30 ar
    44   25   26 ar
    45   26   27 ar
    46   26   46 1
    47   27   28 ar
    48   27   47 1
    49   28   29 ar
    50   28   48 1
    51   29   30 ar
    52   29   31 1
    53   30   49 1
@<TRIPOS>MOLECULE
ZINC03820040
   62    66     0     0     0
SMALL
USER_CHARGES
N-[4-[4-(4-methylpiperazin-1-yl)-6-[(5-methyl-2H-pyrazol-3-yl)amino]pyrimidin-2-yl]sulfanylphenyl]cyclopropanecarboxamide
@<TRIPOS>ATOM
      1 C1          1.8035   -7.6837    0.5070 C.3       1 <0>        -0.0779
      2 C2          2.3685   -6.3674    0.0389 C.2       1 <0>         0.0949
      3 C3          1.9325   -5.1020    0.4407 C.2       1 <0>        -0.2905
      4 C4          2.6904   -4.1743   -0.2066 C.2       1 <0>         0.3252
      5 N1          3.5799   -4.8447   -0.9836 N.pl3     1 <0>        -0.4853
      6 H1          4.2729   -4.4328   -1.5753 H         1 <0>         0.4473
      7 N2          3.3537   -6.2159   -0.8085 N.2       1 <0>        -0.2711
      8 N3          2.5778   -2.7905   -0.0888 N.pl3     1 <0>        -0.6296
      9 C5          1.3376   -2.2123    0.1391 C.ar      1 <0>         0.4706
     10 C6          0.1755   -2.9717    0.0343 C.ar      1 <0>        -0.2983
     11 C7         -1.0466   -2.3490    0.2714 C.ar      1 <0>         0.3791
     12 N4         -1.0643   -1.0564    0.5886 N.ar      1 <0>        -0.5664
     13 C8          0.0620   -0.3646    0.6795 C.ar      1 <0>         0.3511
     14 N5          1.2425   -0.9231    0.4557 N.ar      1 <0>        -0.5606
     15 S1         -0.0125    1.3444    1.1018 S.3       1 <0>         0.1303
     16 C9          1.7078    1.7032    1.2298 C.ar      1 <0>        -0.1638
     17 C10         2.3806    1.4637    2.4214 C.ar      1 <0>        -0.0284
     18 C11         3.7293    1.7409    2.5200 C.ar      1 <0>        -0.1315
     19 C12         4.4114    2.2681    1.4313 C.ar      1 <0>         0.1902
     20 C13         3.7379    2.5125    0.2417 C.ar      1 <0>        -0.1573
     21 C14         2.3903    2.2311    0.1410 C.ar      1 <0>        -0.0288
     22 N6          5.7793    2.5539    1.5333 N.am      1 <0>        -0.6744
     23 C15         6.5739    1.7808    2.2997 C.2       1 <0>         0.5466
     24 O1          6.1269    0.7811    2.8213 O.2       1 <0>        -0.5140
     25 C16         8.0178    2.1584    2.5086 C.3       1 <0>        -0.2022
     26 C17         9.0818    1.2604    1.8742 C.3       1 <0>        -0.1494
     27 C18         8.8679    1.2402    3.3890 C.3       1 <0>        -0.1425
     28 N7         -2.2296   -3.0657    0.1789 N.pl3     1 <0>        -0.4710
     29 C19        -2.3617   -3.6957   -1.1422 C.3       1 <0>         0.0277
     30 C20        -3.6379   -4.5399   -1.1765 C.3       1 <0>         0.0040
     31 C21        -4.6643   -3.0537    0.4349 C.3       1 <0>        -0.0004
     32 C22        -3.3881   -2.2095    0.4692 C.3       1 <0>         0.0347
     33 C23        -6.0501   -4.4431   -0.9842 C.3       1 <0>        -0.0407
     34 H2          2.3381   -8.0122    1.3982 H         1 <0>         0.0831
     35 H3          0.7460   -7.5623    0.7417 H         1 <0>         0.0784
     36 H4          1.9177   -8.4287   -0.2805 H         1 <0>         0.0774
     37 H5          1.1347   -4.8964    1.1389 H         1 <0>         0.1550
     38 H6          3.3667   -2.2314   -0.1662 H         1 <0>         0.4241
     39 H7          0.2211   -4.0192   -0.2246 H         1 <0>         0.1631
     40 H8          1.8494    1.0573    3.2693 H         1 <0>         0.1319
     41 H9          4.2533    1.5509    3.4451 H         1 <0>         0.1405
     42 H10         4.2686    2.9225   -0.6049 H         1 <0>         0.1339
     43 H11         1.8666    2.4209   -0.7843 H         1 <0>         0.1341
     44 H12         6.1543    3.3081    1.0523 H         1 <0>         0.4168
     45 H13         8.2224    3.2282    2.5520 H         1 <0>         0.1306
     46 H14         8.7374    0.3965    1.3057 H         1 <0>         0.0995
     47 H15         9.9866    1.7393    1.5000 H         1 <0>         0.1100
     48 H16         9.6320    1.7059    4.0114 H         1 <0>         0.1092
     49 H17         8.3827    0.3633    3.8175 H         1 <0>         0.1093
     50 H18        -2.4158   -2.9234   -1.9095 H         1 <0>         0.0737
     51 H19        -1.4982   -4.3342   -1.3286 H         1 <0>         0.1318
     52 H20        -3.5722   -5.3290   -0.4274 H         1 <0>         0.1439
     53 H21        -3.7533   -4.9852   -2.1646 H         1 <0>         0.1412
     54 H22        -4.6102   -3.8259    1.2022 H         1 <0>         0.1407
     55 H23        -5.5278   -2.4152    0.6217 H         1 <0>         0.1407
     56 H24        -3.2729   -1.7645    1.4575 H         1 <0>         0.1357
     57 H25        -3.4537   -1.4201   -0.2796 H         1 <0>         0.0793
     58 H26        -6.8948   -3.7714   -0.8313 H         1 <0>         0.1238
     59 H27        -6.1225   -4.8989   -1.9717 H         1 <0>         0.1230
     60 H28        -6.0632   -5.2226   -0.2224 H         1 <0>         0.1251
     61 N8         -4.7966   -3.6630   -0.9051 N.4       1 <0>        -0.4014
     62 H29        -4.8229   -2.9169   -1.6099 H         1 <0>         0.4281
@<TRIPOS>BOND
     1    1    2 1
     2    1   34 1
     3    1   35 1
     4    1   36 1
     5    2    7 2
     6    2    3 1
     7    3    4 2
     8    3   37 1
     9    4    5 1
    10    4    8 1
    11    5    6 1
    12    5    7 1
    13    8    9 1
    14    8   38 1
    15    9   14 ar
    16    9   10 ar
    17   10   11 ar
    18   10   39 1
    19   11   12 ar
    20   11   28 1
    21   12   13 ar
    22   13   14 ar
    23   13   15 1
    24   15   16 1
    25   16   21 ar
    26   16   17 ar
    27   17   18 ar
    28   17   40 1
    29   18   19 ar
    30   18   41 1
    31   19   20 ar
    32   19   22 1
    33   20   21 ar
    34   20   42 1
    35   21   43 1
    36   22   23 am
    37   22   44 1
    38   23   24 2
    39   23   25 1
    40   25   27 1
    41   25   26 1
    42   25   45 1
    43   26   27 1
    44   26   46 1
    45   26   47 1
    46   27   48 1
    47   27   49 1
    48   28   32 1
    49   28   29 1
    50   29   30 1
    51   29   50 1
    52   29   51 1
    53   30   52 1
    54   30   53 1
    55   30   61 1
    56   31   32 1
    57   31   54 1
    58   31   55 1
    59   31   61 1
    60   32   56 1
    61   32   57 1
    62   33   58 1
    63   33   59 1
    64   33   60 1
    65   33   61 1
    66   61   62 1
