@<TRIPOS>MOLECULE
ZINC04324631
   46    48     0     0     0
SMALL
USER_CHARGES

@<TRIPOS>ATOM
      1 C1         -0.0185    1.5030    0.0322 C.3       1 <0>        -0.0824
      2 C2          0.0020   -0.0038    0.0134 C.2       1 <0>         0.0039
      3 C3         -1.0813   -0.8090    0.0073 C.2       1 <0>         0.0565
      4 C4         -0.5989   -2.1417   -0.0109 C.2       1 <0>        -0.0736
      5 C5          0.7440   -2.0703   -0.0148 C.2       1 <0>        -0.5761
      6 O1          1.1033   -0.7765   -0.0059 O.3       1 <0>        -0.1088
      7 S1          1.8471   -3.4442   -0.0358 S.o2      1 <0>         2.7170
      8 O2          3.0744   -2.9880    0.5164 O.2       1 <0>        -0.9365
      9 O3          1.1323   -4.5473    0.5039 O.2       1 <0>        -0.9285
     10 N1          2.1480   -3.8063   -1.6235 N.pl3     1 <0>        -0.9881
     11 C6          1.2945   -4.7569   -2.3492 C.3       1 <0>         0.1161
     12 C7          0.7908   -4.0875   -3.6317 C.3       1 <0>        -0.1371
     13 C8          1.9861   -3.5738   -4.4377 C.3       1 <0>        -0.1184
     14 C9          2.7476   -2.5314   -3.6158 C.3       1 <0>        -0.1370
     15 C10         3.2699   -3.1785   -2.3348 C.3       1 <0>         0.1174
     16 N2         -2.4285   -0.4038    0.0178 N.am      1 <0>        -0.6514
     17 C11        -3.4101   -1.3275    0.0098 C.2       1 <0>         0.7081
     18 O4         -3.1311   -2.5109   -0.0065 O.2       1 <0>        -0.5517
     19 N3         -4.7007   -0.9393    0.0199 N.am      1 <0>        -0.6787
     20 C12        -5.7194   -1.8936   -0.0864 C.ar      1 <0>         0.1625
     21 C13        -5.5668   -3.1422    0.5017 C.ar      1 <0>        -0.1062
     22 C14        -6.5736   -4.0818    0.3958 C.ar      1 <0>        -0.0896
     23 C15        -7.7334   -3.7798   -0.2960 C.ar      1 <0>        -0.0480
     24 C16        -7.8878   -2.5364   -0.8833 C.ar      1 <0>        -0.0905
     25 C17        -6.8866   -1.5912   -0.7751 C.ar      1 <0>        -0.1314
     26 Cl1        -8.9967   -4.9632   -0.4277 Cl        1 <0>        -0.0671
     27 H1          1.0041    1.8803    0.0281 H         1 <0>         0.0900
     28 H2         -0.5447    1.8702   -0.8489 H         1 <0>         0.0908
     29 H3         -0.5296    1.8482    0.9308 H         1 <0>         0.0912
     30 H4         -1.1955   -3.0419   -0.0196 H         1 <0>         0.1890
     31 H5          1.8718   -5.6458   -2.6034 H         1 <0>         0.0820
     32 H6          0.4457   -5.0360   -1.7250 H         1 <0>         0.0928
     33 H7          0.2354   -4.8126   -4.2266 H         1 <0>         0.0782
     34 H8          0.1395   -3.2522   -3.3745 H         1 <0>         0.0656
     35 H9          2.6496   -4.4059   -4.6734 H         1 <0>         0.0673
     36 H10         1.6318   -3.1189   -5.3627 H         1 <0>         0.0655
     37 H11         3.5850   -2.1490   -4.1994 H         1 <0>         0.0786
     38 H12         2.0779   -1.7107   -3.3587 H         1 <0>         0.0655
     39 H13         3.7239   -2.4166   -1.7012 H         1 <0>         0.0937
     40 H14         4.0118   -3.9359   -2.5879 H         1 <0>         0.0810
     41 H15        -2.6510    0.5402    0.0309 H         1 <0>         0.4124
     42 H16        -4.9237    0.0012    0.1008 H         1 <0>         0.4114
     43 H17        -4.6615   -3.3786    1.0411 H         1 <0>         0.1508
     44 H18        -6.4554   -5.0530    0.8530 H         1 <0>         0.1390
     45 H19        -8.7936   -2.3035   -1.4233 H         1 <0>         0.1392
     46 H20        -7.0095   -0.6192   -1.2296 H         1 <0>         0.1358
@<TRIPOS>BOND
     1    1    2 1
     2    1   27 1
     3    1   28 1
     4    1   29 1
     5    2    6 1
     6    2    3 2
     7    3    4 1
     8    3   16 1
     9    4    5 2
    10    4   30 1
    11    5    6 1
    12    5    7 1
    13    7    8 2
    14    7    9 2
    15    7   10 1
    16   10   15 1
    17   10   11 1
    18   11   12 1
    19   11   31 1
    20   11   32 1
    21   12   13 1
    22   12   33 1
    23   12   34 1
    24   13   14 1
    25   13   35 1
    26   13   36 1
    27   14   15 1
    28   14   37 1
    29   14   38 1
    30   15   39 1
    31   15   40 1
    32   16   17 am
    33   16   41 1
    34   17   18 2
    35   17   19 am
    36   19   20 1
    37   19   42 1
    38   20   25 ar
    39   20   21 ar
    40   21   22 ar
    41   21   43 1
    42   22   23 ar
    43   22   44 1
    44   23   24 ar
    45   23   26 1
    46   24   25 ar
    47   24   45 1
    48   25   46 1
@<TRIPOS>MOLECULE
ZINC04324633
   46    48     0     0     0
SMALL
USER_CHARGES

@<TRIPOS>ATOM
      1 C1         -0.0185    1.5030    0.0321 C.3       1 <0>        -0.0819
      2 C2          0.0020   -0.0038    0.0134 C.2       1 <0>         0.0023
      3 C3         -1.0813   -0.8090    0.0073 C.2       1 <0>         0.0579
      4 C4         -0.5989   -2.1417   -0.0109 C.2       1 <0>        -0.0734
      5 C5          0.7441   -2.0703   -0.0148 C.2       1 <0>        -0.5769
      6 O1          1.1033   -0.7765   -0.0059 O.3       1 <0>        -0.1091
      7 S1          1.8471   -3.4441   -0.0356 S.o2      1 <0>         2.7174
      8 O2          3.0745   -2.9880    0.5165 O.2       1 <0>        -0.9368
      9 O3          1.1323   -4.5472    0.5042 O.2       1 <0>        -0.9287
     10 N1          2.1480   -3.8064   -1.6233 N.pl3     1 <0>        -0.9882
     11 C6          1.2946   -4.7570   -2.3489 C.3       1 <0>         0.1161
     12 C7          0.7908   -4.0877   -3.6315 C.3       1 <0>        -0.1372
     13 C8          1.9861   -3.5742   -4.4375 C.3       1 <0>        -0.1183
     14 C9          2.7476   -2.5316   -3.6157 C.3       1 <0>        -0.1371
     15 C10         3.2699   -3.1787   -2.3347 C.3       1 <0>         0.1174
     16 N2         -2.4285   -0.4038    0.0171 N.am      1 <0>        -0.6529
     17 C11        -3.4100   -1.3275    0.0092 C.2       1 <0>         0.7074
     18 O4         -3.1311   -2.5109   -0.0064 O.2       1 <0>        -0.5528
     19 N3         -4.7007   -0.9393    0.0186 N.am      1 <0>        -0.6791
     20 C12        -5.7190   -1.8933   -0.0875 C.ar      1 <0>         0.1550
     21 C13        -5.5668   -3.1418    0.5011 C.ar      1 <0>        -0.1184
     22 C14        -6.5737   -4.0812    0.3946 C.ar      1 <0>        -0.1008
     23 C15        -7.7321   -3.7797   -0.2978 C.ar      1 <0>        -0.1320
     24 C16        -7.8867   -2.5374   -0.8850 C.ar      1 <0>        -0.1015
     25 C17        -6.8861   -1.5915   -0.7768 C.ar      1 <0>        -0.1441
     26 H1          1.0041    1.8803    0.0281 H         1 <0>         0.0897
     27 H2         -0.5448    1.8701   -0.8489 H         1 <0>         0.0905
     28 H3         -0.5296    1.8482    0.9308 H         1 <0>         0.0909
     29 H4         -1.1955   -3.0419   -0.0199 H         1 <0>         0.1889
     30 H5          1.8718   -5.6460   -2.6031 H         1 <0>         0.0819
     31 H6          0.4457   -5.0362   -1.7248 H         1 <0>         0.0928
     32 H7          0.2355   -4.8129   -4.2264 H         1 <0>         0.0782
     33 H8          0.1395   -3.2524   -3.3744 H         1 <0>         0.0657
     34 H9          2.6497   -4.4062   -4.6732 H         1 <0>         0.0673
     35 H10         1.6318   -3.1193   -5.3626 H         1 <0>         0.0654
     36 H11         3.5851   -2.1493   -4.1993 H         1 <0>         0.0785
     37 H12         2.0779   -1.7110   -3.3587 H         1 <0>         0.0656
     38 H13         3.7239   -2.4167   -1.7011 H         1 <0>         0.0936
     39 H14         4.0118   -3.9361   -2.5877 H         1 <0>         0.0809
     40 H15        -2.6510    0.5402    0.0296 H         1 <0>         0.4118
     41 H16        -4.9237    0.0012    0.0989 H         1 <0>         0.4091
     42 H17        -4.6620   -3.3781    1.0414 H         1 <0>         0.1408
     43 H18        -6.4560   -5.0524    0.8521 H         1 <0>         0.1273
     44 H19        -8.5177   -4.5162   -0.3803 H         1 <0>         0.1245
     45 H20        -8.7925   -2.3051   -1.4254 H         1 <0>         0.1274
     46 H21        -7.0093   -0.6198   -1.2319 H         1 <0>         0.1249
@<TRIPOS>BOND
     1    1    2 1
     2    1   26 1
     3    1   27 1
     4    1   28 1
     5    2    6 1
     6    2    3 2
     7    3    4 1
     8    3   16 1
     9    4    5 2
    10    4   29 1
    11    5    6 1
    12    5    7 1
    13    7    8 2
    14    7    9 2
    15    7   10 1
    16   10   15 1
    17   10   11 1
    18   11   12 1
    19   11   30 1
    20   11   31 1
    21   12   13 1
    22   12   32 1
    23   12   33 1
    24   13   14 1
    25   13   34 1
    26   13   35 1
    27   14   15 1
    28   14   36 1
    29   14   37 1
    30   15   38 1
    31   15   39 1
    32   16   17 am
    33   16   40 1
    34   17   18 2
    35   17   19 am
    36   19   20 1
    37   19   41 1
    38   20   25 ar
    39   20   21 ar
    40   21   22 ar
    41   21   42 1
    42   22   23 ar
    43   22   43 1
    44   23   24 ar
    45   23   44 1
    46   24   25 ar
    47   24   45 1
    48   25   46 1
