@<TRIPOS>MOLECULE
ZINC49114392
   45    47     0     0     0
SMALL
USER_CHARGES

@<TRIPOS>ATOM
      1 C1         -0.0167    1.3781    0.0096 C.ar      1 <0>        -0.1206
      2 C2          1.1709    2.0855    0.0021 C.ar      1 <0>        -0.1165
      3 C3          2.3773    1.4107   -0.0130 C.ar      1 <0>        -0.1152
      4 C4          2.3960    0.0285   -0.0201 C.ar      1 <0>        -0.0820
      5 C5          1.2084   -0.6789   -0.0117 C.ar      1 <0>        -0.1159
      6 C6          0.0021   -0.0041    0.0020 C.ar      1 <0>        -0.1172
      7 C7          3.7112   -0.7071   -0.0376 C.3       1 <0>        -0.0445
      8 C8          4.1644   -0.9594    1.3773 C.ar      1 <0>        -0.0915
      9 C9          4.9522   -0.0267    2.0264 C.ar      1 <0>        -0.0725
     10 C10         5.3694   -0.2559    3.3232 C.ar      1 <0>        -0.1377
     11 C11         4.9969   -1.4228    3.9745 C.ar      1 <0>         0.1075
     12 C12         4.2060   -2.3568    3.3213 C.ar      1 <0>        -0.1988
     13 C13         3.7871   -2.1206    2.0262 C.ar      1 <0>        -0.0731
     14 O1          5.4064   -1.6507    5.2502 O.3       1 <0>        -0.3261
     15 C14         4.9849   -2.8733    5.8582 C.3       1 <0>         0.0310
     16 C15         5.5391   -2.9523    7.2821 C.3       1 <0>         0.0384
     17 H1          5.2926   -3.9223    7.7141 H         1 <0>         0.1549
     18 C16         7.0593   -2.7817    7.2473 C.3       1 <0>        -0.1401
     19 C17         7.6093   -2.8617    8.6742 C.3       1 <0>        -0.1389
     20 C18         6.9252   -1.7958    9.5351 C.3       1 <0>        -0.1489
     21 C19         5.4099   -2.0031    9.4851 C.3       1 <0>        -0.0066
     22 N1          4.9428   -1.8881    8.0983 N.4       1 <0>        -0.5047
     23 H2         -0.9591    1.9053    0.0259 H         1 <0>         0.1232
     24 H3          1.1563    3.1654    0.0076 H         1 <0>         0.1236
     25 H4          3.3051    1.9634   -0.0196 H         1 <0>         0.1209
     26 H5          1.2231   -1.7588   -0.0176 H         1 <0>         0.1197
     27 H6         -0.9258   -0.5567    0.0082 H         1 <0>         0.1231
     28 H7          3.5884   -1.6586   -0.5549 H         1 <0>         0.0856
     29 H8          4.4573   -0.1052   -0.5563 H         1 <0>         0.0866
     30 H9          5.2420    0.8815    1.5189 H         1 <0>         0.1346
     31 H10         5.9853    0.4726    3.8295 H         1 <0>         0.1324
     32 H11         3.9147   -3.2660    3.8262 H         1 <0>         0.1267
     33 H12         3.1678   -2.8454    1.5188 H         1 <0>         0.1296
     34 H13         3.8958   -2.9068    5.8898 H         1 <0>         0.0865
     35 H14         5.3576   -3.7160    5.2759 H         1 <0>         0.1085
     36 H15         7.5007   -3.5735    6.6421 H         1 <0>         0.1116
     37 H16         7.3069   -1.8119    6.8156 H         1 <0>         0.0982
     38 H17         7.4067   -3.8496    9.0880 H         1 <0>         0.0822
     39 H18         8.6847   -2.6844    8.6609 H         1 <0>         0.0965
     40 H19         7.2707   -1.8830   10.5652 H         1 <0>         0.1133
     41 H20         7.1700   -0.8056    9.1509 H         1 <0>         0.0893
     42 H21         5.1662   -2.9934    9.8696 H         1 <0>         0.1310
     43 H22         4.9197   -1.2459   10.0971 H         1 <0>         0.1348
     44 H23         5.2122   -0.9896    7.7267 H         1 <0>         0.4324
     45 H24         3.9375   -1.9714    8.0755 H         1 <0>         0.4285
@<TRIPOS>BOND
     1    1    6 ar
     2    1    2 ar
     3    1   23 1
     4    2    3 ar
     5    2   24 1
     6    3    4 ar
     7    3   25 1
     8    4    5 ar
     9    4    7 1
    10    5    6 ar
    11    5   26 1
    12    6   27 1
    13    7    8 1
    14    7   28 1
    15    7   29 1
    16    8   13 ar
    17    8    9 ar
    18    9   10 ar
    19    9   30 1
    20   10   11 ar
    21   10   31 1
    22   11   12 ar
    23   11   14 1
    24   12   13 ar
    25   12   32 1
    26   13   33 1
    27   14   15 1
    28   15   16 1
    29   15   34 1
    30   15   35 1
    31   16   17 1
    32   16   22 1
    33   16   18 1
    34   18   19 1
    35   18   36 1
    36   18   37 1
    37   19   20 1
    38   19   38 1
    39   19   39 1
    40   20   21 1
    41   20   40 1
    42   20   41 1
    43   21   22 1
    44   21   42 1
    45   21   43 1
    46   22   44 1
    47   22   45 1
@<TRIPOS>MOLECULE
ZINC49784065
   45    47     0     0     0
SMALL
USER_CHARGES

@<TRIPOS>ATOM
      1 C1         -0.0167    1.3781    0.0096 C.ar      1 <0>        -0.1200
      2 C2          1.1709    2.0855    0.0021 C.ar      1 <0>        -0.1163
      3 C3          2.3773    1.4107   -0.0130 C.ar      1 <0>        -0.1151
      4 C4          2.3960    0.0285   -0.0201 C.ar      1 <0>        -0.0830
      5 C5          1.2084   -0.6789   -0.0117 C.ar      1 <0>        -0.1158
      6 C6          0.0021   -0.0041    0.0020 C.ar      1 <0>        -0.1169
      7 C7          3.7112   -0.7071   -0.0376 C.3       1 <0>        -0.0439
      8 C8          4.1644   -0.9594    1.3773 C.ar      1 <0>        -0.0916
      9 C9          4.9522   -0.0267    2.0264 C.ar      1 <0>        -0.0726
     10 C10         5.3694   -0.2559    3.3232 C.ar      1 <0>        -0.1377
     11 C11         4.9969   -1.4228    3.9745 C.ar      1 <0>         0.1075
     12 C12         4.2060   -2.3568    3.3213 C.ar      1 <0>        -0.1988
     13 C13         3.7871   -2.1206    2.0262 C.ar      1 <0>        -0.0731
     14 O1          5.4064   -1.6507    5.2502 O.3       1 <0>        -0.3261
     15 C14         4.9849   -2.8733    5.8582 C.3       1 <0>         0.0310
     16 C15         5.5391   -2.9523    7.2821 C.3       1 <0>         0.0385
     17 H1          5.1455   -3.8408    7.7759 H         1 <0>         0.1549
     18 C16         5.1166   -1.7061    8.0631 C.3       1 <0>        -0.1402
     19 C17         5.6732   -1.7899    9.4873 C.3       1 <0>        -0.1389
     20 C18         7.1953   -1.9454    9.4216 C.3       1 <0>        -0.1489
     21 C19         7.5407   -3.1827    8.5903 C.3       1 <0>        -0.0065
     22 N1          7.0040   -3.0293    7.2327 N.4       1 <0>        -0.5045
     23 H2         -0.9591    1.9053    0.0259 H         1 <0>         0.1234
     24 H3          1.1563    3.1654    0.0076 H         1 <0>         0.1238
     25 H4          3.3051    1.9634   -0.0196 H         1 <0>         0.1207
     26 H5          1.2231   -1.7588   -0.0176 H         1 <0>         0.1195
     27 H6         -0.9258   -0.5567    0.0082 H         1 <0>         0.1232
     28 H7          3.5884   -1.6586   -0.5549 H         1 <0>         0.0852
     29 H8          4.4573   -0.1052   -0.5563 H         1 <0>         0.0862
     30 H9          5.2420    0.8815    1.5189 H         1 <0>         0.1346
     31 H10         5.9853    0.4726    3.8295 H         1 <0>         0.1324
     32 H11         3.9147   -3.2660    3.8262 H         1 <0>         0.1267
     33 H12         3.1678   -2.8454    1.5188 H         1 <0>         0.1296
     34 H13         3.8958   -2.9068    5.8898 H         1 <0>         0.1083
     35 H14         5.3576   -3.7160    5.2759 H         1 <0>         0.0868
     36 H15         5.5099   -0.8170    7.5703 H         1 <0>         0.0982
     37 H16         4.0286   -1.6513    8.1001 H         1 <0>         0.1115
     38 H17         5.4230   -0.8787   10.0306 H         1 <0>         0.0964
     39 H18         5.2406   -2.6504    9.9977 H         1 <0>         0.0822
     40 H19         7.6318   -1.0612    8.9570 H         1 <0>         0.0893
     41 H20         7.5931   -2.0615   10.4298 H         1 <0>         0.1133
     42 H21         8.6237   -3.2965    8.5417 H         1 <0>         0.1349
     43 H22         7.1040   -4.0662    9.0559 H         1 <0>         0.1310
     44 H23         7.2795   -3.8217    6.6721 H         1 <0>         0.4285
     45 H24         7.3705   -2.1844    6.8203 H         1 <0>         0.4325
@<TRIPOS>BOND
     1    1    6 ar
     2    1    2 ar
     3    1   23 1
     4    2    3 ar
     5    2   24 1
     6    3    4 ar
     7    3   25 1
     8    4    5 ar
     9    4    7 1
    10    5    6 ar
    11    5   26 1
    12    6   27 1
    13    7    8 1
    14    7   28 1
    15    7   29 1
    16    8   13 ar
    17    8    9 ar
    18    9   10 ar
    19    9   30 1
    20   10   11 ar
    21   10   31 1
    22   11   12 ar
    23   11   14 1
    24   12   13 ar
    25   12   32 1
    26   13   33 1
    27   14   15 1
    28   15   16 1
    29   15   34 1
    30   15   35 1
    31   16   17 1
    32   16   22 1
    33   16   18 1
    34   18   19 1
    35   18   36 1
    36   18   37 1
    37   19   20 1
    38   19   38 1
    39   19   39 1
    40   20   21 1
    41   20   40 1
    42   20   41 1
    43   21   22 1
    44   21   42 1
    45   21   43 1
    46   22   44 1
    47   22   45 1
@<TRIPOS>MOLECULE
ZINC21047421
   43    45     0     0     0
SMALL
USER_CHARGES
(2R)-2-[(4-phenoxyphenoxy)methyl]piperidine
@<TRIPOS>ATOM
      1 C1        -12.9712    1.4682    0.9010 C.ar      1 <0>        -0.1466
      2 C2        -13.3707    0.6551   -0.1436 C.ar      1 <0>        -0.0794
      3 C3        -12.4558    0.2556   -1.0984 C.ar      1 <0>        -0.1411
      4 C4        -11.1349    0.6711   -1.0085 C.ar      1 <0>         0.1131
      5 C5        -10.7354    1.4824    0.0439 C.ar      1 <0>        -0.1970
      6 C6        -11.6556    1.8837    0.9929 C.ar      1 <0>        -0.0828
      7 O1        -10.2329    0.2797   -1.9464 O.3       1 <0>        -0.2549
      8 C7         -8.9272    0.6042   -1.7509 C.ar      1 <0>         0.0716
      9 C8         -8.3048    1.5139   -2.5934 C.ar      1 <0>        -0.0809
     10 C9         -6.9785    1.8438   -2.3944 C.ar      1 <0>        -0.1232
     11 C10        -6.2686    1.2654   -1.3526 C.ar      1 <0>         0.1113
     12 C11        -6.8892    0.3516   -0.5136 C.ar      1 <0>        -0.1852
     13 C12        -8.2172    0.0261   -0.7087 C.ar      1 <0>        -0.0981
     14 O2         -4.9627    1.5899   -1.1571 O.3       1 <0>        -0.3260
     15 C13        -4.2931    0.9562   -0.0652 C.3       1 <0>         0.0297
     16 C14        -2.8437    1.4424   -0.0043 C.3       1 <0>         0.0481
     17 H1         -2.8049    2.5416    0.0125 H         1 <0>         0.1438
     18 C15        -2.1629    0.8620    1.2373 C.3       1 <0>        -0.1412
     19 C16        -0.7064    1.3349    1.2838 C.3       1 <0>        -0.1379
     20 C17         0.0022    0.9035   -0.0032 C.3       1 <0>        -0.1507
     21 C18        -0.7414    1.4827   -1.2089 C.3       1 <0>        -0.0031
     22 N1         -2.1284    1.0003   -1.2081 N.4       1 <0>        -0.5367
     23 H2        -13.6882    1.7796    1.6462 H         1 <0>         0.1288
     24 H3        -14.3989    0.3322   -0.2133 H         1 <0>         0.1353
     25 H4        -12.7683   -0.3792   -1.9143 H         1 <0>         0.1349
     26 H5         -9.7069    1.8033    0.1189 H         1 <0>         0.1247
     27 H6        -11.3462    2.5188    1.8098 H         1 <0>         0.1270
     28 H7         -8.8575    1.9643   -3.4046 H         1 <0>         0.1471
     29 H8         -6.4939    2.5520   -3.0503 H         1 <0>         0.1430
     30 H9         -6.3351   -0.1021    0.2948 H         1 <0>         0.1346
     31 H10        -8.7016   -0.6821   -0.0527 H         1 <0>         0.1388
     32 H11        -4.8046    1.2093    0.8752 H         1 <0>         0.1088
     33 H12        -4.3083   -0.1343   -0.2088 H         1 <0>         0.0889
     34 H13        -2.6906    1.2056    2.1392 H         1 <0>         0.1140
     35 H14        -2.1921   -0.2367    1.1917 H         1 <0>         0.0930
     36 H15        -0.6794    2.4311    1.3713 H         1 <0>         0.0835
     37 H16        -0.2024    0.8853    2.1521 H         1 <0>         0.0978
     38 H17         1.0369    1.2767    0.0052 H         1 <0>         0.1125
     39 H18         0.0090   -0.1946   -0.0676 H         1 <0>         0.0886
     40 H19        -0.7357    2.5811   -1.1502 H         1 <0>         0.1275
     41 H20        -0.2428    1.1625   -2.1357 H         1 <0>         0.1346
     42 H21        -2.1176   -0.0990   -1.2452 H         1 <0>         0.4449
     43 H22        -2.6367    1.3923   -2.1014 H         1 <0>         0.4589
@<TRIPOS>BOND
     1    1    6 ar
     2    1    2 ar
     3    1   23 1
     4    2    3 ar
     5    2   24 1
     6    3    4 ar
     7    3   25 1
     8    4    5 ar
     9    4    7 1
    10    5    6 ar
    11    5   26 1
    12    6   27 1
    13    7    8 1
    14    8   13 ar
    15    8    9 ar
    16    9   10 ar
    17    9   28 1
    18   10   11 ar
    19   10   29 1
    20   11   12 ar
    21   11   14 1
    22   12   13 ar
    23   12   30 1
    24   13   31 1
    25   14   15 1
    26   15   16 1
    27   15   32 1
    28   15   33 1
    29   16   17 1
    30   16   22 1
    31   16   18 1
    32   18   19 1
    33   18   34 1
    34   18   35 1
    35   19   20 1
    36   19   36 1
    37   19   37 1
    38   20   21 1
    39   20   38 1
    40   20   39 1
    41   21   22 1
    42   21   40 1
    43   21   41 1
    44   22   42 1
    45   22   43 1
@<TRIPOS>MOLECULE
ZINC21047415
   43    45     0     0     0
SMALL
USER_CHARGES
(2S)-2-[(4-phenoxyphenoxy)methyl]piperidine
@<TRIPOS>ATOM
      1 C1         -6.7283   12.5070   -1.6248 C.ar      1 <0>        -0.1464
      2 C2         -5.6730   13.3091   -2.0183 C.ar      1 <0>        -0.0796
      3 C3         -4.4034   12.7765   -2.1303 C.ar      1 <0>        -0.1411
      4 C4         -4.1875   11.4353   -1.8475 C.ar      1 <0>         0.1128
      5 C5         -5.2494   10.6312   -1.4584 C.ar      1 <0>        -0.1967
      6 C6         -6.5160   11.1702   -1.3425 C.ar      1 <0>        -0.0825
      7 O1         -2.9396   10.9089   -1.9569 O.3       1 <0>        -0.2553
      8 C7         -2.7965    9.5667   -1.7940 C.ar      1 <0>         0.0718
      9 C8         -3.3351    8.6933   -2.7275 C.ar      1 <0>        -0.0978
     10 C9         -3.1892    7.3298   -2.5622 C.ar      1 <0>        -0.1238
     11 C10        -2.5038    6.8338   -1.4630 C.ar      1 <0>         0.1114
     12 C11        -1.9701    7.7068   -0.5266 C.ar      1 <0>        -0.1846
     13 C12        -2.1114    9.0705   -0.6945 C.ar      1 <0>        -0.0816
     14 O2         -2.3599    5.4915   -1.3005 O.3       1 <0>        -0.3262
     15 C13        -1.6426    5.0510   -0.1458 C.3       1 <0>         0.0295
     16 C14        -1.5841    3.5221   -0.1342 C.3       1 <0>         0.0480
     17 H1         -2.5931    3.0957   -0.2349 H         1 <0>         0.1437
     18 C15        -0.9273    3.0468    1.1638 C.3       1 <0>        -0.1411
     19 C16        -0.8520    1.5174    1.1626 C.3       1 <0>        -0.1380
     20 C17        -0.0700    1.0538   -0.0695 C.3       1 <0>        -0.1507
     21 C18        -0.7517    1.5869   -1.3317 C.3       1 <0>        -0.0032
     22 N1         -0.7975    3.0538   -1.2824 N.4       1 <0>        -0.5368
     23 H2         -7.7201   12.9255   -1.5376 H         1 <0>         0.1289
     24 H3         -5.8414   14.3530   -2.2380 H         1 <0>         0.1352
     25 H4         -3.5794   13.4035   -2.4374 H         1 <0>         0.1347
     26 H5         -5.0849    9.5859   -1.2424 H         1 <0>         0.1251
     27 H6         -7.3419   10.5458   -1.0353 H         1 <0>         0.1273
     28 H7         -3.8682    9.0794   -3.5837 H         1 <0>         0.1437
     29 H8         -3.6086    6.6498   -3.2889 H         1 <0>         0.1412
     30 H9         -1.4403    7.3204    0.3315 H         1 <0>         0.1362
     31 H10        -1.6920    9.7504    0.0324 H         1 <0>         0.1419
     32 H11        -0.6205    5.4569   -0.1721 H         1 <0>         0.0892
     33 H12        -2.1545    5.4052    0.7611 H         1 <0>         0.1091
     34 H13         0.0874    3.4653    1.2359 H         1 <0>         0.0931
     35 H14        -1.5254    3.3853    2.0227 H         1 <0>         0.1141
     36 H15        -0.3415    1.1747    2.0747 H         1 <0>         0.0979
     37 H16        -1.8694    1.1002    1.1331 H         1 <0>         0.0834
     38 H17         0.9592    1.4384   -0.0166 H         1 <0>         0.0887
     39 H18        -0.0496   -0.0456   -0.0985 H         1 <0>         0.1125
     40 H19        -0.1835    1.2678   -2.2179 H         1 <0>         0.1345
     41 H20        -1.7760    1.1903   -1.3906 H         1 <0>         0.1274
     42 H21        -1.2529    3.4222   -2.2135 H         1 <0>         0.4588
     43 H22         0.2314    3.4345   -1.2018 H         1 <0>         0.4450
@<TRIPOS>BOND
     1    1    6 ar
     2    1    2 ar
     3    1   23 1
     4    2    3 ar
     5    2   24 1
     6    3    4 ar
     7    3   25 1
     8    4    5 ar
     9    4    7 1
    10    5    6 ar
    11    5   26 1
    12    6   27 1
    13    7    8 1
    14    8   13 ar
    15    8    9 ar
    16    9   10 ar
    17    9   28 1
    18   10   11 ar
    19   10   29 1
    20   11   12 ar
    21   11   14 1
    22   12   13 ar
    23   12   30 1
    24   13   31 1
    25   14   15 1
    26   15   16 1
    27   15   32 1
    28   15   33 1
    29   16   17 1
    30   16   22 1
    31   16   18 1
    32   18   19 1
    33   18   34 1
    34   18   35 1
    35   19   20 1
    36   19   36 1
    37   19   37 1
    38   20   21 1
    39   20   38 1
    40   20   39 1
    41   21   22 1
    42   21   40 1
    43   21   41 1
    44   22   42 1
    45   22   43 1
@<TRIPOS>MOLECULE
ZINC01544408
   49    50     0     0     0
SMALL
USER_CHARGES
3-[3-(4-benzylphenoxy)propyl-methyl-amino]propanoic acid
@<TRIPOS>ATOM
      1 C1          3.5934   -1.4282  -10.2618 C.3       1 <0>        -0.0491
      2 C2          3.6944   -2.4169   -8.0539 C.3       1 <0>        -0.0010
      3 C3          4.1641   -1.1176   -7.3965 C.3       1 <0>        -0.1500
      4 C4          3.6387   -1.0535   -5.9609 C.3       1 <0>         0.0632
      5 O1          4.0774    0.1600   -5.3469 O.3       1 <0>        -0.3143
      6 C5          3.6944    0.3742   -4.0607 C.ar      1 <0>         0.1207
      7 C6          4.0847    1.5317   -3.4031 C.ar      1 <0>        -0.1444
      8 C7          3.6944    1.7469   -2.0955 C.ar      1 <0>        -0.0729
      9 C8          2.9150    0.8100   -1.4424 C.ar      1 <0>        -0.1057
     10 C9          2.5293   -0.3470   -2.0938 C.ar      1 <0>        -0.0732
     11 C10         2.9127   -0.5645   -3.4030 C.ar      1 <0>        -0.2036
     12 C11         2.4902    1.0476   -0.0161 C.3       1 <0>        -0.0407
     13 C12         1.1750    1.7832    0.0004 C.ar      1 <0>        -0.0784
     14 C13        -0.0126    1.0758    0.0080 C.ar      1 <0>        -0.1158
     15 C14        -1.2190    1.7507    0.0173 C.ar      1 <0>        -0.1178
     16 C15        -1.2377    3.1328    0.0303 C.ar      1 <0>        -0.1231
     17 C16        -0.0501    3.8402    0.0223 C.ar      1 <0>        -0.1174
     18 C17         1.1563    3.1654    0.0076 C.ar      1 <0>        -0.1152
     19 C18         3.9726   -3.8070  -10.0168 C.3       1 <0>         0.0140
     20 C19         4.7238   -3.9143  -11.3453 C.3       1 <0>        -0.1902
     21 C20         4.4916   -5.2772  -11.9450 C.2       1 <0>         0.4644
     22 O2          3.7967   -6.0803  -11.3689 O.co2     1 <0>        -0.6307
     23 H1          3.8354   -0.4508   -9.8444 H         1 <0>         0.1168
     24 H2          3.9842   -1.4966  -11.2770 H         1 <0>         0.1256
     25 H3          2.5113   -1.5579  -10.2796 H         1 <0>         0.1216
     26 H4          4.0750   -3.2681   -7.4893 H         1 <0>         0.1312
     27 H5          2.6048   -2.4456   -8.0642 H         1 <0>         0.1321
     28 H6          3.7835   -0.2665   -7.9610 H         1 <0>         0.0973
     29 H7          5.2537   -1.0889   -7.3862 H         1 <0>         0.0972
     30 H8          4.0193   -1.9047   -5.3964 H         1 <0>         0.0725
     31 H9          2.5491   -1.0823   -5.9712 H         1 <0>         0.0716
     32 H10         4.6935    2.2637   -3.9128 H         1 <0>         0.1317
     33 H11         3.9980    2.6478   -1.5831 H         1 <0>         0.1308
     34 H12         1.9245   -1.0795   -1.5799 H         1 <0>         0.1260
     35 H13         2.6072   -1.4662   -3.9130 H         1 <0>         0.1267
     36 H14         3.2466    1.6441    0.4937 H         1 <0>         0.0838
     37 H15         2.3777    0.0907    0.4936 H         1 <0>         0.0830
     38 H16         0.0021   -0.0041    0.0020 H         1 <0>         0.1198
     39 H17        -2.1469    1.1980    0.0188 H         1 <0>         0.1219
     40 H18        -2.1802    3.6600    0.0422 H         1 <0>         0.1216
     41 H19        -0.0647    4.9201    0.0280 H         1 <0>         0.1223
     42 H20         2.0841    3.7181    0.0014 H         1 <0>         0.1207
     43 H21         4.3360   -4.5724   -9.3310 H         1 <0>         0.1294
     44 H22         2.9061   -3.9510  -10.1897 H         1 <0>         0.1319
     45 H23         4.3603   -3.1489  -12.0311 H         1 <0>         0.0879
     46 H24         5.7903   -3.7703  -11.1724 H         1 <0>         0.0872
     47 N1          4.2272   -2.4739   -9.4314 N.4       1 <0>        -0.3960
     48 H25         5.2404   -2.3096   -9.4042 H         1 <0>         0.4256
     49 O3          5.0569   -5.5990  -13.1192 O.co2     1 <0>        -0.7394
@<TRIPOS>BOND
     1    1   23 1
     2    1   24 1
     3    1   25 1
     4    1   47 1
     5    2    3 1
     6    2   26 1
     7    2   27 1
     8    2   47 1
     9    3    4 1
    10    3   28 1
    11    3   29 1
    12    4    5 1
    13    4   30 1
    14    4   31 1
    15    5    6 1
    16    6   11 ar
    17    6    7 ar
    18    7    8 ar
    19    7   32 1
    20    8    9 ar
    21    8   33 1
    22    9   10 ar
    23    9   12 1
    24   10   11 ar
    25   10   34 1
    26   11   35 1
    27   12   13 1
    28   12   36 1
    29   12   37 1
    30   13   18 ar
    31   13   14 ar
    32   14   15 ar
    33   14   38 1
    34   15   16 ar
    35   15   39 1
    36   16   17 ar
    37   16   40 1
    38   17   18 ar
    39   17   41 1
    40   18   42 1
    41   19   20 1
    42   19   43 1
    43   19   44 1
    44   19   47 1
    45   20   21 1
    46   20   45 1
    47   20   46 1
    48   21   22 2
    49   21   49 1
    50   47   48 1
@<TRIPOS>MOLECULE
ZINC00025447
   42    44     0     0     0
SMALL
USER_CHARGES

@<TRIPOS>ATOM
      1 C1         -0.0167    1.3790    0.0096 C.ar      1 <0>        -0.1117
      2 C2          1.1686    2.0920    0.0021 C.ar      1 <0>        -0.1149
      3 C3          2.3774    1.4261   -0.0130 C.ar      1 <0>        -0.1098
      4 C4          2.4023    0.0328   -0.0207 C.ar      1 <0>        -0.0561
      5 C5          1.2051   -0.6804   -0.0131 C.ar      1 <0>        -0.1106
      6 C6          0.0021   -0.0041    0.0020 C.ar      1 <0>        -0.1155
      7 C7          3.6985   -0.6887   -0.0375 C.ar      1 <0>        -0.0573
      8 C8          4.8953    0.0258   -0.0397 C.ar      1 <0>        -0.0717
      9 C9          6.0987   -0.6476   -0.0549 C.ar      1 <0>        -0.1359
     10 C10         6.1189   -2.0357   -0.0683 C.ar      1 <0>         0.1099
     11 C11         4.9285   -2.7500   -0.0661 C.ar      1 <0>        -0.1973
     12 C12         3.7220   -2.0822   -0.0452 C.ar      1 <0>        -0.0723
     13 O1          7.3061   -2.6964   -0.0841 O.3       1 <0>        -0.3280
     14 C13         7.2537   -4.1244   -0.0974 C.3       1 <0>         0.0267
     15 C14         8.6764   -4.6868   -0.1141 C.3       1 <0>         0.0040
     16 N1          9.3570   -4.3345    1.1392 N.4       1 <0>        -0.3958
     17 C15         8.7479   -5.0698    2.2770 C.3       1 <0>        -0.0105
     18 C16         9.8656   -5.0516    3.3499 C.3       1 <0>        -0.1447
     19 C17        11.1529   -5.2223    2.5110 C.3       1 <0>        -0.1450
     20 C18        10.7708   -4.7662    1.0906 C.3       1 <0>        -0.0086
     21 H1         -0.9603    1.9042    0.0260 H         1 <0>         0.1270
     22 H2          1.1482    3.1718    0.0078 H         1 <0>         0.1279
     23 H3          3.3023    1.9837   -0.0192 H         1 <0>         0.1253
     24 H4          1.2186   -1.7603   -0.0194 H         1 <0>         0.1238
     25 H5         -0.9264   -0.5557    0.0083 H         1 <0>         0.1274
     26 H6          4.8802    1.1056   -0.0300 H         1 <0>         0.1392
     27 H7          7.0263   -0.0945   -0.0566 H         1 <0>         0.1354
     28 H8          4.9472   -3.8298   -0.0770 H         1 <0>         0.1292
     29 H9          2.7963   -2.6385   -0.0394 H         1 <0>         0.1342
     30 H10         6.7340   -4.4772    0.7934 H         1 <0>         0.0854
     31 H11         6.7198   -4.4601   -0.9864 H         1 <0>         0.1085
     32 H12         8.6372   -5.7715   -0.2137 H         1 <0>         0.1486
     33 H13         9.2243   -4.2641   -0.9563 H         1 <0>         0.1414
     34 H14         7.8594   -4.5520    2.6382 H         1 <0>         0.1333
     35 H15         8.5076   -6.0933    1.9891 H         1 <0>         0.1349
     36 H16         9.8747   -4.0999    3.8811 H         1 <0>         0.0984
     37 H17         9.7458   -5.8819    4.0458 H         1 <0>         0.1173
     38 H18        11.9497   -4.5937    2.9086 H         1 <0>         0.1057
     39 H19        11.4629   -6.2672    2.5022 H         1 <0>         0.1044
     40 H20        10.8820   -5.5953    0.3919 H         1 <0>         0.1314
     41 H21        11.4033   -3.9326    0.7855 H         1 <0>         0.1330
     42 H22         9.3023   -3.3395    1.2975 H         1 <0>         0.4336
@<TRIPOS>BOND
     1    1    6 ar
     2    1    2 ar
     3    1   21 1
     4    2    3 ar
     5    2   22 1
     6    3    4 ar
     7    3   23 1
     8    4    5 ar
     9    4    7 1
    10    5    6 ar
    11    5   24 1
    12    6   25 1
    13    7   12 ar
    14    7    8 ar
    15    8    9 ar
    16    8   26 1
    17    9   10 ar
    18    9   27 1
    19   10   11 ar
    20   10   13 1
    21   11   12 ar
    22   11   28 1
    23   12   29 1
    24   13   14 1
    25   14   15 1
    26   14   30 1
    27   14   31 1
    28   15   16 1
    29   15   32 1
    30   15   33 1
    31   16   20 1
    32   16   17 1
    33   16   42 1
    34   17   18 1
    35   17   34 1
    36   17   35 1
    37   18   19 1
    38   18   36 1
    39   18   37 1
    40   19   20 1
    41   19   38 1
    42   19   39 1
    43   20   40 1
    44   20   41 1
@<TRIPOS>MOLECULE
ZINC06096674
   45    47     0     0     0
SMALL
USER_CHARGES
1-[2-(4-benzylphenoxy)ethyl]pyrrolidine
@<TRIPOS>ATOM
      1 C1          9.6737    9.2143    0.0216 C.ar      1 <0>        -0.1200
      2 C2          9.6316    8.4047    1.1413 C.ar      1 <0>        -0.1169
      3 C3          9.4544    7.0409    1.0018 C.ar      1 <0>        -0.1159
      4 C4          9.3198    6.4866   -0.2574 C.ar      1 <0>        -0.0831
      5 C5          9.3676    7.2955   -1.3774 C.ar      1 <0>        -0.1150
      6 C6          9.5395    8.6600   -1.2376 C.ar      1 <0>        -0.1163
      7 C7          9.1270    4.9998   -0.4095 C.3       1 <0>        -0.0437
      8 C8          7.6547    4.6791   -0.3866 C.ar      1 <0>        -0.0918
      9 C9          6.9341    4.6600   -1.5665 C.ar      1 <0>        -0.0724
     10 C10         5.5844    4.3664   -1.5482 C.ar      1 <0>        -0.1379
     11 C11         4.9519    4.0906   -0.3447 C.ar      1 <0>         0.1069
     12 C12         5.6760    4.1160    0.8385 C.ar      1 <0>        -0.1991
     13 C13         7.0268    4.4041    0.8141 C.ar      1 <0>        -0.0732
     14 O1          3.6242    3.8014   -0.3241 O.3       1 <0>        -0.3277
     15 C14         3.0396    3.5276    0.9508 C.3       1 <0>         0.0265
     16 C15         1.5500    3.2262    0.7746 C.3       1 <0>         0.0091
     17 C16        -0.0188    1.5357    0.0105 C.3       1 <0>        -0.0099
     18 C17         0.0021   -0.0041    0.0020 C.3       1 <0>        -0.1472
     19 C18         1.4996   -0.3877    0.0176 C.3       1 <0>        -0.1460
     20 C19         2.1759    0.8800    0.5975 C.3       1 <0>        -0.0126
     21 H1          9.8118   10.2799    0.1306 H         1 <0>         0.1235
     22 H2          9.7368    8.8378    2.1250 H         1 <0>         0.1232
     23 H3          9.4215    6.4084    1.8766 H         1 <0>         0.1195
     24 H4          9.2668    6.8619   -2.3614 H         1 <0>         0.1207
     25 H5          9.5728    9.2925   -2.1124 H         1 <0>         0.1238
     26 H6          9.6242    4.4831    0.4115 H         1 <0>         0.0852
     27 H7          9.5554    4.6729   -1.3570 H         1 <0>         0.0861
     28 H8          7.4270    4.8745   -2.5033 H         1 <0>         0.1348
     29 H9          5.0220    4.3513   -2.4702 H         1 <0>         0.1326
     30 H10         5.1849    3.9060    1.7772 H         1 <0>         0.1265
     31 H11         7.5920    4.4189    1.7343 H         1 <0>         0.1296
     32 H12         3.1605    4.3949    1.5998 H         1 <0>         0.1074
     33 H13         3.5340    2.6661    1.3998 H         1 <0>         0.0859
     34 H14         1.0725    4.0510    0.2456 H         1 <0>         0.1426
     35 H15         1.0856    3.1049    1.7533 H         1 <0>         0.1465
     36 H16        -0.5346    1.9049   -0.8759 H         1 <0>         0.1342
     37 H17        -0.5176    1.8954    0.9105 H         1 <0>         0.1314
     38 H18        -0.4976   -0.3941    0.8888 H         1 <0>         0.1035
     39 H19        -0.4764   -0.3840   -0.9007 H         1 <0>         0.1052
     40 H20         1.6709   -1.2471    0.6658 H         1 <0>         0.1160
     41 H21         1.8570   -0.5877   -0.9925 H         1 <0>         0.0984
     42 H22         2.0971    0.8949    1.6845 H         1 <0>         0.1334
     43 H23         3.2188    0.9365    0.2855 H         1 <0>         0.1353
     44 N1          1.3856    1.9611   -0.0026 N.4       1 <0>        -0.3957
     45 H24         1.6920    2.1180   -0.9699 H         1 <0>         0.4365
@<TRIPOS>BOND
     1    1    6 ar
     2    1    2 ar
     3    1   21 1
     4    2    3 ar
     5    2   22 1
     6    3    4 ar
     7    3   23 1
     8    4    5 ar
     9    4    7 1
    10    5    6 ar
    11    5   24 1
    12    6   25 1
    13    7    8 1
    14    7   26 1
    15    7   27 1
    16    8   13 ar
    17    8    9 ar
    18    9   10 ar
    19    9   28 1
    20   10   11 ar
    21   10   29 1
    22   11   12 ar
    23   11   14 1
    24   12   13 ar
    25   12   30 1
    26   13   31 1
    27   14   15 1
    28   15   16 1
    29   15   32 1
    30   15   33 1
    31   16   34 1
    32   16   35 1
    33   16   44 1
    34   17   18 1
    35   17   36 1
    36   17   37 1
    37   17   44 1
    38   18   19 1
    39   18   38 1
    40   18   39 1
    41   19   20 1
    42   19   40 1
    43   19   41 1
    44   20   42 1
    45   20   43 1
    46   20   44 1
    47   44   45 1
@<TRIPOS>MOLECULE
ZINC00527831
   45    48     0     0     0
SMALL
USER_CHARGES
1-[2-(4-benzylphenoxy)ethyl]benzoimidazole
@<TRIPOS>ATOM
      1 C1          7.6801    6.6865    3.9920 C.ar      1 <0>        -0.1239
      2 C2          8.0279    5.5235    3.3307 C.ar      1 <0>        -0.1179
      3 C3          7.6074    5.3155    2.0304 C.ar      1 <0>        -0.1157
      4 C4          6.8394    6.2708    1.3912 C.ar      1 <0>        -0.0772
      5 C5          6.4964    7.4364    2.0505 C.ar      1 <0>        -0.1152
      6 C6          6.9125    7.6420    3.3526 C.ar      1 <0>        -0.1176
      7 C7          6.3814    6.0443   -0.0266 C.3       1 <0>        -0.0394
      8 C8          5.0481    5.3420   -0.0175 C.ar      1 <0>        -0.1094
      9 C9          3.8792    6.0803   -0.0024 C.ar      1 <0>        -0.0735
     10 C10         2.6557    5.4388    0.0059 C.ar      1 <0>        -0.1449
     11 C11         2.6006    4.0526   -0.0010 C.ar      1 <0>         0.1250
     12 C12         3.7749    3.3140   -0.0105 C.ar      1 <0>        -0.2030
     13 C13         4.9958    3.9603   -0.0249 C.ar      1 <0>        -0.0727
     14 O1          1.3982    3.4192    0.0071 O.3       1 <0>        -0.3119
     15 C14         1.4176    1.9904   -0.0008 C.3       1 <0>         0.0451
     16 C15        -0.0178    1.4608    0.0101 C.3       1 <0>         0.1164
     17 N1          0.0021   -0.0041    0.0020 N.pl3     1 <0>        -0.4925
     18 C16        -0.0988   -0.8058   -1.0924 C.2       1 <0>         0.2632
     19 N2         -0.0421   -2.0563   -0.7375 N.2       1 <0>        -0.4912
     20 C17         0.0905   -2.1426    0.6111 C.ar      1 <0>         0.0447
     21 C18         0.1206   -0.8269    1.1043 C.ar      1 <0>         0.0459
     22 C19         0.2498   -0.6034    2.4680 C.ar      1 <0>        -0.1127
     23 C20         0.3482   -1.6756    3.3295 C.ar      1 <0>        -0.0981
     24 C21         0.3183   -2.9742    2.8421 C.ar      1 <0>        -0.1267
     25 C22         0.1915   -3.2132    1.5028 C.ar      1 <0>        -0.0625
     26 H1          8.0083    6.8488    5.0080 H         1 <0>         0.1211
     27 H2          8.6279    4.7771    3.8301 H         1 <0>         0.1215
     28 H3          7.8792    4.4069    1.5137 H         1 <0>         0.1197
     29 H4          5.9001    8.1846    1.5496 H         1 <0>         0.1207
     30 H5          6.6410    8.5508    3.8691 H         1 <0>         0.1219
     31 H6          7.1126    5.4290   -0.5507 H         1 <0>         0.0821
     32 H7          6.2832    7.0038   -0.5343 H         1 <0>         0.0832
     33 H8          3.9226    7.1594    0.0026 H         1 <0>         0.1301
     34 H9          1.7429    6.0160    0.0174 H         1 <0>         0.1323
     35 H10         3.7346    2.2348   -0.0113 H         1 <0>         0.1257
     36 H11         5.9103    3.3858   -0.0375 H         1 <0>         0.1247
     37 H12         1.9448    1.6293    0.8823 H         1 <0>         0.0692
     38 H13         1.9278    1.6388   -0.8976 H         1 <0>         0.0708
     39 H14        -0.5450    1.8219   -0.8730 H         1 <0>         0.1104
     40 H15        -0.5280    1.8123    0.9069 H         1 <0>         0.1021
     41 H16        -0.2080   -0.4553   -2.1081 H         1 <0>         0.2156
     42 H17         0.2736    0.4055    2.8525 H         1 <0>         0.1216
     43 H18         0.4490   -1.5033    4.3909 H         1 <0>         0.1314
     44 H19         0.3958   -3.8045    3.5283 H         1 <0>         0.1311
     45 H20         0.1690   -4.2281    1.1342 H         1 <0>         0.1305
@<TRIPOS>BOND
     1    1    6 ar
     2    1    2 ar
     3    1   26 1
     4    2    3 ar
     5    2   27 1
     6    3    4 ar
     7    3   28 1
     8    4    5 ar
     9    4    7 1
    10    5    6 ar
    11    5   29 1
    12    6   30 1
    13    7    8 1
    14    7   31 1
    15    7   32 1
    16    8   13 ar
    17    8    9 ar
    18    9   10 ar
    19    9   33 1
    20   10   11 ar
    21   10   34 1
    22   11   12 ar
    23   11   14 1
    24   12   13 ar
    25   12   35 1
    26   13   36 1
    27   14   15 1
    28   15   16 1
    29   15   37 1
    30   15   38 1
    31   16   17 1
    32   16   39 1
    33   16   40 1
    34   17   21 1
    35   17   18 1
    36   18   19 2
    37   18   41 1
    38   19   20 1
    39   20   25 ar
    40   20   21 ar
    41   21   22 ar
    42   22   23 ar
    43   22   42 1
    44   23   24 ar
    45   23   43 1
    46   24   25 ar
    47   24   44 1
    48   25   45 1
@<TRIPOS>MOLECULE
ZINC00057001
   28    28     0     0     0
SMALL
USER_CHARGES

@<TRIPOS>ATOM
      1 C1         -0.0187    1.5258    0.0104 C.3       1 <0>        -0.1499
      2 C2          0.0021   -0.0041    0.0020 C.3       1 <0>        -0.0861
      3 H1         -1.0205   -0.3814    0.0098 H         1 <0>         0.0991
      4 C3          0.7421   -0.5109    1.2415 C.3       1 <0>        -0.0413
      5 S1         -0.1871   -0.0517    2.7303 S.3       1 <0>        -0.2560
      6 C4          0.7074   -0.4901   -1.2379 C.2       1 <0>         0.5406
      7 O1          1.7039   -1.1744   -1.1398 O.2       1 <0>        -0.5341
      8 N1          0.2309   -0.1642   -2.4557 N.am      1 <0>        -0.5870
      9 C5         -0.9612    0.6622   -2.7190 C.3       1 <0>         0.1001
     10 C6         -1.4323    0.2395   -4.1329 C.3       1 <0>        -0.1344
     11 C7         -0.0792    0.0101   -4.8565 C.3       1 <0>        -0.1069
     12 C8          0.8176   -0.5687   -3.7417 C.3       1 <0>         0.0652
     13 H2          0.8397   -1.6561   -3.8134 H         1 <0>         0.0661
     14 C9          2.2140   -0.0156   -3.8646 C.2       1 <0>         0.4962
     15 O2          2.9386   -0.3858   -4.7726 O.co2     1 <0>        -0.7023
     16 O3          2.6192    0.8020   -3.0561 O.co2     1 <0>        -0.6788
     17 H3          1.0039    1.9031    0.0027 H         1 <0>         0.0664
     18 H4         -0.5459    1.8868   -0.8726 H         1 <0>         0.0680
     19 H5         -0.5289    1.8773    0.9072 H         1 <0>         0.0715
     20 H6          0.8346   -1.5958    1.1912 H         1 <0>         0.0908
     21 H7          1.7350   -0.0630    1.2804 H         1 <0>         0.0927
     22 H8          0.5521   -0.5447    3.7401 H         1 <0>         0.0864
     23 H9         -1.7373    0.4540   -1.9825 H         1 <0>         0.0699
     24 H10        -0.6995    1.7202   -2.7069 H         1 <0>         0.0682
     25 H11        -2.0144   -0.6812   -4.0917 H         1 <0>         0.0709
     26 H12        -2.0003    1.0379   -4.6104 H         1 <0>         0.0779
     27 H13        -0.1941   -0.7041   -5.6719 H         1 <0>         0.0749
     28 H14         0.3271    0.9530   -5.2227 H         1 <0>         0.0719
@<TRIPOS>BOND
     1    1    2 1
     2    1   17 1
     3    1   18 1
     4    1   19 1
     5    2    3 1
     6    2    4 1
     7    2    6 1
     8    4    5 1
     9    4   20 1
    10    4   21 1
    11    5   22 1
    12    6    7 2
    13    6    8 am
    14    8   12 1
    15    8    9 1
    16    9   10 1
    17    9   23 1
    18    9   24 1
    19   10   11 1
    20   10   25 1
    21   10   26 1
    22   11   12 1
    23   11   27 1
    24   11   28 1
    25   12   13 1
    26   12   14 1
    27   14   15 2
    28   14   16 1
@<TRIPOS>MOLECULE
ZINC13805381
   47    49     0     0     0
SMALL
USER_CHARGES
N-[[4-(2-pyrrolidin-1-ylethoxy)phenyl]methyl]aniline
@<TRIPOS>ATOM
      1 C1         13.1543    8.0550   -0.2372 C.ar      1 <0>        -0.1744
      2 C2         12.0569    8.8862   -0.1058 C.ar      1 <0>        -0.0720
      3 C3         10.7819    8.3556   -0.1137 C.ar      1 <0>        -0.1937
      4 C4         10.6025    6.9852   -0.2538 C.ar      1 <0>         0.2092
      5 C5         11.7072    6.1526   -0.3803 C.ar      1 <0>        -0.1978
      6 C6         12.9792    6.6904   -0.3769 C.ar      1 <0>        -0.0726
      7 N1          9.3144    6.4452   -0.2616 N.pl3     1 <0>        -0.7485
      8 C7          9.1270    4.9998   -0.4095 C.3       1 <0>         0.1675
      9 C8          7.6547    4.6791   -0.3866 C.ar      1 <0>        -0.1259
     10 C9          6.9341    4.6600   -1.5665 C.ar      1 <0>        -0.0576
     11 C10         5.5844    4.3664   -1.5482 C.ar      1 <0>        -0.1428
     12 C11         4.9519    4.0906   -0.3447 C.ar      1 <0>         0.1199
     13 C12         5.6760    4.1160    0.8385 C.ar      1 <0>        -0.2044
     14 C13         7.0266    4.4050    0.8142 C.ar      1 <0>        -0.0581
     15 O1          3.6242    3.8014   -0.3241 O.3       1 <0>        -0.3265
     16 C14         3.0396    3.5276    0.9508 C.3       1 <0>         0.0258
     17 C15         1.5500    3.2262    0.7746 C.3       1 <0>         0.0089
     18 C16        -0.0188    1.5357    0.0105 C.3       1 <0>        -0.0099
     19 C17         0.0021   -0.0041    0.0020 C.3       1 <0>        -0.1473
     20 C18         1.4996   -0.3877    0.0176 C.3       1 <0>        -0.1460
     21 C19         2.1759    0.8800    0.5975 C.3       1 <0>        -0.0128
     22 H1         14.1503    8.4726   -0.2311 H         1 <0>         0.1201
     23 H2         12.1971    9.9515    0.0027 H         1 <0>         0.1222
     24 H3          9.9253    9.0052   -0.0107 H         1 <0>         0.1179
     25 H4         11.5713    5.0863   -0.4849 H         1 <0>         0.1184
     26 H5         13.8384    6.0441   -0.4793 H         1 <0>         0.1217
     27 H6          8.5439    7.0272   -0.1692 H         1 <0>         0.3989
     28 H7          9.6242    4.4831    0.4115 H         1 <0>         0.0692
     29 H8          9.5554    4.6729   -1.3570 H         1 <0>         0.0702
     30 H9          7.4270    4.8745   -2.5033 H         1 <0>         0.1379
     31 H10         5.0220    4.3513   -2.4702 H         1 <0>         0.1353
     32 H11         5.1849    3.9060    1.7772 H         1 <0>         0.1291
     33 H12         7.5916    4.4205    1.7345 H         1 <0>         0.1328
     34 H13         3.1605    4.3949    1.5998 H         1 <0>         0.1085
     35 H14         3.5340    2.6661    1.3998 H         1 <0>         0.0870
     36 H15         1.0725    4.0510    0.2456 H         1 <0>         0.1431
     37 H16         1.0856    3.1049    1.7533 H         1 <0>         0.1473
     38 H17        -0.5346    1.9049   -0.8759 H         1 <0>         0.1344
     39 H18        -0.5176    1.8954    0.9105 H         1 <0>         0.1316
     40 H19        -0.4976   -0.3941    0.8888 H         1 <0>         0.1037
     41 H20        -0.4764   -0.3840   -0.9007 H         1 <0>         0.1055
     42 H21         1.6709   -1.2471    0.6658 H         1 <0>         0.1163
     43 H22         1.8570   -0.5877   -0.9925 H         1 <0>         0.0986
     44 H23         2.0971    0.8949    1.6845 H         1 <0>         0.1336
     45 H24         3.2188    0.9365    0.2855 H         1 <0>         0.1351
     46 N2          1.3856    1.9611   -0.0026 N.4       1 <0>        -0.3959
     47 H25         1.6920    2.1180   -0.9699 H         1 <0>         0.4365
@<TRIPOS>BOND
     1    1    6 ar
     2    1    2 ar
     3    1   22 1
     4    2    3 ar
     5    2   23 1
     6    3    4 ar
     7    3   24 1
     8    4    5 ar
     9    4    7 1
    10    5    6 ar
    11    5   25 1
    12    6   26 1
    13    7    8 1
    14    7   27 1
    15    8    9 1
    16    8   28 1
    17    8   29 1
    18    9   14 ar
    19    9   10 ar
    20   10   11 ar
    21   10   30 1
    22   11   12 ar
    23   11   31 1
    24   12   13 ar
    25   12   15 1
    26   13   14 ar
    27   13   32 1
    28   14   33 1
    29   15   16 1
    30   16   17 1
    31   16   34 1
    32   16   35 1
    33   17   36 1
    34   17   37 1
    35   17   46 1
    36   18   19 1
    37   18   38 1
    38   18   39 1
    39   18   46 1
    40   19   20 1
    41   19   40 1
    42   19   41 1
    43   20   21 1
    44   20   42 1
    45   20   43 1
    46   21   44 1
    47   21   45 1
    48   21   46 1
    49   46   47 1
@<TRIPOS>MOLECULE
ZINC04845158
   46    48     0     0     0
SMALL
USER_CHARGES

@<TRIPOS>ATOM
      1 C1         -0.0167    1.3781    0.0096 C.ar      1 <0>        -0.1044
      2 C2          1.1709    2.0855    0.0021 C.ar      1 <0>        -0.1219
      3 C3          2.3773    1.4107   -0.0130 C.ar      1 <0>        -0.0951
      4 C4          2.3960    0.0285   -0.0201 C.ar      1 <0>        -0.1053
      5 C5          1.2084   -0.6789   -0.0117 C.ar      1 <0>        -0.0947
      6 C6          0.0021   -0.0041    0.0020 C.ar      1 <0>        -0.1216
      7 C7          3.7112   -0.7071   -0.0376 C.3       1 <0>         0.1032
      8 O1          4.1410   -0.9464    1.3041 O.3       1 <0>        -0.3050
      9 C8          5.3193   -1.6053    1.4666 C.ar      1 <0>         0.1159
     10 C9          6.0479   -2.0073    0.3570 C.ar      1 <0>        -0.1712
     11 C10         7.2448   -2.6767    0.5221 C.ar      1 <0>        -0.0985
     12 C11         7.7183   -2.9465    1.7975 C.ar      1 <0>         0.0692
     13 C12         6.9902   -2.5437    2.9072 C.ar      1 <0>        -0.1588
     14 C13         5.7954   -1.8705    2.7421 C.ar      1 <0>        -0.1128
     15 O2          8.8962   -3.6062    1.9601 O.3       1 <0>        -0.3256
     16 C14         9.3234   -3.8503    3.3017 C.3       1 <0>         0.0281
     17 C15        10.6585   -4.5973    3.2840 C.3       1 <0>         0.0013
     18 N1         11.6937   -3.7361    2.6972 N.4       1 <0>        -0.3911
     19 C16        11.3874   -3.4904    1.2718 C.3       1 <0>        -0.0010
     20 C17        12.7682   -3.4573    0.5704 C.3       1 <0>        -0.1459
     21 C18        13.5410   -4.5551    1.3479 C.3       1 <0>        -0.1421
     22 C19        13.0049   -4.4045    2.7871 C.3       1 <0>        -0.0134
     23 H1         -0.9591    1.9053    0.0259 H         1 <0>         0.1275
     24 H2          1.1563    3.1654    0.0076 H         1 <0>         0.1277
     25 H3          3.3051    1.9634   -0.0196 H         1 <0>         0.1236
     26 H4          1.2231   -1.7588   -0.0176 H         1 <0>         0.1241
     27 H5         -0.9258   -0.5567    0.0082 H         1 <0>         0.1279
     28 H6          3.5884   -1.6586   -0.5549 H         1 <0>         0.0737
     29 H7          4.4573   -0.1052   -0.5563 H         1 <0>         0.0733
     30 H8          5.6792   -1.7972   -0.6362 H         1 <0>         0.1404
     31 H9          7.8118   -2.9903   -0.3420 H         1 <0>         0.1351
     32 H10         7.3587   -2.7541    3.9003 H         1 <0>         0.1335
     33 H11         5.2302   -1.5536    3.6061 H         1 <0>         0.1393
     34 H12         9.4453   -2.9006    3.8226 H         1 <0>         0.0847
     35 H13         8.5761   -4.4539    3.8168 H         1 <0>         0.1081
     36 H14        10.9405   -4.8616    4.3031 H         1 <0>         0.1485
     37 H15        10.5594   -5.5043    2.6876 H         1 <0>         0.1400
     38 H16        10.7769   -4.2991    0.8700 H         1 <0>         0.1375
     39 H17        10.8782   -2.5341    1.1525 H         1 <0>         0.1343
     40 H18        12.6767   -3.7169   -0.4843 H         1 <0>         0.1159
     41 H19        13.2445   -2.4844    0.6916 H         1 <0>         0.0967
     42 H20        13.3089   -5.5437    0.9517 H         1 <0>         0.0984
     43 H21        14.6142   -4.3677    1.3148 H         1 <0>         0.1122
     44 H22        13.6912   -3.7968    3.3768 H         1 <0>         0.1323
     45 H23        12.8895   -5.3871    3.2446 H         1 <0>         0.1316
     46 H24        11.7260   -2.8573    3.1919 H         1 <0>         0.4245
@<TRIPOS>BOND
     1    1    6 ar
     2    1    2 ar
     3    1   23 1
     4    2    3 ar
     5    2   24 1
     6    3    4 ar
     7    3   25 1
     8    4    5 ar
     9    4    7 1
    10    5    6 ar
    11    5   26 1
    12    6   27 1
    13    7    8 1
    14    7   28 1
    15    7   29 1
    16    8    9 1
    17    9   14 ar
    18    9   10 ar
    19   10   11 ar
    20   10   30 1
    21   11   12 ar
    22   11   31 1
    23   12   13 ar
    24   12   15 1
    25   13   14 ar
    26   13   32 1
    27   14   33 1
    28   15   16 1
    29   16   17 1
    30   16   34 1
    31   16   35 1
    32   17   18 1
    33   17   36 1
    34   17   37 1
    35   18   22 1
    36   18   19 1
    37   18   46 1
    38   19   20 1
    39   19   38 1
    40   19   39 1
    41   20   21 1
    42   20   40 1
    43   20   41 1
    44   21   22 1
    45   21   42 1
    46   21   43 1
    47   22   44 1
    48   22   45 1
@<TRIPOS>MOLECULE
ZINC04845111
   44    46     0     0     0
SMALL
USER_CHARGES
phenyl-[4-(2-pyrrolidin-1-ylethoxy)phenyl]-methanone
@<TRIPOS>ATOM
      1 C1         -0.7678    2.4634    2.3444 C.ar      1 <0>        -0.0831
      2 C2         -0.9252    1.3432    1.5472 C.ar      1 <0>        -0.1274
      3 C3          0.1268    0.8836    0.7827 C.ar      1 <0>        -0.0582
      4 C4          1.3492    1.5586    0.8052 C.ar      1 <0>        -0.1678
      5 C5          1.4992    2.6920    1.6073 C.ar      1 <0>        -0.0861
      6 C6          0.4406    3.1372    2.3712 C.ar      1 <0>        -0.1319
      7 C7          2.4789    1.0759   -0.0164 C.2       1 <0>         0.4379
      8 O1          2.3926    0.0159   -0.6057 O.2       1 <0>        -0.4390
      9 C8          3.7108    1.8799   -0.1214 C.ar      1 <0>        -0.1746
     10 C9          3.6396    3.2766   -0.1109 C.ar      1 <0>        -0.0421
     11 C10         4.7923    4.0231   -0.2048 C.ar      1 <0>        -0.2128
     12 C11         6.0252    3.3906   -0.3197 C.ar      1 <0>         0.1392
     13 C12         6.1001    2.0023   -0.3360 C.ar      1 <0>        -0.1480
     14 C13         4.9529    1.2479   -0.2377 C.ar      1 <0>        -0.0241
     15 O2          7.1586    4.1304   -0.4169 O.3       1 <0>        -0.3231
     16 C14         7.0097    5.5514   -0.3938 C.3       1 <0>         0.0242
     17 C15         8.3854    6.2103   -0.5133 C.3       1 <0>         0.0089
     18 C16         8.0179    6.2465   -2.9199 C.3       1 <0>        -0.0125
     19 C17         8.9375    6.3653   -4.1611 C.3       1 <0>        -0.1465
     20 C18        10.2146    7.0179   -3.5840 C.3       1 <0>        -0.1469
     21 C19        10.1778    6.7091   -2.0758 C.3       1 <0>        -0.0104
     22 H1         -1.5934    2.8161    2.9448 H         1 <0>         0.1314
     23 H2         -1.8726    0.8251    1.5271 H         1 <0>         0.1339
     24 H3          0.0041    0.0064    0.1647 H         1 <0>         0.1362
     25 H4          2.4417    3.2188    1.6290 H         1 <0>         0.1341
     26 H5          0.5551    4.0136    2.9919 H         1 <0>         0.1308
     27 H6          2.6821    3.7687   -0.0254 H         1 <0>         0.1449
     28 H7          4.7387    5.1017   -0.1926 H         1 <0>         0.1352
     29 H8          7.0598    1.5151   -0.4261 H         1 <0>         0.1414
     30 H9          5.0120    0.1696   -0.2500 H         1 <0>         0.1454
     31 H10         6.3831    5.8647   -1.2287 H         1 <0>         0.0889
     32 H11         6.5428    5.8527    0.5440 H         1 <0>         0.1111
     33 H12         8.2816    7.2901   -0.4066 H         1 <0>         0.1479
     34 H13         9.0402    5.8291    0.2704 H         1 <0>         0.1432
     35 H14         7.2846    5.4522   -3.0590 H         1 <0>         0.1355
     36 H15         7.5237    7.1962   -2.7150 H         1 <0>         0.1339
     37 H16         8.4844    7.0067   -4.9169 H         1 <0>         0.1164
     38 H17         9.1596    5.3805   -4.5722 H         1 <0>         0.0987
     39 H18        10.1972    8.0950   -3.7501 H         1 <0>         0.1037
     40 H19        11.1025    6.5785   -4.0385 H         1 <0>         0.1054
     41 H20        10.1283    7.6380   -1.5076 H         1 <0>         0.1316
     42 H21        11.0647    6.1432   -1.7908 H         1 <0>         0.1343
     43 N1          8.9732    5.9083   -1.8531 N.4       1 <0>        -0.3964
     44 H22         9.2070    4.9096   -1.9007 H         1 <0>         0.4366
@<TRIPOS>BOND
     1    1    6 ar
     2    1    2 ar
     3    1   22 1
     4    2    3 ar
     5    2   23 1
     6    3    4 ar
     7    3   24 1
     8    4    5 ar
     9    4    7 1
    10    5    6 ar
    11    5   25 1
    12    6   26 1
    13    7    8 2
    14    7    9 1
    15    9   14 ar
    16    9   10 ar
    17   10   11 ar
    18   10   27 1
    19   11   12 ar
    20   11   28 1
    21   12   13 ar
    22   12   15 1
    23   13   14 ar
    24   13   29 1
    25   14   30 1
    26   15   16 1
    27   16   17 1
    28   16   31 1
    29   16   32 1
    30   17   33 1
    31   17   34 1
    32   17   43 1
    33   18   19 1
    34   18   35 1
    35   18   36 1
    36   18   43 1
    37   19   20 1
    38   19   37 1
    39   19   38 1
    40   20   21 1
    41   20   39 1
    42   20   40 1
    43   21   41 1
    44   21   42 1
    45   21   43 1
    46   43   44 1
@<TRIPOS>MOLECULE
ZINC20639542
   50    52     0     0     0
SMALL
USER_CHARGES

@<TRIPOS>ATOM
      1 C1          0.8247    1.5631   -0.8656 C.3       1 <0>        -0.0458
      2 N1          0.9928    0.1116   -1.0159 N.4       1 <0>        -0.3880
      3 C2          2.2427   -0.3060   -0.3671 C.3       1 <0>        -0.0019
      4 C3          2.4277   -1.8152   -0.5397 C.3       1 <0>         0.0209
      5 N2          1.2852   -2.5178    0.0613 N.3       1 <0>        -0.5333
      6 C4          0.0240   -2.0914   -0.5614 C.3       1 <0>         0.0266
      7 C5         -0.1412   -0.5799   -0.3886 C.3       1 <0>        -0.0025
      8 C6          1.4533   -3.9741   -0.0341 C.3       1 <0>         0.0563
      9 C7          2.4753   -4.4386    1.0055 C.3       1 <0>         0.0630
     10 O1          1.9638   -4.1964    2.3176 O.3       1 <0>        -0.3031
     11 C8          2.7541   -4.5543    3.3637 C.ar      1 <0>         0.1210
     12 C9          3.9988   -5.1215    3.1320 C.ar      1 <0>        -0.2070
     13 C10         4.8004   -5.4841    4.1970 C.ar      1 <0>        -0.0728
     14 C11         4.3630   -5.2825    5.4931 C.ar      1 <0>        -0.1059
     15 C12         3.1228   -4.7178    5.7267 C.ar      1 <0>        -0.0727
     16 C13         2.3199   -4.3478    4.6651 C.ar      1 <0>        -0.1464
     17 C14         5.2394   -5.6793    6.6530 C.3       1 <0>        -0.0420
     18 C15         6.1203   -4.5185    7.0373 C.ar      1 <0>        -0.0778
     19 C16         7.3601   -4.3661    6.4451 C.ar      1 <0>        -0.1160
     20 C17         8.1681   -3.3013    6.7975 C.ar      1 <0>        -0.1180
     21 C18         7.7362   -2.3888    7.7418 C.ar      1 <0>        -0.1233
     22 C19         6.4961   -2.5407    8.3333 C.ar      1 <0>        -0.1173
     23 C20         5.6863   -3.6031    7.9777 C.ar      1 <0>        -0.1153
     24 H1          0.7853    1.8166    0.1938 H         1 <0>         0.1233
     25 H2          1.6661    2.0765   -1.3309 H         1 <0>         0.1242
     26 H3         -0.1021    1.8734   -1.3480 H         1 <0>         0.1246
     27 H4          3.0821    0.2176   -0.8247 H         1 <0>         0.1359
     28 H5          2.1992   -0.0644    0.6949 H         1 <0>         0.1382
     29 H6          2.4850   -2.0556   -1.6013 H         1 <0>         0.0618
     30 H7          3.3476   -2.1278   -0.0455 H         1 <0>         0.1214
     31 H8          0.0416   -2.3363   -1.6234 H         1 <0>         0.0607
     32 H9         -0.8098   -2.6054   -0.0831 H         1 <0>         0.1251
     33 H10        -0.1725   -0.3369    0.6735 H         1 <0>         0.1384
     34 H11        -1.0691   -0.2594   -0.8622 H         1 <0>         0.1364
     35 H12         0.4973   -4.4632    0.1525 H         1 <0>         0.1000
     36 H13         1.8061   -4.2345   -1.0320 H         1 <0>         0.0717
     37 H14         2.6626   -5.5049    0.8796 H         1 <0>         0.0742
     38 H15         3.4063   -3.8878    0.8711 H         1 <0>         0.0616
     39 H16         4.3406   -5.2799    2.1198 H         1 <0>         0.1239
     40 H17         5.7695   -5.9257    4.0171 H         1 <0>         0.1248
     41 H18         2.7832   -4.5616    6.7400 H         1 <0>         0.1298
     42 H19         1.3531   -3.9027    4.8480 H         1 <0>         0.1294
     43 H20         4.6147   -5.9579    7.5017 H         1 <0>         0.0842
     44 H21         5.8608   -6.5274    6.3654 H         1 <0>         0.0832
     45 H22         7.6975   -5.0790    5.7074 H         1 <0>         0.1196
     46 H23         9.1370   -3.1826    6.3354 H         1 <0>         0.1219
     47 H24         8.3679   -1.5573    8.0177 H         1 <0>         0.1218
     48 H25         6.1588   -1.8280    9.0713 H         1 <0>         0.1225
     49 H26         4.7158   -3.7198    8.4371 H         1 <0>         0.1207
     50 H27         1.0287   -0.1229   -1.9966 H         1 <0>         0.4220
@<TRIPOS>BOND
     1    1    2 1
     2    1   24 1
     3    1   25 1
     4    1   26 1
     5    2    7 1
     6    2    3 1
     7    2   50 1
     8    3    4 1
     9    3   27 1
    10    3   28 1
    11    4    5 1
    12    4   29 1
    13    4   30 1
    14    5    6 1
    15    5    8 1
    16    6    7 1
    17    6   31 1
    18    6   32 1
    19    7   33 1
    20    7   34 1
    21    8    9 1
    22    8   35 1
    23    8   36 1
    24    9   10 1
    25    9   37 1
    26    9   38 1
    27   10   11 1
    28   11   16 ar
    29   11   12 ar
    30   12   13 ar
    31   12   39 1
    32   13   14 ar
    33   13   40 1
    34   14   15 ar
    35   14   17 1
    36   15   16 ar
    37   15   41 1
    38   16   42 1
    39   17   18 1
    40   17   43 1
    41   17   44 1
    42   18   23 ar
    43   18   19 ar
    44   19   20 ar
    45   19   45 1
    46   20   21 ar
    47   20   46 1
    48   21   22 ar
    49   21   47 1
    50   22   23 ar
    51   22   48 1
    52   23   49 1
@<TRIPOS>MOLECULE
ZINC20639542
   50    52     0     0     0
SMALL
USER_CHARGES

@<TRIPOS>ATOM
      1 C1          1.2742    1.5277   -1.0242 C.3       1 <0>         0.0192
      2 N1          1.3420    0.0613   -1.0781 N.3       1 <0>        -0.5431
      3 C2          2.3878   -0.4510   -0.1815 C.3       1 <0>         0.0253
      4 C3          2.4660   -1.9737   -0.3115 C.3       1 <0>        -0.0077
      5 N2          1.1663   -2.5625    0.0375 N.4       1 <0>        -0.3878
      6 C4          0.1367   -2.0604   -0.8819 C.3       1 <0>        -0.0022
      7 C5          0.0392   -0.5384   -0.7567 C.3       1 <0>         0.0238
      8 C6          1.2470   -4.0253   -0.0699 C.3       1 <0>         0.0008
      9 C7          2.2065   -4.5626    0.9939 C.3       1 <0>         0.0260
     10 O1          1.6838   -4.2795    2.2934 O.3       1 <0>        -0.3299
     11 C8          2.4201   -4.6931    3.3581 C.ar      1 <0>         0.1073
     12 C9          3.6238   -5.3528    3.1563 C.ar      1 <0>        -0.1986
     13 C10         4.3706   -5.7718    4.2403 C.ar      1 <0>        -0.0728
     14 C11         3.9192   -5.5347    5.5255 C.ar      1 <0>        -0.0914
     15 C12         2.7198   -4.8778    5.7293 C.ar      1 <0>        -0.0723
     16 C13         1.9722   -4.4513    4.6487 C.ar      1 <0>        -0.1380
     17 C14         4.7358   -5.9933    6.7062 C.3       1 <0>        -0.0446
     18 C15         5.6921   -4.9010    7.1103 C.ar      1 <0>        -0.0818
     19 C16         6.9534   -4.8436    6.5475 C.ar      1 <0>        -0.1159
     20 C17         7.8307   -3.8417    6.9182 C.ar      1 <0>        -0.1172
     21 C18         7.4465   -2.8969    7.8513 C.ar      1 <0>        -0.1207
     22 C19         6.1849   -2.9538    8.4134 C.ar      1 <0>        -0.1166
     23 C20         5.3061   -3.9532    8.0395 C.ar      1 <0>        -0.1152
     24 H1          0.9829    1.8414   -0.0218 H         1 <0>         0.0398
     25 H2          2.2514    1.9457   -1.2661 H         1 <0>         0.0841
     26 H3          0.5381    1.8842   -1.7447 H         1 <0>         0.0849
     27 H4          3.3478   -0.0129   -0.4548 H         1 <0>         0.1242
     28 H5          2.1464   -0.1858    0.8478 H         1 <0>         0.0610
     29 H6          2.7208   -2.2382   -1.3378 H         1 <0>         0.1399
     30 H7          3.2314   -2.3571    0.3632 H         1 <0>         0.1329
     31 H8          0.4034   -2.3244   -1.9052 H         1 <0>         0.1390
     32 H9         -0.8247   -2.5080   -0.6300 H         1 <0>         0.1372
     33 H10        -0.2409   -0.2745    0.2632 H         1 <0>         0.0611
     34 H11        -0.7144   -0.1640   -1.4495 H         1 <0>         0.1251
     35 H12         0.2574   -4.4560    0.0825 H         1 <0>         0.1432
     36 H13         1.6130   -4.2973   -1.0600 H         1 <0>         0.1507
     37 H14         2.3160   -5.6404    0.8732 H         1 <0>         0.1098
     38 H15         3.1791   -4.0837    0.8811 H         1 <0>         0.0856
     39 H16         3.9765   -5.5389    2.1526 H         1 <0>         0.1271
     40 H17         5.3077   -6.2854    4.0837 H         1 <0>         0.1300
     41 H18         2.3691   -4.6941    6.7341 H         1 <0>         0.1348
     42 H19         1.0375   -3.9344    4.8084 H         1 <0>         0.1323
     43 H20         4.0721   -6.2220    7.5400 H         1 <0>         0.0866
     44 H21         5.2983   -6.8864    6.4340 H         1 <0>         0.0858
     45 H22         7.2536   -5.5817    5.8185 H         1 <0>         0.1198
     46 H23         8.8164   -3.7972    6.4790 H         1 <0>         0.1231
     47 H24         8.1322   -2.1145    8.1414 H         1 <0>         0.1232
     48 H25         5.8848   -2.2159    9.1426 H         1 <0>         0.1235
     49 H26         4.3191   -3.9955    8.4759 H         1 <0>         0.1208
     50 H27         0.9252   -2.3079    0.9836 H         1 <0>         0.4277
@<TRIPOS>BOND
     1    1    2 1
     2    1   24 1
     3    1   25 1
     4    1   26 1
     5    2    7 1
     6    2    3 1
     7    3    4 1
     8    3   27 1
     9    3   28 1
    10    4    5 1
    11    4   29 1
    12    4   30 1
    13    5    6 1
    14    5    8 1
    15    5   50 1
    16    6    7 1
    17    6   31 1
    18    6   32 1
    19    7   33 1
    20    7   34 1
    21    8    9 1
    22    8   35 1
    23    8   36 1
    24    9   10 1
    25    9   37 1
    26    9   38 1
    27   10   11 1
    28   11   16 ar
    29   11   12 ar
    30   12   13 ar
    31   12   39 1
    32   13   14 ar
    33   13   40 1
    34   14   15 ar
    35   14   17 1
    36   15   16 ar
    37   15   41 1
    38   16   42 1
    39   17   18 1
    40   17   43 1
    41   17   44 1
    42   18   23 ar
    43   18   19 ar
    44   19   20 ar
    45   19   45 1
    46   20   21 ar
    47   20   46 1
    48   21   22 ar
    49   21   47 1
    50   22   23 ar
    51   22   48 1
    52   23   49 1
@<TRIPOS>MOLECULE
ZINC20639542
   49    51     0     0     0
SMALL
USER_CHARGES

@<TRIPOS>ATOM
      1 C1          0.8092    1.5315   -0.9037 C.3       1 <0>         0.0245
      2 N1          0.9196    0.0699   -1.0011 N.3       1 <0>        -0.5467
      3 C2          2.1835   -0.4028   -0.4192 C.3       1 <0>         0.0564
      4 C3          2.2957   -1.9170   -0.6114 C.3       1 <0>         0.0544
      5 N2          1.1469   -2.5756    0.0260 N.3       1 <0>        -0.5339
      6 C4         -0.1170   -2.1028   -0.5559 C.3       1 <0>         0.0584
      7 C5         -0.2292   -0.5886   -0.3638 C.3       1 <0>         0.0558
      8 C6          1.2572   -4.0372   -0.0715 C.3       1 <0>         0.0553
      9 C7          2.2937   -4.5387    0.9360 C.3       1 <0>         0.0665
     10 O1          1.8336   -4.2765    2.2633 O.3       1 <0>        -0.2979
     11 C8          2.6429   -4.6629    3.2844 C.ar      1 <0>         0.1312
     12 C9          3.8575   -5.2764    3.0144 C.ar      1 <0>        -0.2093
     13 C10         4.6786   -5.6678    4.0541 C.ar      1 <0>        -0.0728
     14 C11         4.2905   -5.4489    5.3630 C.ar      1 <0>        -0.1171
     15 C12         3.0802   -4.8381    5.6348 C.ar      1 <0>        -0.0733
     16 C13         2.2584   -4.4393    4.5985 C.ar      1 <0>        -0.1498
     17 C14         5.1879   -5.8774    6.4953 C.3       1 <0>        -0.0381
     18 C15         6.1233   -4.7500    6.8490 C.ar      1 <0>        -0.0755
     19 C16         7.3484   -4.6445    6.2175 C.ar      1 <0>        -0.1158
     20 C17         8.2065   -3.6104    6.5419 C.ar      1 <0>        -0.1183
     21 C18         7.8393   -2.6816    7.4976 C.ar      1 <0>        -0.1250
     22 C19         6.6138   -2.7866    8.1285 C.ar      1 <0>        -0.1178
     23 C20         5.7539   -3.8182    7.8010 C.ar      1 <0>        -0.1152
     24 H1          0.7766    1.8243    0.1458 H         1 <0>         0.0271
     25 H2          1.6721    1.9938   -1.3832 H         1 <0>         0.0688
     26 H3         -0.1028    1.8611   -1.4013 H         1 <0>         0.0695
     27 H4          3.0193    0.0898   -0.9160 H         1 <0>         0.0797
     28 H5          2.2037   -0.1688    0.6452 H         1 <0>         0.0437
     29 H6          2.3028   -2.1489   -1.6764 H         1 <0>         0.0440
     30 H7          3.2188   -2.2741   -0.1549 H         1 <0>         0.0779
     31 H8         -0.1373   -2.3368   -1.6204 H         1 <0>         0.0431
     32 H9         -0.9529   -2.5954   -0.0591 H         1 <0>         0.0819
     33 H10        -0.2364   -0.3567    0.7013 H         1 <0>         0.0442
     34 H11        -1.1524   -0.2315   -0.8202 H         1 <0>         0.0805
     35 H12         0.2899   -4.4899    0.1466 H         1 <0>         0.0870
     36 H13         1.5679   -4.3117   -1.0795 H         1 <0>         0.0609
     37 H14         2.4370   -5.6114    0.8064 H         1 <0>         0.0657
     38 H15         3.2398   -4.0232    0.7710 H         1 <0>         0.0615
     39 H16         4.1607   -5.4483    1.9921 H         1 <0>         0.1250
     40 H17         5.6242   -6.1455    3.8444 H         1 <0>         0.1219
     41 H18         2.7792   -4.6686    6.6580 H         1 <0>         0.1267
     42 H19         1.3151   -3.9582    4.8112 H         1 <0>         0.1295
     43 H20         4.5806   -6.1317    7.3640 H         1 <0>         0.0816
     44 H21         5.7677   -6.7483    6.1898 H         1 <0>         0.0807
     45 H22         7.6354   -5.3702    5.4708 H         1 <0>         0.1195
     46 H23         9.1640   -3.5284    6.0490 H         1 <0>         0.1210
     47 H24         8.5100   -1.8741    7.7516 H         1 <0>         0.1205
     48 H25         6.3270   -2.0611    8.8754 H         1 <0>         0.1214
     49 H26         4.7949   -3.8981    8.2912 H         1 <0>         0.1205
@<TRIPOS>BOND
     1    1    2 1
     2    1   24 1
     3    1   25 1
     4    1   26 1
     5    2    7 1
     6    2    3 1
     7    3    4 1
     8    3   27 1
     9    3   28 1
    10    4    5 1
    11    4   29 1
    12    4   30 1
    13    5    6 1
    14    5    8 1
    15    6    7 1
    16    6   31 1
    17    6   32 1
    18    7   33 1
    19    7   34 1
    20    8    9 1
    21    8   35 1
    22    8   36 1
    23    9   10 1
    24    9   37 1
    25    9   38 1
    26   10   11 1
    27   11   16 ar
    28   11   12 ar
    29   12   13 ar
    30   12   39 1
    31   13   14 ar
    32   13   40 1
    33   14   15 ar
    34   14   17 1
    35   15   16 ar
    36   15   41 1
    37   16   42 1
    38   17   18 1
    39   17   43 1
    40   17   44 1
    41   18   23 ar
    42   18   19 ar
    43   19   20 ar
    44   19   45 1
    45   20   21 ar
    46   20   46 1
    47   21   22 ar
    48   21   47 1
    49   22   23 ar
    50   22   48 1
    51   23   49 1
@<TRIPOS>MOLECULE
ZINC01700048
   41    42     0     0     0
SMALL
USER_CHARGES
2-(4-benzylphenoxy)-N,N-dimethyl-ethanamine
@<TRIPOS>ATOM
      1 C1          6.1873   -2.3694   -6.9528 C.3       1 <0>        -0.0474
      2 C2          6.1613   -0.6901   -8.6969 C.3       1 <0>        -0.0426
      3 C3          4.1641   -1.1153   -7.3958 C.3       1 <0>         0.0029
      4 C4          3.6390   -1.0321   -5.9611 C.3       1 <0>         0.0244
      5 O1          3.9790    0.2384   -5.4023 O.3       1 <0>        -0.3305
      6 C5          3.5831    0.4761   -4.1242 C.ar      1 <0>         0.1066
      7 C6          3.8796    1.6888   -3.5191 C.ar      1 <0>        -0.1374
      8 C7          3.4765    1.9278   -2.2196 C.ar      1 <0>        -0.0725
      9 C8          2.7777    0.9598   -1.5222 C.ar      1 <0>        -0.0911
     10 C9          2.4859   -0.2518   -2.1210 C.ar      1 <0>        -0.0733
     11 C10         2.8823   -0.4937   -3.4221 C.ar      1 <0>        -0.1983
     12 C11         2.3388    1.2234   -0.1048 C.3       1 <0>        -0.0438
     13 C12         0.9681    1.8497   -0.1117 C.ar      1 <0>        -0.0833
     14 C13        -0.1579    1.0491   -0.0665 C.ar      1 <0>        -0.1158
     15 C14        -1.4152    1.6233   -0.0786 C.ar      1 <0>        -0.1170
     16 C15        -1.5465    2.9987   -0.1247 C.ar      1 <0>        -0.1199
     17 C16        -0.4205    3.7993   -0.1703 C.ar      1 <0>        -0.1163
     18 C17         0.8368    3.2248   -0.1636 C.ar      1 <0>        -0.1150
     19 H1          5.8632   -3.1512   -7.6398 H         1 <0>         0.1256
     20 H2          7.2759   -2.3148   -6.9520 H         1 <0>         0.1250
     21 H3          5.8344   -2.5999   -5.9476 H         1 <0>         0.1188
     22 H4          5.8611    0.3334   -8.9210 H         1 <0>         0.1227
     23 H5          7.2493   -0.7552   -8.6845 H         1 <0>         0.1238
     24 H6          5.7660   -1.3602   -9.4603 H         1 <0>         0.1240
     25 H7          3.8277   -2.0461   -7.8524 H         1 <0>         0.1505
     26 H8          3.7848   -0.2706   -7.9710 H         1 <0>         0.1411
     27 H9          4.0892   -1.8243   -5.3630 H         1 <0>         0.0854
     28 H10         2.5553   -1.1498   -5.9634 H         1 <0>         0.1082
     29 H11         4.4254    2.4452   -4.0635 H         1 <0>         0.1330
     30 H12         3.7070    2.8717   -1.7481 H         1 <0>         0.1351
     31 H13         1.9442   -1.0082   -1.5725 H         1 <0>         0.1299
     32 H14         2.6500   -1.4385   -3.8910 H         1 <0>         0.1268
     33 H15         3.0455    1.9009    0.3744 H         1 <0>         0.0863
     34 H16         2.3060    0.2834    0.4462 H         1 <0>         0.0853
     35 H17        -0.0553   -0.0253   -0.0263 H         1 <0>         0.1195
     36 H18        -2.2950    0.9977   -0.0478 H         1 <0>         0.1233
     37 H19        -2.5288    3.4475   -0.1296 H         1 <0>         0.1235
     38 H20        -0.5231    4.8736   -0.2109 H         1 <0>         0.1238
     39 H21         1.7165    3.8503   -0.1992 H         1 <0>         0.1207
     40 N1          5.6407   -1.0590   -7.3636 N.4       1 <0>        -0.4005
     41 H22         5.9326   -0.3477   -6.6831 H         1 <0>         0.4382
@<TRIPOS>BOND
     1    1   19 1
     2    1   20 1
     3    1   21 1
     4    1   40 1
     5    2   22 1
     6    2   23 1
     7    2   24 1
     8    2   40 1
     9    3    4 1
    10    3   25 1
    11    3   26 1
    12    3   40 1
    13    4    5 1
    14    4   27 1
    15    4   28 1
    16    5    6 1
    17    6   11 ar
    18    6    7 ar
    19    7    8 ar
    20    7   29 1
    21    8    9 ar
    22    8   30 1
    23    9   10 ar
    24    9   12 1
    25   10   11 ar
    26   10   31 1
    27   11   32 1
    28   12   13 1
    29   12   33 1
    30   12   34 1
    31   13   18 ar
    32   13   14 ar
    33   14   15 ar
    34   14   35 1
    35   15   16 ar
    36   15   36 1
    37   16   17 ar
    38   16   37 1
    39   17   18 ar
    40   17   38 1
    41   18   39 1
    42   40   41 1
@<TRIPOS>MOLECULE
ZINC13805319
   35    36     0     0     0
SMALL
USER_CHARGES
2-(4-benzylphenoxy)ethanamine
@<TRIPOS>ATOM
      1 C1         -1.2377    3.1328    0.0303 C.ar      1 <0>        -0.1198
      2 C2         -1.2190    1.7507    0.0173 C.ar      1 <0>        -0.1169
      3 C3         -0.0126    1.0758    0.0080 C.ar      1 <0>        -0.1158
      4 C4          1.1750    1.7832    0.0004 C.ar      1 <0>        -0.0835
      5 C5          1.1563    3.1654    0.0076 C.ar      1 <0>        -0.1151
      6 C6         -0.0501    3.8402    0.0223 C.ar      1 <0>        -0.1162
      7 C7          2.4902    1.0476   -0.0161 C.3       1 <0>        -0.0441
      8 C8          2.9150    0.8100   -1.4424 C.ar      1 <0>        -0.0904
      9 C9          2.5293   -0.3470   -2.0938 C.ar      1 <0>        -0.0736
     10 C10         2.9127   -0.5645   -3.4030 C.ar      1 <0>        -0.1983
     11 C11         3.6944    0.3742   -4.0607 C.ar      1 <0>         0.1054
     12 C12         4.0847    1.5317   -3.4031 C.ar      1 <0>        -0.1372
     13 C13         3.6944    1.7469   -2.0955 C.ar      1 <0>        -0.0727
     14 O1          4.0774    0.1600   -5.3469 O.3       1 <0>        -0.3305
     15 C14         3.6387   -1.0535   -5.9609 C.3       1 <0>         0.0211
     16 C15         4.1641   -1.1176   -7.3965 C.3       1 <0>         0.0070
     17 H1         -2.1802    3.6600    0.0422 H         1 <0>         0.1236
     18 H2         -2.1469    1.1980    0.0188 H         1 <0>         0.1234
     19 H3          0.0021   -0.0041    0.0020 H         1 <0>         0.1196
     20 H4          2.0841    3.7181    0.0014 H         1 <0>         0.1208
     21 H5         -0.0647    4.9201    0.0280 H         1 <0>         0.1239
     22 H6          3.2466    1.6441    0.4937 H         1 <0>         0.0865
     23 H7          2.3777    0.0907    0.4936 H         1 <0>         0.0855
     24 H8          1.9245   -1.0795   -1.5799 H         1 <0>         0.1301
     25 H9          2.6072   -1.4662   -3.9130 H         1 <0>         0.1270
     26 H10         4.6935    2.2637   -3.9128 H         1 <0>         0.1331
     27 H11         3.9980    2.6478   -1.5831 H         1 <0>         0.1353
     28 H12         4.0193   -1.9047   -5.3964 H         1 <0>         0.0870
     29 H13         2.5491   -1.0823   -5.9712 H         1 <0>         0.1087
     30 H14         3.7573   -1.9984   -7.8933 H         1 <0>         0.1516
     31 H15         3.8571   -0.2218   -7.9361 H         1 <0>         0.1459
     32 H16         6.0023   -1.2431   -8.3150 H         1 <0>         0.4423
     33 H17         6.0296   -0.4269   -6.8662 H         1 <0>         0.4439
     34 N1          5.6337   -1.2215   -7.3656 N.4       1 <0>        -0.6470
     35 H18         5.9007   -2.0875   -6.8828 H         1 <0>         0.4393
@<TRIPOS>BOND
     1    1    6 ar
     2    1    2 ar
     3    1   17 1
     4    2    3 ar
     5    2   18 1
     6    3    4 ar
     7    3   19 1
     8    4    5 ar
     9    4    7 1
    10    5    6 ar
    11    5   20 1
    12    6   21 1
    13    7    8 1
    14    7   22 1
    15    7   23 1
    16    8   13 ar
    17    8    9 ar
    18    9   10 ar
    19    9   24 1
    20   10   11 ar
    21   10   25 1
    22   11   12 ar
    23   11   14 1
    24   12   13 ar
    25   12   26 1
    26   13   27 1
    27   14   15 1
    28   15   16 1
    29   15   28 1
    30   15   29 1
    31   16   30 1
    32   16   31 1
    33   16   34 1
    34   32   34 1
    35   33   34 1
    36   34   35 1
@<TRIPOS>MOLECULE
ZINC00002139
   47    48     0     0     0
SMALL
USER_CHARGES

@<TRIPOS>ATOM
      1 C1         -0.2640    1.4459    0.0391 C.3       1 <0>        -0.1869
      2 C2         -0.0334   -0.0661   -0.0010 C.3       1 <0>        -0.0177
      3 N1          0.8227   -0.4609    1.1256 N.4       1 <0>        -0.3875
      4 C3          0.1113   -0.2220    2.3885 C.3       1 <0>        -0.0149
      5 C4          1.0526   -0.4946    3.5635 C.3       1 <0>        -0.1886
      6 C5          1.1539   -1.8876    1.0125 C.3       1 <0>        -0.0052
      7 C6          2.0022   -2.1165   -0.2401 C.3       1 <0>         0.0263
      8 O1          3.2566   -1.4476   -0.0947 O.3       1 <0>        -0.3283
      9 C7          4.1344   -1.5513   -1.1270 C.ar      1 <0>         0.1075
     10 C8          3.7931   -2.2771   -2.2590 C.ar      1 <0>        -0.1992
     11 C9          4.6870   -2.3806   -3.3072 C.ar      1 <0>        -0.0729
     12 C10         5.9211   -1.7620   -3.2285 C.ar      1 <0>        -0.0917
     13 C11         6.2638   -1.0385   -2.1012 C.ar      1 <0>        -0.0722
     14 C12         5.3710   -0.9268   -1.0529 C.ar      1 <0>        -0.1378
     15 C13         6.8945   -1.8770   -4.3732 C.3       1 <0>        -0.0446
     16 C14         6.6689   -0.7435   -5.3403 C.ar      1 <0>        -0.0817
     17 C15         5.7735   -0.8923   -6.3829 C.ar      1 <0>        -0.1160
     18 C16         5.5666    0.1474   -7.2700 C.ar      1 <0>        -0.1173
     19 C17         6.2546    1.3362   -7.1142 C.ar      1 <0>        -0.1207
     20 C18         7.1492    1.4854   -6.0710 C.ar      1 <0>        -0.1165
     21 C19         7.3530    0.4471   -5.1814 C.ar      1 <0>        -0.1151
     22 H1          0.6968    1.9590    0.0785 H         1 <0>         0.0802
     23 H2         -0.8045    1.7548   -0.8556 H         1 <0>         0.1065
     24 H3         -0.8486    1.7009    0.9230 H         1 <0>         0.0819
     25 H4         -0.9909   -0.5818    0.0722 H         1 <0>         0.1314
     26 H5          0.4532   -0.3347   -0.9386 H         1 <0>         0.1279
     27 H6         -0.2254    0.8140    2.4254 H         1 <0>         0.1331
     28 H7         -0.7503   -0.8866    2.4514 H         1 <0>         0.1301
     29 H8          0.5619   -0.2124    4.4950 H         1 <0>         0.1066
     30 H9          1.3017   -1.5554    3.5909 H         1 <0>         0.0804
     31 H10         1.9645    0.0898    3.4417 H         1 <0>         0.0809
     32 H11         1.7144   -2.2015    1.8931 H         1 <0>         0.1438
     33 H12         0.2350   -2.4693    0.9403 H         1 <0>         0.1490
     34 H13         2.1733   -3.1847   -0.3728 H         1 <0>         0.1085
     35 H14         1.4785   -1.7215   -1.1107 H         1 <0>         0.0854
     36 H15         2.8296   -2.7610   -2.3206 H         1 <0>         0.1266
     37 H16         4.4219   -2.9455   -4.1886 H         1 <0>         0.1297
     38 H17         7.2284   -0.5565   -2.0420 H         1 <0>         0.1349
     39 H18         5.6373   -0.3578   -0.1744 H         1 <0>         0.1327
     40 H19         7.9137   -1.8299   -3.9896 H         1 <0>         0.0866
     41 H20         6.7426   -2.8272   -4.8853 H         1 <0>         0.0857
     42 H21         5.2360   -1.8211   -6.5046 H         1 <0>         0.1197
     43 H22         4.8676    0.0309   -8.0850 H         1 <0>         0.1230
     44 H23         6.0934    2.1483   -7.8077 H         1 <0>         0.1232
     45 H24         7.6870    2.4141   -5.9495 H         1 <0>         0.1236
     46 H25         8.0492    0.5650   -4.3642 H         1 <0>         0.1209
     47 H26         1.6719    0.0838    1.1097 H         1 <0>         0.4291
@<TRIPOS>BOND
     1    1    2 1
     2    1   22 1
     3    1   23 1
     4    1   24 1
     5    2    3 1
     6    2   25 1
     7    2   26 1
     8    3    4 1
     9    3    6 1
    10    3   47 1
    11    4    5 1
    12    4   27 1
    13    4   28 1
    14    5   29 1
    15    5   30 1
    16    5   31 1
    17    6    7 1
    18    6   32 1
    19    6   33 1
    20    7    8 1
    21    7   34 1
    22    7   35 1
    23    8    9 1
    24    9   14 ar
    25    9   10 ar
    26   10   11 ar
    27   10   36 1
    28   11   12 ar
    29   11   37 1
    30   12   13 ar
    31   12   15 1
    32   13   14 ar
    33   13   38 1
    34   14   39 1
    35   15   16 1
    36   15   40 1
    37   15   41 1
    38   16   21 ar
    39   16   17 ar
    40   17   18 ar
    41   17   42 1
    42   18   19 ar
    43   18   43 1
    44   19   20 ar
    45   19   44 1
    46   20   21 ar
    47   20   45 1
    48   21   46 1
@<TRIPOS>MOLECULE
ZINC04810590
   39    41     0     0     0
SMALL
USER_CHARGES

@<TRIPOS>ATOM
      1 C1         -0.0167    1.3781    0.0096 C.ar      1 <0>        -0.1240
      2 C2          1.1709    2.0855    0.0021 C.ar      1 <0>        -0.1177
      3 C3          2.3773    1.4107   -0.0130 C.ar      1 <0>        -0.1152
      4 C4          2.3960    0.0285   -0.0201 C.ar      1 <0>        -0.0773
      5 C5          1.2084   -0.6789   -0.0117 C.ar      1 <0>        -0.1157
      6 C6          0.0021   -0.0041    0.0020 C.ar      1 <0>        -0.1179
      7 C7          3.7112   -0.7071   -0.0376 C.3       1 <0>        -0.0394
      8 C8          4.1644   -0.9594    1.3773 C.ar      1 <0>        -0.1095
      9 C9          4.9522   -0.0267    2.0264 C.ar      1 <0>        -0.0734
     10 C10         5.3694   -0.2559    3.3232 C.ar      1 <0>        -0.1450
     11 C11         4.9969   -1.4228    3.9745 C.ar      1 <0>         0.1248
     12 C12         4.2060   -2.3568    3.3213 C.ar      1 <0>        -0.2033
     13 C13         3.7871   -2.1206    2.0262 C.ar      1 <0>        -0.0727
     14 O1          5.4064   -1.6507    5.2502 O.3       1 <0>        -0.3125
     15 C14         4.9849   -2.8733    5.8582 C.3       1 <0>         0.0465
     16 C15         5.5391   -2.9523    7.2821 C.3       1 <0>         0.1089
     17 N1          5.1069   -4.2057    7.9054 N.pl3     1 <0>        -0.4601
     18 C16         3.9599   -4.4011    8.6263 C.2       1 <0>        -0.0568
     19 C17         3.9569   -5.6914    9.0117 C.2       1 <0>        -0.0253
     20 N2          5.0718   -6.2682    8.5391 N.2       1 <0>        -0.4916
     21 C18         5.7630   -5.3856    7.8711 C.2       1 <0>         0.1844
     22 H1         -0.9591    1.9053    0.0259 H         1 <0>         0.1211
     23 H2          1.1563    3.1654    0.0076 H         1 <0>         0.1219
     24 H3          3.3051    1.9634   -0.0196 H         1 <0>         0.1208
     25 H4          1.2231   -1.7588   -0.0176 H         1 <0>         0.1198
     26 H5         -0.9258   -0.5567    0.0082 H         1 <0>         0.1216
     27 H6          3.5884   -1.6586   -0.5549 H         1 <0>         0.0822
     28 H7          4.4573   -0.1052   -0.5563 H         1 <0>         0.0833
     29 H8          5.2420    0.8815    1.5189 H         1 <0>         0.1301
     30 H9          5.9853    0.4726    3.8295 H         1 <0>         0.1323
     31 H10         3.9147   -3.2660    3.8262 H         1 <0>         0.1262
     32 H11         3.1678   -2.8454    1.5188 H         1 <0>         0.1249
     33 H12         3.8958   -2.9068    5.8898 H         1 <0>         0.0701
     34 H13         5.3576   -3.7160    5.2759 H         1 <0>         0.0711
     35 H14         6.6281   -2.9189    7.2505 H         1 <0>         0.1080
     36 H15         5.1664   -2.1096    7.8643 H         1 <0>         0.1053
     37 H16         3.2029   -3.6623    8.8444 H         1 <0>         0.1759
     38 H17         3.1911   -6.1767    9.5986 H         1 <0>         0.1720
     39 H18         6.7050   -5.5679    7.3753 H         1 <0>         0.2062
@<TRIPOS>BOND
     1    1    6 ar
     2    1    2 ar
     3    1   22 1
     4    2    3 ar
     5    2   23 1
     6    3    4 ar
     7    3   24 1
     8    4    5 ar
     9    4    7 1
    10    5    6 ar
    11    5   25 1
    12    6   26 1
    13    7    8 1
    14    7   27 1
    15    7   28 1
    16    8   13 ar
    17    8    9 ar
    18    9   10 ar
    19    9   29 1
    20   10   11 ar
    21   10   30 1
    22   11   12 ar
    23   11   14 1
    24   12   13 ar
    25   12   31 1
    26   13   32 1
    27   14   15 1
    28   15   16 1
    29   15   33 1
    30   15   34 1
    31   16   17 1
    32   16   35 1
    33   16   36 1
    34   17   21 1
    35   17   18 1
    36   18   19 2
    37   18   37 1
    38   19   20 1
    39   19   38 1
    40   20   21 2
    41   21   39 1
@<TRIPOS>MOLECULE
ZINC04810590
   40    42     0     0     0
SMALL
USER_CHARGES

@<TRIPOS>ATOM
      1 C1         -0.0167    1.3781    0.0096 C.ar      1 <0>        -0.1210
      2 C2          1.1709    2.0855    0.0021 C.ar      1 <0>        -0.1161
      3 C3          2.3773    1.4107   -0.0130 C.ar      1 <0>        -0.1147
      4 C4          2.3960    0.0285   -0.0201 C.ar      1 <0>        -0.0815
      5 C5          1.2084   -0.6789   -0.0117 C.ar      1 <0>        -0.1164
      6 C6          0.0021   -0.0041    0.0020 C.ar      1 <0>        -0.1177
      7 C7          3.7112   -0.7071   -0.0376 C.3       1 <0>        -0.0427
      8 C8          4.1644   -0.9594    1.3773 C.ar      1 <0>        -0.0965
      9 C9          4.9522   -0.0267    2.0264 C.ar      1 <0>        -0.0710
     10 C10         5.3694   -0.2559    3.3232 C.ar      1 <0>        -0.1371
     11 C11         4.9969   -1.4228    3.9745 C.ar      1 <0>         0.1130
     12 C12         4.2060   -2.3568    3.3213 C.ar      1 <0>        -0.2022
     13 C13         3.7871   -2.1206    2.0262 C.ar      1 <0>        -0.0741
     14 O1          5.4064   -1.6507    5.2502 O.3       1 <0>        -0.3078
     15 C14         4.9849   -2.8733    5.8582 C.3       1 <0>         0.0423
     16 C15         5.5391   -2.9523    7.2821 C.3       1 <0>         0.0951
     17 N1          5.1069   -4.2057    7.9054 N.pl3     1 <0>        -0.4084
     18 C16         3.9596   -4.4012    8.6259 C.2       1 <0>         0.0267
     19 C17         3.9568   -5.6915    9.0115 C.2       1 <0>         0.0066
     20 N2          5.0719   -6.2682    8.5393 N.pl3     1 <0>        -0.4743
     21 C18         5.7632   -5.3855    7.8715 C.cat     1 <0>         0.2928
     22 H1         -0.9591    1.9053    0.0259 H         1 <0>         0.1230
     23 H2          1.1563    3.1654    0.0076 H         1 <0>         0.1237
     24 H3          3.3051    1.9634   -0.0196 H         1 <0>         0.1213
     25 H4          1.2231   -1.7588   -0.0176 H         1 <0>         0.1189
     26 H5         -0.9258   -0.5567    0.0082 H         1 <0>         0.1224
     27 H6          3.5884   -1.6586   -0.5549 H         1 <0>         0.0842
     28 H7          4.4573   -0.1052   -0.5563 H         1 <0>         0.0862
     29 H8          5.2420    0.8815    1.5189 H         1 <0>         0.1349
     30 H9          5.9853    0.4726    3.8295 H         1 <0>         0.1351
     31 H10         3.9147   -3.2660    3.8262 H         1 <0>         0.1223
     32 H11         3.1678   -2.8454    1.5188 H         1 <0>         0.1275
     33 H12         3.8958   -2.9068    5.8898 H         1 <0>         0.0773
     34 H13         5.3576   -3.7160    5.2759 H         1 <0>         0.0753
     35 H14         6.6281   -2.9189    7.2505 H         1 <0>         0.1349
     36 H15         5.1664   -2.1096    7.8643 H         1 <0>         0.1374
     37 H16         3.2024   -3.6625    8.8436 H         1 <0>         0.2251
     38 H17         3.1908   -6.1769    9.5981 H         1 <0>         0.2262
     39 H18         6.7054   -5.5676    7.3760 H         1 <0>         0.2623
     40 H19         5.3230   -7.1959    8.6704 H         1 <0>         0.4670
@<TRIPOS>BOND
     1    1    6 ar
     2    1    2 ar
     3    1   22 1
     4    2    3 ar
     5    2   23 1
     6    3    4 ar
     7    3   24 1
     8    4    5 ar
     9    4    7 1
    10    5    6 ar
    11    5   25 1
    12    6   26 1
    13    7    8 1
    14    7   27 1
    15    7   28 1
    16    8   13 ar
    17    8    9 ar
    18    9   10 ar
    19    9   29 1
    20   10   11 ar
    21   10   30 1
    22   11   12 ar
    23   11   14 1
    24   12   13 ar
    25   12   31 1
    26   13   32 1
    27   14   15 1
    28   15   16 1
    29   15   33 1
    30   15   34 1
    31   16   17 1
    32   16   35 1
    33   16   36 1
    34   17   21 1
    35   17   18 1
    36   18   19 2
    37   18   37 1
    38   19   20 1
    39   19   38 1
    40   20   21 2
    41   20   40 1
    42   21   39 1
@<TRIPOS>MOLECULE
ZINC01542895
   46    46     0     0     0
SMALL
USER_CHARGES

@<TRIPOS>ATOM
      1 C1         -1.4921   -0.2802   -0.1168 C.3       1 <0>        -0.1480
      2 C2          0.0168   -0.0902    0.0502 C.3       1 <0>        -0.0946
      3 C3          0.4965   -0.8703    1.2758 C.3       1 <0>        -0.1503
      4 C4          0.7370   -0.6066   -1.1970 C.3       1 <0>        -0.1084
      5 C5          2.2304   -0.2918   -1.0907 C.3       1 <0>         0.0678
      6 H1          2.6270   -0.7186   -0.1695 H         1 <0>         0.0947
      7 C6          2.9543   -0.8853   -2.2717 C.2       1 <0>         0.4976
      8 O1          3.4188   -0.1561   -3.1314 O.co2     1 <0>        -0.7136
      9 O2          3.0754   -2.0947   -2.3676 O.co2     1 <0>        -0.6706
     10 N1          2.4237    1.1604   -1.0789 N.am      1 <0>        -0.6768
     11 C7          3.5233    1.6892   -0.5064 C.2       1 <0>         0.4501
     12 O3          4.3528    0.9629   -0.0011 O.2       1 <0>        -0.5167
     13 C8          3.7222    3.1829   -0.4943 C.3       1 <0>         0.0771
     14 H2          2.8536    3.6614   -0.0419 H         1 <0>         0.1637
     15 C9          3.8924    3.6865   -1.9290 C.3       1 <0>         0.0050
     16 H3          2.9682    3.5231   -2.4834 H         1 <0>         0.1563
     17 C10         4.2180    5.1813   -1.9096 C.3       1 <0>        -0.0899
     18 C11         4.2645    5.7037   -3.3224 C.ar      1 <0>        -0.1239
     19 C12         5.4532    5.6842   -4.0277 C.ar      1 <0>        -0.1395
     20 C13         5.4959    6.1633   -5.3236 C.ar      1 <0>        -0.1080
     21 C14         4.3497    6.6615   -5.9144 C.ar      1 <0>        -0.1065
     22 C15         3.1608    6.6802   -5.2094 C.ar      1 <0>        -0.1069
     23 C16         3.1172    6.1971   -3.9150 C.ar      1 <0>        -0.1039
     24 N2          4.9886    2.9549   -2.5779 N.4       1 <0>        -0.6381
     25 O4          4.8906    3.5018    0.2642 O.3       1 <0>        -0.5140
     26 H4         -1.8485    0.3439   -0.9363 H         1 <0>         0.0522
     27 H5         -1.7043   -1.3262   -0.3379 H         1 <0>         0.0571
     28 H6         -1.9986    0.0063    0.8049 H         1 <0>         0.0532
     29 H7          0.2370    0.9689    0.1845 H         1 <0>         0.0619
     30 H8          0.2764   -1.9293    1.1415 H         1 <0>         0.0580
     31 H9          1.5715   -0.7349    1.3948 H         1 <0>         0.0554
     32 H10        -0.0165   -0.5023    2.1644 H         1 <0>         0.0512
     33 H11         0.5977   -1.6848   -1.2767 H         1 <0>         0.0865
     34 H12         0.3253   -0.1207   -2.0817 H         1 <0>         0.0633
     35 H13         1.7603    1.7412   -1.4830 H         1 <0>         0.3944
     36 H14         3.4484    5.7136   -1.3505 H         1 <0>         0.1229
     37 H15         5.1859    5.3362   -1.4329 H         1 <0>         0.1051
     38 H16         6.3487    5.2949   -3.5661 H         1 <0>         0.1226
     39 H17         6.4247    6.1488   -5.8744 H         1 <0>         0.1304
     40 H18         4.3832    7.0365   -6.9267 H         1 <0>         0.1298
     41 H19         2.2654    7.0697   -5.6709 H         1 <0>         0.1308
     42 H20         2.1875    6.2082   -3.3654 H         1 <0>         0.1303
     43 H21         4.7738    1.9691   -2.5907 H         1 <0>         0.4538
     44 H22         5.1008    3.2870   -3.5240 H         1 <0>         0.4364
     45 H23         5.7035    3.1085   -0.0817 H         1 <0>         0.3783
     46 H24         5.8440    3.1062   -2.0647 H         1 <0>         0.4236
@<TRIPOS>BOND
     1    1    2 1
     2    1   26 1
     3    1   27 1
     4    1   28 1
     5    2    3 1
     6    2    4 1
     7    2   29 1
     8    3   30 1
     9    3   31 1
    10    3   32 1
    11    4    5 1
    12    4   33 1
    13    4   34 1
    14    5    6 1
    15    5    7 1
    16    5   10 1
    17    7    8 2
    18    7    9 1
    19   10   11 am
    20   10   35 1
    21   11   12 2
    22   11   13 1
    23   13   14 1
    24   13   15 1
    25   13   25 1
    26   15   16 1
    27   15   17 1
    28   15   24 1
    29   17   18 1
    30   17   36 1
    31   17   37 1
    32   18   23 ar
    33   18   19 ar
    34   19   20 ar
    35   19   38 1
    36   20   21 ar
    37   20   39 1
    38   21   22 ar
    39   21   40 1
    40   22   23 ar
    41   22   41 1
    42   23   42 1
    43   24   43 1
    44   24   44 1
    45   24   46 1
    46   25   45 1
@<TRIPOS>MOLECULE
ZINC01542895
   45    45     0     0     0
SMALL
USER_CHARGES

@<TRIPOS>ATOM
      1 C1          0.6528   -0.2592    1.3564 C.3       1 <0>        -0.1445
      2 C2          0.0386   -0.0894   -0.0345 C.3       1 <0>        -0.0966
      3 C3          0.8796   -0.8522   -1.0600 C.3       1 <0>        -0.1471
      4 C4         -1.3882   -0.6419   -0.0329 C.3       1 <0>        -0.1047
      5 C5         -2.0504   -0.3483   -1.3805 C.3       1 <0>         0.0724
      6 H1         -1.4402   -0.7627   -2.1831 H         1 <0>         0.0844
      7 C6         -3.4197   -0.9765   -1.4149 C.2       1 <0>         0.4903
      8 O1         -4.4145   -0.2719   -1.3899 O.co2     1 <0>        -0.6843
      9 O2         -3.5329   -2.1893   -1.4677 O.co2     1 <0>        -0.6968
     10 N1         -2.1732    1.1006   -1.5589 N.am      1 <0>        -0.6848
     11 C7         -2.2403    1.6236   -2.7993 C.2       1 <0>         0.4808
     12 O3         -2.1991    0.8947   -3.7678 O.2       1 <0>        -0.5425
     13 C8         -2.3666    3.1140   -2.9828 C.3       1 <0>         0.0531
     14 H2         -1.5529    3.6150   -2.4584 H         1 <0>         0.1189
     15 C9         -3.7065    3.5861   -2.4146 C.3       1 <0>         0.0778
     16 H3         -3.7206    3.4261   -1.3365 H         1 <0>         0.0933
     17 C10        -3.8900    5.0758   -2.7116 C.3       1 <0>        -0.0675
     18 C11        -5.1496    5.5690   -2.0473 C.ar      1 <0>        -0.0627
     19 C12        -6.3538    5.5169   -2.7241 C.ar      1 <0>        -0.0897
     20 C13        -7.5092    5.9693   -2.1148 C.ar      1 <0>        -0.1228
     21 C14        -7.4604    6.4734   -0.8286 C.ar      1 <0>        -0.1293
     22 C15        -6.2564    6.5247   -0.1515 C.ar      1 <0>        -0.1239
     23 C16        -5.1017    6.0683   -0.7592 C.ar      1 <0>        -0.1216
     24 N2         -4.7978    2.8247   -3.0370 N.3       1 <0>        -0.8349
     25 O4         -2.3018    3.4298   -4.3750 O.3       1 <0>        -0.5371
     26 H4          1.6967    0.0535    1.3333 H         1 <0>         0.0492
     27 H5          0.1057    0.3539    2.0726 H         1 <0>         0.0514
     28 H6          0.5937   -1.3060    1.6544 H         1 <0>         0.0539
     29 H7          0.0183    0.9685   -0.2960 H         1 <0>         0.0646
     30 H8          0.8999   -1.9102   -0.7985 H         1 <0>         0.0544
     31 H9          0.4420   -0.7313   -2.0510 H         1 <0>         0.0576
     32 H10         1.8961   -0.4587   -1.0612 H         1 <0>         0.0469
     33 H11        -1.3606   -1.7191    0.1314 H         1 <0>         0.0795
     34 H12        -1.9606   -0.1674    0.7642 H         1 <0>         0.0604
     35 H13        -2.2061    1.6836   -0.7844 H         1 <0>         0.3898
     36 H14        -3.0347    5.6310   -2.3264 H         1 <0>         0.0744
     37 H15        -3.9648    5.2250   -3.7887 H         1 <0>         0.0776
     38 H16        -6.3919    5.1230   -3.7290 H         1 <0>         0.1198
     39 H17        -8.4499    5.9293   -2.6438 H         1 <0>         0.1166
     40 H18        -8.3630    6.8275   -0.3528 H         1 <0>         0.1149
     41 H19        -6.2182    6.9188    0.8533 H         1 <0>         0.1159
     42 H20        -4.1616    6.1049   -0.2288 H         1 <0>         0.1168
     43 H21        -4.8061    2.9566   -4.0373 H         1 <0>         0.3280
     44 H22        -2.9976    3.0171   -4.9047 H         1 <0>         0.3769
     45 H23        -4.7354    1.8455   -2.8019 H         1 <0>         0.3711
@<TRIPOS>BOND
     1    1    2 1
     2    1   26 1
     3    1   27 1
     4    1   28 1
     5    2    3 1
     6    2    4 1
     7    2   29 1
     8    3   30 1
     9    3   31 1
    10    3   32 1
    11    4    5 1
    12    4   33 1
    13    4   34 1
    14    5    6 1
    15    5    7 1
    16    5   10 1
    17    7    8 2
    18    7    9 1
    19   10   11 am
    20   10   35 1
    21   11   12 2
    22   11   13 1
    23   13   14 1
    24   13   15 1
    25   13   25 1
    26   15   16 1
    27   15   17 1
    28   15   24 1
    29   17   18 1
    30   17   36 1
    31   17   37 1
    32   18   23 ar
    33   18   19 ar
    34   19   20 ar
    35   19   38 1
    36   20   21 ar
    37   20   39 1
    38   21   22 ar
    39   21   40 1
    40   22   23 ar
    41   22   41 1
    42   23   42 1
    43   24   43 1
    44   24   45 1
    45   25   44 1
@<TRIPOS>MOLECULE
ZINC20653201
   45    47     0     0     0
SMALL
USER_CHARGES

@<TRIPOS>ATOM
      1 C1          0.4246    1.6580   -0.1405 C.ar      1 <0>        -0.1248
      2 C2          1.6708    2.2560   -0.1590 C.ar      1 <0>        -0.1176
      3 C3          2.8120    1.4759   -0.1480 C.ar      1 <0>        -0.1152
      4 C4          2.7069    0.0978   -0.1180 C.ar      1 <0>        -0.0757
      5 C5          1.4607   -0.5001   -0.0986 C.ar      1 <0>        -0.1159
      6 C6          0.3196    0.2800   -0.1111 C.ar      1 <0>        -0.1182
      7 C7          3.9509   -0.7526   -0.1070 C.3       1 <0>        -0.0382
      8 C8          4.3737   -1.0059    1.3171 C.ar      1 <0>        -0.1165
      9 C9          5.2391   -0.1300    1.9463 C.ar      1 <0>        -0.0731
     10 C10         5.6285   -0.3602    3.2516 C.ar      1 <0>        -0.1492
     11 C11         5.1502   -1.4710    3.9313 C.ar      1 <0>         0.1304
     12 C12         4.2817   -2.3480    3.2979 C.ar      1 <0>        -0.2093
     13 C13         3.8912   -2.1106    1.9943 C.ar      1 <0>        -0.0728
     14 O1          5.5322   -1.6998    5.2153 O.3       1 <0>        -0.2984
     15 C14         5.0003   -2.8628    5.8529 C.3       1 <0>         0.0666
     16 C15         5.5391   -2.9523    7.2821 C.3       1 <0>         0.0545
     17 N1          5.0368   -1.8166    8.0668 N.3       1 <0>        -0.5308
     18 C16         5.8611   -1.5980    9.2643 C.3       1 <0>         0.0186
     19 C17         5.3401   -0.3721   10.0190 C.3       1 <0>         0.0628
     20 O2          3.9601   -0.5670   10.3398 O.3       1 <0>        -0.3852
     21 C18         3.1281   -0.7821    9.1966 C.3       1 <0>         0.0637
     22 C19         3.6267   -2.0122    8.4336 C.3       1 <0>         0.0141
     23 H1         -0.4669    2.2676   -0.1446 H         1 <0>         0.1206
     24 H2          1.7529    3.3326   -0.1824 H         1 <0>         0.1216
     25 H3          3.7856    1.9430   -0.1631 H         1 <0>         0.1206
     26 H4          1.3786   -1.5767   -0.0756 H         1 <0>         0.1194
     27 H5         -0.6541   -0.1872   -0.0963 H         1 <0>         0.1210
     28 H6          3.7457   -1.7031   -0.5996 H         1 <0>         0.0808
     29 H7          4.7502   -0.2341   -0.6366 H         1 <0>         0.0818
     30 H8          5.6111    0.7346    1.4167 H         1 <0>         0.1271
     31 H9          6.3050    0.3238    3.7423 H         1 <0>         0.1300
     32 H10         3.9080   -3.2135    3.8250 H         1 <0>         0.1247
     33 H11         3.2116   -2.7906    1.5022 H         1 <0>         0.1220
     34 H12         3.9125   -2.7980    5.8780 H         1 <0>         0.0618
     35 H13         5.2985   -3.7510    5.2959 H         1 <0>         0.0667
     36 H14         5.2061   -3.8847    7.7382 H         1 <0>         0.0613
     37 H15         6.6286   -2.9265    7.2619 H         1 <0>         0.0885
     38 H16         5.8043   -2.4742    9.9101 H         1 <0>         0.0436
     39 H17         6.8964   -1.4300    8.9678 H         1 <0>         0.0887
     40 H18         5.9121   -0.2399   10.9374 H         1 <0>         0.0995
     41 H19         5.4466    0.5134    9.3925 H         1 <0>         0.0615
     42 H20         2.1003   -0.9465    9.5202 H         1 <0>         0.0989
     43 H21         3.1703    0.0915    8.5462 H         1 <0>         0.0611
     44 H22         3.0310   -2.1466    7.5307 H         1 <0>         0.0847
     45 H23         3.5342   -2.8951    9.0661 H         1 <0>         0.0445
@<TRIPOS>BOND
     1    1    6 ar
     2    1    2 ar
     3    1   23 1
     4    2    3 ar
     5    2   24 1
     6    3    4 ar
     7    3   25 1
     8    4    5 ar
     9    4    7 1
    10    5    6 ar
    11    5   26 1
    12    6   27 1
    13    7    8 1
    14    7   28 1
    15    7   29 1
    16    8   13 ar
    17    8    9 ar
    18    9   10 ar
    19    9   30 1
    20   10   11 ar
    21   10   31 1
    22   11   12 ar
    23   11   14 1
    24   12   13 ar
    25   12   32 1
    26   13   33 1
    27   14   15 1
    28   15   16 1
    29   15   34 1
    30   15   35 1
    31   16   17 1
    32   16   36 1
    33   16   37 1
    34   17   22 1
    35   17   18 1
    36   18   19 1
    37   18   38 1
    38   18   39 1
    39   19   20 1
    40   19   40 1
    41   19   41 1
    42   20   21 1
    43   21   22 1
    44   21   42 1
    45   21   43 1
    46   22   44 1
    47   22   45 1
@<TRIPOS>MOLECULE
ZINC01504642
   23    24     0     0     0
SMALL
USER_CHARGES

@<TRIPOS>ATOM
      1 C1          0.1523    1.4416    0.9298 C.ar      1 <0>        -0.1532
      2 C2          0.1744    0.0622    1.0219 C.ar      1 <0>        -0.0822
      3 C3          1.3227   -0.6345    0.6989 C.ar      1 <0>        -0.1949
      4 C4          2.4545    0.0512    0.2818 C.ar      1 <0>         0.1215
      5 C5          2.4296    1.4356    0.1902 C.ar      1 <0>        -0.1469
      6 C6          1.2788    2.1274    0.5144 C.ar      1 <0>        -0.0823
      7 O1          3.5855   -0.6317   -0.0361 O.3       1 <0>        -0.2610
      8 C7          3.5612   -1.9868    0.0614 C.ar      1 <0>         0.0814
      9 C8          3.1830   -2.7554   -1.0301 C.ar      1 <0>        -0.1261
     10 C9          3.1591   -4.1328   -0.9283 C.ar      1 <0>        -0.1061
     11 C10         3.5110   -4.7457    0.2601 C.ar      1 <0>        -0.1167
     12 C11         3.8878   -3.9820    1.3495 C.ar      1 <0>        -0.1061
     13 C12         3.9198   -2.6045    1.2510 C.ar      1 <0>        -0.1261
     14 H1         -0.7479    1.9841    1.1785 H         1 <0>         0.1258
     15 H2         -0.7067   -0.4711    1.3470 H         1 <0>         0.1261
     16 H3          1.3396   -1.7119    0.7714 H         1 <0>         0.1272
     17 H4          3.3093    1.9717   -0.1342 H         1 <0>         0.1325
     18 H5          1.2588    3.2048    0.4430 H         1 <0>         0.1318
     19 H6          2.9074   -2.2772   -1.9584 H         1 <0>         0.1311
     20 H7          2.8649   -4.7316   -1.7776 H         1 <0>         0.1317
     21 H8          3.4913   -5.8227    0.3378 H         1 <0>         0.1296
     22 H9          4.1619   -4.4631    2.2768 H         1 <0>         0.1317
     23 H10         4.2188   -2.0087    2.1007 H         1 <0>         0.1312
@<TRIPOS>BOND
     1    1    6 ar
     2    1    2 ar
     3    1   14 1
     4    2    3 ar
     5    2   15 1
     6    3    4 ar
     7    3   16 1
     8    4    5 ar
     9    4    7 1
    10    5    6 ar
    11    5   17 1
    12    6   18 1
    13    7    8 1
    14    8   13 ar
    15    8    9 ar
    16    9   10 ar
    17    9   19 1
    18   10   11 ar
    19   10   20 1
    20   11   12 ar
    21   11   21 1
    22   12   13 ar
    23   12   22 1
    24   13   23 1
@<TRIPOS>MOLECULE
ZINC01561846
   27    28     0     0     0
SMALL
USER_CHARGES
1-methoxy-4-phenoxy-benzene
@<TRIPOS>ATOM
      1 C1         -6.0960    6.8820   -0.3176 C.3       1 <0>         0.0265
      2 O1         -4.9338    7.7133   -0.3325 O.3       1 <0>        -0.3166
      3 C2         -3.7282    7.0907   -0.2428 C.ar      1 <0>         0.0976
      4 C3         -2.5596    7.8377   -0.2515 C.ar      1 <0>        -0.1139
      5 C4         -1.3350    7.2054   -0.1603 C.ar      1 <0>        -0.1031
      6 C5         -1.2739    5.8232   -0.0596 C.ar      1 <0>         0.0840
      7 C6         -2.4426    5.0758   -0.0562 C.ar      1 <0>        -0.1534
      8 C7         -3.6673    5.7086   -0.1421 C.ar      1 <0>        -0.1705
      9 O2         -0.0685    5.2007    0.0302 O.3       1 <0>        -0.2575
     10 C8         -0.0482    3.8424   -0.0007 C.ar      1 <0>         0.0869
     11 C9         -0.4009    3.1682   -1.1611 C.ar      1 <0>        -0.1414
     12 C10        -0.3789    1.7873   -1.1899 C.ar      1 <0>        -0.1037
     13 C11        -0.0063    1.0769   -0.0636 C.ar      1 <0>        -0.1218
     14 C12         0.3401    1.7461    1.0957 C.ar      1 <0>        -0.1028
     15 C13         0.3258    3.1271    1.1280 C.ar      1 <0>        -0.1232
     16 H1         -6.0596    6.1914   -1.1601 H         1 <0>         0.0551
     17 H2         -6.1267    6.3171    0.6141 H         1 <0>         0.0552
     18 H3         -6.9882    7.5033   -0.3954 H         1 <0>         0.1016
     19 H4         -2.6072    8.9138   -0.3299 H         1 <0>         0.1412
     20 H5         -0.4251    7.7871   -0.1671 H         1 <0>         0.1413
     21 H6         -2.3950    3.9993    0.0173 H         1 <0>         0.1320
     22 H7         -4.5773    5.1271   -0.1353 H         1 <0>         0.1323
     23 H8         -0.6926    3.7226   -2.0408 H         1 <0>         0.1297
     24 H9         -0.6533    1.2621   -2.0928 H         1 <0>         0.1302
     25 H10         0.0099   -0.0027   -0.0882 H         1 <0>         0.1289
     26 H11         0.6265    1.1888    1.9753 H         1 <0>         0.1323
     27 H12         0.6004    3.6494    2.0325 H         1 <0>         0.1329
@<TRIPOS>BOND
     1    1    2 1
     2    1   16 1
     3    1   17 1
     4    1   18 1
     5    2    3 1
     6    3    8 ar
     7    3    4 ar
     8    4    5 ar
     9    4   19 1
    10    5    6 ar
    11    5   20 1
    12    6    7 ar
    13    6    9 1
    14    7    8 ar
    15    7   21 1
    16    8   22 1
    17    9   10 1
    18   10   15 ar
    19   10   11 ar
    20   11   12 ar
    21   11   23 1
    22   12   13 ar
    23   12   24 1
    24   13   14 ar
    25   13   25 1
    26   14   15 ar
    27   14   26 1
    28   15   27 1
@<TRIPOS>MOLECULE
ZINC11945831
   33    34     0     0     0
SMALL
USER_CHARGES
2-(4-phenoxyphenoxy)ethanamine
@<TRIPOS>ATOM
      1 C1         -0.0063    1.0769   -0.0636 C.ar      1 <0>        -0.1155
      2 C2          0.3403    1.7465    1.0954 C.ar      1 <0>        -0.1004
      3 C3          0.3256    3.1274    1.1274 C.ar      1 <0>        -0.1193
      4 C4         -0.0482    3.8424   -0.0016 C.ar      1 <0>         0.0768
      5 C5         -0.4006    3.1678   -1.1618 C.ar      1 <0>        -0.1413
      6 C6         -0.3786    1.7869   -1.1902 C.ar      1 <0>        -0.1034
      7 O1         -0.0685    5.2007    0.0288 O.3       1 <0>        -0.2517
      8 C7         -1.2739    5.8232   -0.0614 C.ar      1 <0>         0.1078
      9 C8         -2.4426    5.0757   -0.0580 C.ar      1 <0>        -0.1558
     10 C9         -3.6673    5.7086   -0.1439 C.ar      1 <0>        -0.1614
     11 C10        -3.7282    7.0906   -0.2450 C.ar      1 <0>         0.0766
     12 C11        -2.5595    7.8377   -0.2542 C.ar      1 <0>        -0.1005
     13 C12        -1.3350    7.2054   -0.1626 C.ar      1 <0>        -0.1048
     14 O2         -4.9337    7.7132   -0.3357 O.3       1 <0>        -0.3295
     15 C13        -6.0959    6.8819   -0.3202 C.3       1 <0>         0.0207
     16 C14        -7.3482    7.7539   -0.4305 C.3       1 <0>         0.0074
     17 H1          0.0096   -0.0027   -0.0877 H         1 <0>         0.1322
     18 H2          0.6265    1.1895    1.9753 H         1 <0>         0.1357
     19 H3          0.6000    3.6501    2.0318 H         1 <0>         0.1347
     20 H4         -0.6922    3.7219   -2.0418 H         1 <0>         0.1287
     21 H5         -0.6529    1.2614   -2.0930 H         1 <0>         0.1322
     22 H6         -2.3950    3.9994    0.0163 H         1 <0>         0.1382
     23 H7         -4.5773    5.1271   -0.1364 H         1 <0>         0.1310
     24 H8         -2.6071    8.9137   -0.3333 H         1 <0>         0.1428
     25 H9         -0.4250    7.7871   -0.1694 H         1 <0>         0.1476
     26 H10        -6.0593    6.1905   -1.1620 H         1 <0>         0.0867
     27 H11        -6.1269    6.3179    0.6121 H         1 <0>         0.1084
     28 H12        -8.2359    7.1295   -0.3296 H         1 <0>         0.1541
     29 H13        -7.3397    8.5038    0.3605 H         1 <0>         0.1434
     30 H14        -7.3091    7.7500   -2.4889 H         1 <0>         0.4369
     31 H15        -8.1840    9.0047   -1.8361 H         1 <0>         0.4421
     32 N1         -7.3447    8.4360   -1.7367 N.4       1 <0>        -0.6470
     33 H16        -6.5192    9.0435   -1.7980 H         1 <0>         0.4466
@<TRIPOS>BOND
     1    1    6 ar
     2    1    2 ar
     3    1   17 1
     4    2    3 ar
     5    2   18 1
     6    3    4 ar
     7    3   19 1
     8    4    5 ar
     9    4    7 1
    10    5    6 ar
    11    5   20 1
    12    6   21 1
    13    7    8 1
    14    8   13 ar
    15    8    9 ar
    16    9   10 ar
    17    9   22 1
    18   10   11 ar
    19   10   23 1
    20   11   12 ar
    21   11   14 1
    22   12   13 ar
    23   12   24 1
    24   13   25 1
    25   14   15 1
    26   15   16 1
    27   15   26 1
    28   15   27 1
    29   16   28 1
    30   16   29 1
    31   16   32 1
    32   30   32 1
    33   31   32 1
    34   32   33 1
@<TRIPOS>MOLECULE
ZINC11755412
   42    43     0     0     0
SMALL
USER_CHARGES
4-amino-N-(4-benzyloxyphenyl)butanamide
@<TRIPOS>ATOM
      1 C1         -9.2663    5.7460    0.6670 C.ar      1 <0>        -0.1061
      2 C2         -8.4873    5.6184    1.8018 C.ar      1 <0>        -0.1220
      3 C3         -7.1620    5.2411    1.6916 C.ar      1 <0>        -0.0951
      4 C4         -6.6156    4.9918    0.4465 C.ar      1 <0>        -0.1028
      5 C5         -7.3930    5.1250   -0.6887 C.ar      1 <0>        -0.0954
      6 C6         -8.7199    5.4967   -0.5781 C.ar      1 <0>        -0.1221
      7 C7         -5.1707    4.5809    0.3263 C.3       1 <0>         0.1030
      8 O1         -5.0737    3.1566    0.3896 O.3       1 <0>        -0.3056
      9 C8         -3.8288    2.6179    0.2955 C.ar      1 <0>         0.1282
     10 C9         -3.6630    1.2417    0.3496 C.ar      1 <0>        -0.1314
     11 C10        -2.3990    0.6939    0.2541 C.ar      1 <0>        -0.0974
     12 C11        -1.2939    1.5209    0.1038 C.ar      1 <0>         0.0910
     13 C12        -1.4600    2.8985    0.0550 C.ar      1 <0>        -0.0750
     14 C13        -2.7251    3.4447    0.1449 C.ar      1 <0>        -0.1922
     15 N1         -0.0111    0.9658    0.0074 N.am      1 <0>        -0.6641
     16 C14         0.9247    1.5607   -0.7588 C.2       1 <0>         0.5099
     17 O2          0.6315    2.5227   -1.4368 O.2       1 <0>        -0.5231
     18 C15         2.3353    1.0305   -0.7731 C.3       1 <0>        -0.1392
     19 C16         3.1896    1.8792   -1.7169 C.3       1 <0>        -0.1401
     20 C17         4.6217    1.3409   -1.7314 C.3       1 <0>        -0.0044
     21 H1        -10.3019    6.0401    0.7531 H         1 <0>         0.1267
     22 H2         -8.9142    5.8131    2.7745 H         1 <0>         0.1273
     23 H3         -6.5534    5.1414    2.5782 H         1 <0>         0.1240
     24 H4         -6.9649    4.9345   -1.6618 H         1 <0>         0.1237
     25 H5         -9.3286    5.5961   -1.4647 H         1 <0>         0.1271
     26 H6         -4.5987    5.0207    1.1433 H         1 <0>         0.0726
     27 H7         -4.7716    4.9303   -0.6259 H         1 <0>         0.0723
     28 H8         -4.5227    0.5985    0.4661 H         1 <0>         0.1392
     29 H9         -2.2701   -0.3776    0.2959 H         1 <0>         0.1344
     30 H10        -0.6004    3.5426   -0.0574 H         1 <0>         0.1339
     31 H11        -2.8550    4.5160    0.1022 H         1 <0>         0.1334
     32 H12         0.2024    0.1512    0.4888 H         1 <0>         0.4129
     33 H13         2.7509    1.0764    0.2335 H         1 <0>         0.1091
     34 H14         2.3313   -0.0036   -1.1176 H         1 <0>         0.1083
     35 H15         2.7739    1.8332   -2.7234 H         1 <0>         0.0974
     36 H16         3.1936    2.9133   -1.3723 H         1 <0>         0.0967
     37 H17         5.0373    1.3869   -0.7248 H         1 <0>         0.1335
     38 H18         4.6177    0.3068   -2.0759 H         1 <0>         0.1364
     39 H19         6.3931    1.8201   -2.6646 H         1 <0>         0.4415
     40 H20         5.0412    2.1817   -3.5631 H         1 <0>         0.4388
     41 N2          5.4402    2.1782   -2.6259 N.4       1 <0>        -0.6466
     42 H21         5.4580    3.1396   -2.2657 H         1 <0>         0.4410
@<TRIPOS>BOND
     1    1    6 ar
     2    1    2 ar
     3    1   21 1
     4    2    3 ar
     5    2   22 1
     6    3    4 ar
     7    3   23 1
     8    4    5 ar
     9    4    7 1
    10    5    6 ar
    11    5   24 1
    12    6   25 1
    13    7    8 1
    14    7   26 1
    15    7   27 1
    16    8    9 1
    17    9   14 ar
    18    9   10 ar
    19   10   11 ar
    20   10   28 1
    21   11   12 ar
    22   11   29 1
    23   12   13 ar
    24   12   15 1
    25   13   14 ar
    26   13   30 1
    27   14   31 1
    28   15   16 am
    29   15   32 1
    30   16   17 2
    31   16   18 1
    32   18   19 1
    33   18   33 1
    34   18   34 1
    35   19   20 1
    36   19   35 1
    37   19   36 1
    38   20   37 1
    39   20   38 1
    40   20   41 1
    41   39   41 1
    42   40   41 1
    43   41   42 1
@<TRIPOS>MOLECULE
ZINC11957004
   36    37     0     0     0
SMALL
USER_CHARGES
2-amino-N-(4-benzyloxyphenyl)acetamide
@<TRIPOS>ATOM
      1 C1         -9.2663    5.7460    0.6670 C.ar      1 <0>        -0.1043
      2 C2         -8.4873    5.6184    1.8018 C.ar      1 <0>        -0.1216
      3 C3         -7.1620    5.2411    1.6916 C.ar      1 <0>        -0.0947
      4 C4         -6.6156    4.9918    0.4465 C.ar      1 <0>        -0.1057
      5 C5         -7.3930    5.1250   -0.6887 C.ar      1 <0>        -0.0949
      6 C6         -8.7199    5.4967   -0.5781 C.ar      1 <0>        -0.1217
      7 C7         -5.1707    4.5809    0.3263 C.3       1 <0>         0.1028
      8 O1         -5.0737    3.1566    0.3896 O.3       1 <0>        -0.3029
      9 C8         -3.8288    2.6179    0.2955 C.ar      1 <0>         0.1408
     10 C9         -3.6630    1.2417    0.3496 C.ar      1 <0>        -0.1319
     11 C10        -2.3990    0.6939    0.2541 C.ar      1 <0>        -0.0864
     12 C11        -1.2939    1.5209    0.1038 C.ar      1 <0>         0.0727
     13 C12        -1.4600    2.8985    0.0550 C.ar      1 <0>        -0.0689
     14 C13        -2.7251    3.4447    0.1449 C.ar      1 <0>        -0.1940
     15 N1         -0.0111    0.9658    0.0074 N.am      1 <0>        -0.6388
     16 C14         0.9247    1.5607   -0.7588 C.2       1 <0>         0.4903
     17 O2          0.6315    2.5227   -1.4368 O.2       1 <0>        -0.5156
     18 C15         2.3353    1.0305   -0.7731 C.3       1 <0>        -0.0200
     19 H1        -10.3019    6.0401    0.7531 H         1 <0>         0.1276
     20 H2         -8.9142    5.8131    2.7745 H         1 <0>         0.1280
     21 H3         -6.5534    5.1414    2.5782 H         1 <0>         0.1241
     22 H4         -6.9649    4.9345   -1.6618 H         1 <0>         0.1238
     23 H5         -9.3286    5.5961   -1.4647 H         1 <0>         0.1278
     24 H6         -4.5987    5.0207    1.1433 H         1 <0>         0.0741
     25 H7         -4.7716    4.9303   -0.6259 H         1 <0>         0.0738
     26 H8         -4.5227    0.5985    0.4661 H         1 <0>         0.1432
     27 H9         -2.2701   -0.3776    0.2959 H         1 <0>         0.1376
     28 H10        -0.6004    3.5426   -0.0574 H         1 <0>         0.1343
     29 H11        -2.8550    4.5160    0.1022 H         1 <0>         0.1370
     30 H12         0.2024    0.1512    0.4888 H         1 <0>         0.4198
     31 H13         2.7509    1.0764    0.2335 H         1 <0>         0.1653
     32 H14         2.3313   -0.0036   -1.1176 H         1 <0>         0.1672
     33 H15         4.1067    1.5097   -1.7063 H         1 <0>         0.4487
     34 H16         2.7547    1.8713   -2.6049 H         1 <0>         0.4457
     35 N2          3.1538    1.8678   -1.6676 N.4       1 <0>        -0.6303
     36 H17         3.1715    2.8291   -1.3075 H         1 <0>         0.4470
@<TRIPOS>BOND
     1    1    6 ar
     2    1    2 ar
     3    1   19 1
     4    2    3 ar
     5    2   20 1
     6    3    4 ar
     7    3   21 1
     8    4    5 ar
     9    4    7 1
    10    5    6 ar
    11    5   22 1
    12    6   23 1
    13    7    8 1
    14    7   24 1
    15    7   25 1
    16    8    9 1
    17    9   14 ar
    18    9   10 ar
    19   10   11 ar
    20   10   26 1
    21   11   12 ar
    22   11   27 1
    23   12   13 ar
    24   12   15 1
    25   13   14 ar
    26   13   28 1
    27   14   29 1
    28   15   16 am
    29   15   30 1
    30   16   17 2
    31   16   18 1
    32   18   31 1
    33   18   32 1
    34   18   35 1
    35   33   35 1
    36   34   35 1
    37   35   36 1
@<TRIPOS>MOLECULE
ZINC11957865
   39    40     0     0     0
SMALL
USER_CHARGES
(2S)-2-amino-N-(4-benzyloxyphenyl)propanamide
@<TRIPOS>ATOM
      1 C1         11.8523   -3.9657   -2.4876 C.3       1 <0>        -0.1824
      2 C2         10.8236   -4.2356   -3.5875 C.3       1 <0>         0.0157
      3 H1         10.5702   -5.2958   -3.5958 H         1 <0>         0.1698
      4 C3          9.5813   -3.4244   -3.3235 C.2       1 <0>         0.4967
      5 O1          9.2035   -2.6107   -4.1398 O.2       1 <0>        -0.5120
      6 N1          8.8901   -3.6030   -2.1803 N.am      1 <0>        -0.6375
      7 C4          7.6768   -2.9308   -1.9829 C.ar      1 <0>         0.0737
      8 C5          6.8436   -2.6700   -3.0626 C.ar      1 <0>        -0.0706
      9 C6          5.6481   -2.0070   -2.8674 C.ar      1 <0>        -0.1343
     10 C7          5.2793   -1.6019   -1.5930 C.ar      1 <0>         0.1409
     11 C8          6.1138   -1.8574   -0.5146 C.ar      1 <0>        -0.1914
     12 C9          7.3073   -2.5246   -0.7076 C.ar      1 <0>        -0.0853
     13 O2          4.1021   -0.9491   -1.4015 O.3       1 <0>        -0.3032
     14 C10         3.7856   -0.5611   -0.0631 C.3       1 <0>         0.1022
     15 C11         2.4540    0.1443   -0.0461 C.ar      1 <0>        -0.1056
     16 C12         1.2905   -0.5798    0.1348 C.ar      1 <0>        -0.0945
     17 C13         0.0690    0.0672    0.1499 C.ar      1 <0>        -0.1218
     18 C14         0.0110    1.4383   -0.0158 C.ar      1 <0>        -0.1043
     19 C15         1.1746    2.1626   -0.1962 C.ar      1 <0>        -0.1218
     20 C16         2.3960    1.5155   -0.2118 C.ar      1 <0>        -0.0948
     21 H2         12.1056   -2.9056   -2.4792 H         1 <0>         0.0913
     22 H3         11.4333   -4.2468   -1.5214 H         1 <0>         0.1109
     23 H4         12.7508   -4.5525   -2.6786 H         1 <0>         0.1012
     24 H5          9.2327   -4.1970   -1.4942 H         1 <0>         0.4180
     25 H6          7.1303   -2.9860   -4.0547 H         1 <0>         0.1384
     26 H7          5.0000   -1.8041   -3.7071 H         1 <0>         0.1407
     27 H8          5.8281   -1.5378    0.4767 H         1 <0>         0.1395
     28 H9          7.9547   -2.7274    0.1326 H         1 <0>         0.1331
     29 H10         4.5575    0.1107    0.3126 H         1 <0>         0.0743
     30 H11         3.7356   -1.4470    0.5699 H         1 <0>         0.0749
     31 H12         1.3358   -1.6511    0.2639 H         1 <0>         0.1242
     32 H13        -0.8400   -0.4986    0.2909 H         1 <0>         0.1279
     33 H14        -0.9437    1.9432   -0.0088 H         1 <0>         0.1275
     34 H15         1.1293    3.2338   -0.3260 H         1 <0>         0.1278
     35 H16         3.3050    2.0812   -0.3535 H         1 <0>         0.1238
     36 H17        11.5716   -2.8655   -4.9297 H         1 <0>         0.4435
     37 H18        12.2228   -4.3873   -5.0900 H         1 <0>         0.4462
     38 N2         11.3690   -3.8634   -4.9048 N.4       1 <0>        -0.6299
     39 H19        10.6771   -4.0831   -5.6309 H         1 <0>         0.4477
@<TRIPOS>BOND
     1    1    2 1
     2    1   21 1
     3    1   22 1
     4    1   23 1
     5    2    3 1
     6    2    4 1
     7    2   38 1
     8    4    5 2
     9    4    6 am
    10    6    7 1
    11    6   24 1
    12    7   12 ar
    13    7    8 ar
    14    8    9 ar
    15    8   25 1
    16    9   10 ar
    17    9   26 1
    18   10   11 ar
    19   10   13 1
    20   11   12 ar
    21   11   27 1
    22   12   28 1
    23   13   14 1
    24   14   15 1
    25   14   29 1
    26   14   30 1
    27   15   20 ar
    28   15   16 ar
    29   16   17 ar
    30   16   31 1
    31   17   18 ar
    32   17   32 1
    33   18   19 ar
    34   18   33 1
    35   19   20 ar
    36   19   34 1
    37   20   35 1
    38   36   38 1
    39   37   38 1
    40   38   39 1
@<TRIPOS>MOLECULE
ZINC16052617
   57    58     0     0     0
SMALL
USER_CHARGES
6-[[(2S)-2-amino-3-(4-benzyloxyphenyl)propyl]-hydroxy-amino]-6-oxo-hexanoic acid
@<TRIPOS>ATOM
      1 C1         -0.0167    1.3781    0.0096 C.ar      1 <0>        -0.1041
      2 C2          1.1709    2.0855    0.0021 C.ar      1 <0>        -0.1216
      3 C3          2.3773    1.4107   -0.0141 C.ar      1 <0>        -0.0942
      4 C4          2.3960    0.0285   -0.0217 C.ar      1 <0>        -0.1058
      5 C5          1.2084   -0.6789   -0.0136 C.ar      1 <0>        -0.0945
      6 C6          0.0021   -0.0041    0.0020 C.ar      1 <0>        -0.1219
      7 C7          3.7112   -0.7071   -0.0392 C.3       1 <0>         0.1019
      8 O1          4.1132   -0.9320   -1.3920 O.3       1 <0>        -0.3036
      9 C8          5.2871   -1.5886   -1.5857 C.ar      1 <0>         0.1506
     10 C9          6.0395   -2.0030   -0.4963 C.ar      1 <0>        -0.2015
     11 C10         7.2299   -2.6750   -0.6959 C.ar      1 <0>        -0.0565
     12 C11         7.6768   -2.9255   -1.9801 C.ar      1 <0>        -0.1694
     13 C12         6.9315   -2.5085   -3.0676 C.ar      1 <0>        -0.0954
     14 C13         5.7379   -1.8408   -2.8733 C.ar      1 <0>        -0.1456
     15 C14         8.9785   -3.6537   -2.1950 C.3       1 <0>        -0.0841
     16 C15        10.1233   -2.6412   -2.2676 C.3       1 <0>         0.0160
     17 H1         10.1158   -2.0194   -1.3725 H         1 <0>         0.1505
     18 C16        11.4570   -3.3852   -2.3606 C.3       1 <0>         0.1178
     19 N1         12.5425   -2.4199   -2.5501 N.am      1 <0>        -0.5040
     20 C17        12.9648   -1.6686   -1.5139 C.2       1 <0>         0.5000
     21 O2         12.4461   -1.7917   -0.4246 O.2       1 <0>        -0.4950
     22 C18        14.0814   -0.6755   -1.7089 C.3       1 <0>        -0.1520
     23 C19        14.3641    0.0402   -0.3865 C.3       1 <0>        -0.1050
     24 C20        15.4978    1.0484   -0.5845 C.3       1 <0>        -0.0994
     25 C21        15.7805    1.7642    0.7379 C.3       1 <0>        -0.1590
     26 C22        16.8971    2.7572    0.5429 C.2       1 <0>         0.4557
     27 O3         17.4138    2.8799   -0.5424 O.co2     1 <0>        -0.6434
     28 O4         13.1481   -2.2761   -3.8220 O.3       1 <0>        -0.3347
     29 H2         -0.9592    1.9054    0.0170 H         1 <0>         0.1274
     30 H3          1.1563    3.1654    0.0081 H         1 <0>         0.1282
     31 H4          3.3051    1.9634   -0.0207 H         1 <0>         0.1243
     32 H5          1.2231   -1.7587   -0.0199 H         1 <0>         0.1240
     33 H6         -0.9258   -0.5567    0.0079 H         1 <0>         0.1278
     34 H7          4.4679   -0.1107    0.4703 H         1 <0>         0.0759
     35 H8          3.5990   -1.6641    0.4703 H         1 <0>         0.0756
     36 H9          5.6929   -1.8039    0.5070 H         1 <0>         0.1367
     37 H10         7.8138   -3.0016    0.1519 H         1 <0>         0.1339
     38 H11         7.2831   -2.7048   -4.0697 H         1 <0>         0.1286
     39 H12         5.1560   -1.5157   -3.7230 H         1 <0>         0.1383
     40 H13         9.1522   -4.3396   -1.3659 H         1 <0>         0.1224
     41 H14         8.9308   -4.2157   -3.1277 H         1 <0>         0.0998
     42 H15        11.6254   -3.9454   -1.4408 H         1 <0>         0.1321
     43 H16        11.4311   -4.0733   -3.2055 H         1 <0>         0.1192
     44 H17        14.9793   -1.1985   -2.0382 H         1 <0>         0.1075
     45 H18        13.7898    0.0557   -2.4628 H         1 <0>         0.1022
     46 H19        13.4662    0.5631   -0.0573 H         1 <0>         0.0675
     47 H20        14.6557   -0.6911    0.3673 H         1 <0>         0.0704
     48 H21        16.3957    0.5255   -0.9138 H         1 <0>         0.0638
     49 H22        15.2062    1.7797   -1.3383 H         1 <0>         0.0620
     50 H23        14.8826    2.2871    1.0671 H         1 <0>         0.0631
     51 H24        16.0721    1.0329    1.4917 H         1 <0>         0.0645
     52 H25        13.8540   -1.6158   -3.8492 H         1 <0>         0.4085
     53 H26         9.9557   -2.3464   -4.2983 H         1 <0>         0.4329
     54 H27         9.1093   -1.2422   -3.3870 H         1 <0>         0.4357
     55 O5         17.3177    3.5054    1.5749 O.co2     1 <0>        -0.7711
     56 N2          9.9729   -1.7785   -3.4527 N.4       1 <0>        -0.6408
     57 H28        10.7673   -1.1298   -3.5010 H         1 <0>         0.4381
@<TRIPOS>BOND
     1    1    6 ar
     2    1    2 ar
     3    1   29 1
     4    2    3 ar
     5    2   30 1
     6    3    4 ar
     7    3   31 1
     8    4    5 ar
     9    4    7 1
    10    5    6 ar
    11    5   32 1
    12    6   33 1
    13    7    8 1
    14    7   34 1
    15    7   35 1
    16    8    9 1
    17    9   14 ar
    18    9   10 ar
    19   10   11 ar
    20   10   36 1
    21   11   12 ar
    22   11   37 1
    23   12   13 ar
    24   12   15 1
    25   13   14 ar
    26   13   38 1
    27   14   39 1
    28   15   16 1
    29   15   40 1
    30   15   41 1
    31   16   17 1
    32   16   18 1
    33   16   56 1
    34   18   19 1
    35   18   42 1
    36   18   43 1
    37   19   20 am
    38   19   28 1
    39   20   21 2
    40   20   22 1
    41   22   23 1
    42   22   44 1
    43   22   45 1
    44   23   24 1
    45   23   46 1
    46   23   47 1
    47   24   25 1
    48   24   48 1
    49   24   49 1
    50   25   26 1
    51   25   50 1
    52   25   51 1
    53   26   27 2
    54   26   55 1
    55   28   52 1
    56   53   56 1
    57   54   56 1
    58   56   57 1
@<TRIPOS>MOLECULE
ZINC00158702
   25    26     0     0     0
SMALL
USER_CHARGES
[4-(2-thienyl)phenyl]methanamine
@<TRIPOS>ATOM
      1 C1         -3.2833    4.3304    6.5659 C.2       1 <0>        -0.1674
      2 C2         -2.5046    4.0938    5.4541 C.2       1 <0>        -0.1161
      3 C3         -2.7065    2.9419    4.7422 C.2       1 <0>        -0.1588
      4 S1         -4.0181    2.1620    5.6692 S.3       1 <0>         0.0742
      5 C4         -4.2159    3.4124    6.9278 C.2       1 <0>        -0.1465
      6 C5         -2.0142    2.4649    3.5262 C.ar      1 <0>         0.0520
      7 C6         -2.3696    1.2440    2.9508 C.ar      1 <0>        -0.1129
      8 C7         -1.7199    0.8048    1.8157 C.ar      1 <0>        -0.0804
      9 C8         -0.7181    1.5718    1.2479 C.ar      1 <0>        -0.1805
     10 C9         -0.3572    2.7804    1.8166 C.ar      1 <0>        -0.0818
     11 C10        -1.0028    3.2337    2.9484 C.ar      1 <0>        -0.1061
     12 C11        -0.0127    1.0858    0.0080 C.3       1 <0>         0.0532
     13 H1         -0.2694    1.2597   -2.0273 H         1 <0>         0.4393
     14 H2         -1.6917    1.2898   -1.1659 H         1 <0>         0.4364
     15 H3         -3.1501    5.2322    7.1450 H         1 <0>         0.1438
     16 H4         -1.7519    4.8052    5.1480 H         1 <0>         0.1374
     17 H5         -4.9007    3.4331    7.7626 H         1 <0>         0.1949
     18 H6         -3.1516    0.6445    3.3928 H         1 <0>         0.1363
     19 H7         -1.9941   -0.1395    1.3692 H         1 <0>         0.1364
     20 H8          0.4287    3.3722    1.3710 H         1 <0>         0.1365
     21 H9         -0.7232    4.1793    3.3889 H         1 <0>         0.1388
     22 H10         0.0021   -0.0041    0.0020 H         1 <0>         0.1409
     23 H11         1.0099    1.4631    0.0003 H         1 <0>         0.1381
     24 N1         -0.7207    1.5974   -1.1788 N.4       1 <0>        -0.6463
     25 H12        -0.6943    2.6238   -1.1711 H         1 <0>         0.4384
@<TRIPOS>BOND
     1    1    5 2
     2    1    2 1
     3    1   15 1
     4    2    3 2
     5    2   16 1
     6    3    4 1
     7    3    6 1
     8    4    5 1
     9    5   17 1
    10    6   11 ar
    11    6    7 ar
    12    7    8 ar
    13    7   18 1
    14    8    9 ar
    15    8   19 1
    16    9   10 ar
    17    9   12 1
    18   10   11 ar
    19   10   20 1
    20   11   21 1
    21   12   22 1
    22   12   23 1
    23   12   24 1
    24   13   24 1
    25   14   24 1
    26   24   25 1
@<TRIPOS>MOLECULE
ZINC45261000
   42    44     0     0     0
SMALL
USER_CHARGES

@<TRIPOS>ATOM
      1 C1         -0.0167    1.3781    0.0096 C.ar      1 <0>        -0.1206
      2 C2          1.1709    2.0855    0.0021 C.ar      1 <0>        -0.1165
      3 C3          2.3773    1.4107   -0.0130 C.ar      1 <0>        -0.1152
      4 C4          2.3960    0.0285   -0.0201 C.ar      1 <0>        -0.0821
      5 C5          1.2084   -0.6789   -0.0117 C.ar      1 <0>        -0.1160
      6 C6          0.0021   -0.0041    0.0020 C.ar      1 <0>        -0.1171
      7 C7          3.7112   -0.7071   -0.0376 C.3       1 <0>        -0.0446
      8 C8          4.1644   -0.9594    1.3773 C.ar      1 <0>        -0.0910
      9 C9          4.9522   -0.0267    2.0264 C.ar      1 <0>        -0.0726
     10 C10         5.3694   -0.2559    3.3232 C.ar      1 <0>        -0.1374
     11 C11         4.9969   -1.4228    3.9745 C.ar      1 <0>         0.1069
     12 C12         4.2060   -2.3568    3.3213 C.ar      1 <0>        -0.1982
     13 C13         3.7871   -2.1206    2.0262 C.ar      1 <0>        -0.0731
     14 O1          5.4064   -1.6507    5.2502 O.3       1 <0>        -0.3270
     15 C14         4.9849   -2.8733    5.8582 C.3       1 <0>         0.0336
     16 C15         5.5391   -2.9523    7.2821 C.3       1 <0>         0.0338
     17 H1          5.3112   -3.9224    7.7239 H         1 <0>         0.1602
     18 C16         7.0685   -2.7066    7.2799 C.3       1 <0>        -0.1386
     19 C17         7.3076   -2.2066    8.7289 C.3       1 <0>        -0.1428
     20 C18         6.0354   -1.3858    9.0278 C.3       1 <0>        -0.0078
     21 N1          4.9806   -1.8644    8.1129 N.4       1 <0>        -0.5150
     22 H2         -0.9591    1.9053    0.0259 H         1 <0>         0.1233
     23 H3          1.1563    3.1654    0.0076 H         1 <0>         0.1237
     24 H4          3.3051    1.9634   -0.0196 H         1 <0>         0.1209
     25 H5          1.2231   -1.7588   -0.0176 H         1 <0>         0.1198
     26 H6         -0.9258   -0.5567    0.0082 H         1 <0>         0.1231
     27 H7          3.5884   -1.6586   -0.5549 H         1 <0>         0.0857
     28 H8          4.4573   -0.1052   -0.5563 H         1 <0>         0.0867
     29 H9          5.2420    0.8815    1.5189 H         1 <0>         0.1348
     30 H10         5.9853    0.4726    3.8295 H         1 <0>         0.1324
     31 H11         3.9147   -3.2660    3.8262 H         1 <0>         0.1270
     32 H12         3.1678   -2.8454    1.5188 H         1 <0>         0.1298
     33 H13         3.8958   -2.9068    5.8898 H         1 <0>         0.0880
     34 H14         5.3576   -3.7160    5.2759 H         1 <0>         0.1098
     35 H15         7.6124   -3.6323    7.0916 H         1 <0>         0.1183
     36 H16         7.3400   -1.9412    6.5529 H         1 <0>         0.1100
     37 H17         7.3945   -3.0472    9.4173 H         1 <0>         0.1004
     38 H18         8.1943   -1.5744    8.7771 H         1 <0>         0.1145
     39 H19         5.7270   -1.5431   10.0614 H         1 <0>         0.1346
     40 H20         6.2275   -0.3272    8.8528 H         1 <0>         0.1335
     41 H21         4.6762   -1.1066    7.5202 H         1 <0>         0.4340
     42 H22         4.1979   -2.2121    8.6464 H         1 <0>         0.4310
@<TRIPOS>BOND
     1    1    6 ar
     2    1    2 ar
     3    1   22 1
     4    2    3 ar
     5    2   23 1
     6    3    4 ar
     7    3   24 1
     8    4    5 ar
     9    4    7 1
    10    5    6 ar
    11    5   25 1
    12    6   26 1
    13    7    8 1
    14    7   27 1
    15    7   28 1
    16    8   13 ar
    17    8    9 ar
    18    9   10 ar
    19    9   29 1
    20   10   11 ar
    21   10   30 1
    22   11   12 ar
    23   11   14 1
    24   12   13 ar
    25   12   31 1
    26   13   32 1
    27   14   15 1
    28   15   16 1
    29   15   33 1
    30   15   34 1
    31   16   17 1
    32   16   21 1
    33   16   18 1
    34   18   19 1
    35   18   35 1
    36   18   36 1
    37   19   20 1
    38   19   37 1
    39   19   38 1
    40   20   21 1
    41   20   39 1
    42   20   40 1
    43   21   41 1
    44   21   42 1
@<TRIPOS>MOLECULE
ZINC11632570
   38    40     0     0     0
SMALL
USER_CHARGES
1-(4-phenoxyphenyl)piperazine
@<TRIPOS>ATOM
      1 C1         -0.0063    1.0769   -0.0637 C.ar      1 <0>        -0.1154
      2 C2          0.3402    1.7461    1.0956 C.ar      1 <0>        -0.1003
      3 C3          0.3258    3.1271    1.1280 C.ar      1 <0>        -0.1190
      4 C4         -0.0482    3.8424   -0.0007 C.ar      1 <0>         0.0769
      5 C5         -0.4009    3.1682   -1.1611 C.ar      1 <0>        -0.1408
      6 C6         -0.3789    1.7873   -1.1899 C.ar      1 <0>        -0.1034
      7 O1         -0.0685    5.2007    0.0302 O.3       1 <0>        -0.2524
      8 C7         -1.2741    5.8233   -0.0596 C.ar      1 <0>         0.1220
      9 C8         -2.4425    5.0754   -0.0562 C.ar      1 <0>        -0.1686
     10 C9         -3.6675    5.7074   -0.1416 C.ar      1 <0>        -0.1211
     11 C10        -3.7289    7.0911   -0.2425 C.ar      1 <0>         0.0491
     12 C11        -2.5586    7.8386   -0.2515 C.ar      1 <0>        -0.0876
     13 C12        -1.3347    7.2056   -0.1603 C.ar      1 <0>        -0.1197
     14 N1         -4.9694    7.7317   -0.3353 N.pl3     1 <0>        -0.4831
     15 C13        -5.0413    8.5678   -1.5417 C.3       1 <0>         0.0226
     16 C14        -6.3791    9.3111   -1.5650 C.3       1 <0>         0.0009
     17 C15        -7.4066    7.5002   -0.3306 C.3       1 <0>         0.0014
     18 C16        -6.0689    6.7570   -0.3073 C.3       1 <0>         0.0184
     19 H1          0.0099   -0.0027   -0.0882 H         1 <0>         0.1322
     20 H2          0.6266    1.1888    1.9753 H         1 <0>         0.1357
     21 H3          0.6005    3.6494    2.0325 H         1 <0>         0.1346
     22 H4         -0.6927    3.7226   -2.0408 H         1 <0>         0.1282
     23 H5         -0.6534    1.2621   -2.0928 H         1 <0>         0.1321
     24 H6         -2.3944    3.9990    0.0175 H         1 <0>         0.1365
     25 H7         -4.5772    5.1254   -0.1342 H         1 <0>         0.1301
     26 H8         -2.6057    8.9147   -0.3303 H         1 <0>         0.1369
     27 H9         -0.4245    7.7868   -0.1670 H         1 <0>         0.1427
     28 H10        -4.2245    9.2895   -1.5331 H         1 <0>         0.1277
     29 H11        -4.9604    7.9369   -2.4268 H         1 <0>         0.0688
     30 H12        -6.4468    9.9096   -2.4734 H         1 <0>         0.1410
     31 H13        -6.4484    9.9625   -0.6938 H         1 <0>         0.1406
     32 H14        -8.2235    6.7785   -0.3391 H         1 <0>         0.1409
     33 H15        -7.4878    8.1308    0.5547 H         1 <0>         0.1406
     34 H16        -5.9996    6.1055   -1.1784 H         1 <0>         0.0705
     35 H17        -6.0012    6.1585    0.6012 H         1 <0>         0.1286
     36 N2         -7.4855    8.3356   -1.5439 N.4       1 <0>        -0.5189
     37 H18        -7.4233    7.7345   -2.3740 H         1 <0>         0.4312
     38 H19        -8.3808    8.8382   -1.5517 H         1 <0>         0.4401
@<TRIPOS>BOND
     1    1    6 ar
     2    1    2 ar
     3    1   19 1
     4    2    3 ar
     5    2   20 1
     6    3    4 ar
     7    3   21 1
     8    4    5 ar
     9    4    7 1
    10    5    6 ar
    11    5   22 1
    12    6   23 1
    13    7    8 1
    14    8   13 ar
    15    8    9 ar
    16    9   10 ar
    17    9   24 1
    18   10   11 ar
    19   10   25 1
    20   11   12 ar
    21   11   14 1
    22   12   13 ar
    23   12   26 1
    24   13   27 1
    25   14   18 1
    26   14   15 1
    27   15   16 1
    28   15   28 1
    29   15   29 1
    30   16   30 1
    31   16   31 1
    32   16   36 1
    33   17   18 1
    34   17   32 1
    35   17   33 1
    36   17   36 1
    37   18   34 1
    38   18   35 1
    39   36   37 1
    40   36   38 1
@<TRIPOS>MOLECULE
ZINC06020153
   38    38     0     0     0
SMALL
USER_CHARGES
(2S)-2-[[(2R)-2-benzyl-4-(hydroxyamino)-4-oxo-butanoyl]amino]propanoic acid
@<TRIPOS>ATOM
      1 C1         -5.6720    7.8357   -1.6245 C.3       1 <0>        -0.1338
      2 C2         -6.0443    6.4031   -2.0117 C.3       1 <0>         0.1040
      3 H1         -6.6185    5.9140   -1.2110 H         1 <0>         0.0838
      4 C3         -6.8536    6.4205   -3.2828 C.2       1 <0>         0.4649
      5 O1         -6.4519    5.8391   -4.2628 O.co2     1 <0>        -0.6384
      6 O2         -8.0209    7.0818   -3.3262 O.co2     1 <0>        -0.7584
      7 N1         -4.8234    5.6209   -2.2209 N.am      1 <0>        -0.7175
      8 C4         -4.2073    5.0399   -1.1723 C.2       1 <0>         0.5189
      9 O3         -4.6637    5.1647   -0.0556 O.2       1 <0>        -0.5385
     10 C5         -2.9515    4.2353   -1.3874 C.3       1 <0>        -0.0834
     11 H2         -3.1797    3.4024   -2.0688 H         1 <0>         0.1062
     12 C6         -2.4592    3.6897   -0.0454 C.3       1 <0>        -0.0736
     13 C7         -1.2751    2.7861   -0.2745 C.ar      1 <0>        -0.0718
     14 C8         -1.4698    1.4379   -0.5101 C.ar      1 <0>        -0.1160
     15 C9         -0.3833    0.6082   -0.7153 C.ar      1 <0>        -0.1173
     16 C10         0.8972    1.1284   -0.6954 C.ar      1 <0>        -0.1296
     17 C11         1.0916    2.4775   -0.4650 C.ar      1 <0>        -0.1195
     18 C12         0.0055    3.3063   -0.2546 C.ar      1 <0>        -0.1204
     19 C13        -1.8721    5.1290   -2.0015 C.3       1 <0>        -0.1256
     20 C14        -1.6481    6.3272   -1.1155 C.2       1 <0>         0.5145
     21 O4         -2.3492    6.5004   -0.1411 O.2       1 <0>        -0.4901
     22 N2         -0.6687    7.2064   -1.4059 N.am      1 <0>        -0.6046
     23 O5         -0.4583    8.3323   -0.5734 O.3       1 <0>        -0.3500
     24 H3         -5.0813    7.8230   -0.6967 H         1 <0>         0.0511
     25 H4         -6.5887    8.4231   -1.4675 H         1 <0>         0.0667
     26 H5         -5.0784    8.2910   -2.4309 H         1 <0>         0.0425
     27 H6         -4.4095    5.5077   -3.2338 H         1 <0>         0.4158
     28 H7         -2.1618    4.5265    0.6037 H         1 <0>         0.0970
     29 H8         -3.2670    3.1203    0.4375 H         1 <0>         0.0838
     30 H9         -2.4705    1.0322   -0.5301 H         1 <0>         0.1234
     31 H10        -0.5353   -0.4458   -0.8956 H         1 <0>         0.1200
     32 H11         1.7457    0.4810   -0.8602 H         1 <0>         0.1179
     33 H12         2.0921    2.8841   -0.4498 H         1 <0>         0.1183
     34 H13         0.1573    4.3604   -0.0749 H         1 <0>         0.1169
     35 H14        -0.9347    4.5610   -2.0940 H         1 <0>         0.1064
     36 H15        -2.1970    5.4649   -2.9973 H         1 <0>         0.1059
     37 H16        -0.0328    7.0493   -2.2896 H         1 <0>         0.4198
     38 H17         0.3410    9.0499   -0.8104 H         1 <0>         0.4107
@<TRIPOS>BOND
     1    1    2 1
     2    1   24 1
     3    1   25 1
     4    1   26 1
     5    2    3 1
     6    2    4 1
     7    2    7 1
     8    4    5 2
     9    4    6 1
    10    7    8 am
    11    7   27 1
    12    8    9 2
    13    8   10 1
    14   10   11 1
    15   10   12 1
    16   10   19 1
    17   12   13 1
    18   12   28 1
    19   12   29 1
    20   13   18 ar
    21   13   14 ar
    22   14   15 ar
    23   14   30 1
    24   15   16 ar
    25   15   31 1
    26   16   17 ar
    27   16   32 1
    28   17   18 ar
    29   17   33 1
    30   18   34 1
    31   19   20 1
    32   19   35 1
    33   19   36 1
    34   20   21 2
    35   20   22 am
    36   22   23 1
    37   22   37 1
    38   23   38 1
