@<TRIPOS>MOLECULE
ZINC48551259
   41    43     0     0     0
SMALL
USER_CHARGES

@<TRIPOS>ATOM
      1 C1         -0.1863    5.3919   -0.8652 C.ar      1 <0>        -0.0209
      2 C2         -0.0158    4.3091    0.0059 C.ar      1 <0>        -0.1896
      3 C3         -1.0564    3.9695    0.8710 C.ar      1 <0>         0.1738
      4 N1         -2.1807    4.6552    0.8685 N.ar      1 <0>        -0.4671
      5 C4         -2.3704    5.6798    0.0595 C.ar      1 <0>         0.1645
      6 C5         -1.3867    6.0805   -0.8285 C.ar      1 <0>        -0.1565
      7 Br1        -1.6797    7.5526   -1.9788 Br        1 <0>        -0.0092
      8 C6          1.2457    3.5382    0.0087 C.2       1 <0>         0.5756
      9 O1          1.2177    2.3272    0.1098 O.2       1 <0>        -0.5038
     10 N2          2.4268    4.1781   -0.1009 N.am      1 <0>        -0.6186
     11 C7          3.6789    3.4210   -0.2340 C.3       1 <0>         0.1163
     12 C8          4.6567    3.8910    0.8476 C.3       1 <0>        -0.1554
     13 C9          4.8267    5.4089    0.7512 C.3       1 <0>         0.0297
     14 C10         3.4778    6.0912    0.9900 C.3       1 <0>        -0.1573
     15 C11         2.4861    5.6462   -0.0957 C.3       1 <0>         0.1011
     16 N3          5.7892    5.8590    1.7656 N.4       1 <0>        -0.3931
     17 C12         7.1280    5.2750    1.4961 C.3       1 <0>        -0.0065
     18 C13         8.0900    6.2361    2.2386 C.3       1 <0>        -0.1454
     19 C14         7.4425    7.6207    2.0066 C.3       1 <0>        -0.1446
     20 C15         5.9655    7.3253    1.6862 C.3       1 <0>        -0.0099
     21 H1          0.6000    5.6851   -1.5450 H         1 <0>         0.1519
     22 H2         -0.9390    3.1367    1.5484 H         1 <0>         0.1749
     23 H3         -3.3081    6.2147    0.0904 H         1 <0>         0.1768
     24 H4          3.4779    2.3572   -0.1075 H         1 <0>         0.1165
     25 H5          4.1105    3.5988   -1.2190 H         1 <0>         0.0848
     26 H6          4.2644    3.6306    1.8307 H         1 <0>         0.0932
     27 H7          5.6221    3.4067    0.7007 H         1 <0>         0.1026
     28 H8          5.1956    5.6707   -0.2405 H         1 <0>         0.1398
     29 H9          3.0966    5.8101    1.9717 H         1 <0>         0.0938
     30 H10         3.6041    7.1729    0.9443 H         1 <0>         0.1030
     31 H11         2.8224    6.0018   -1.0696 H         1 <0>         0.0886
     32 H12         1.4978    6.0510    0.1221 H         1 <0>         0.1091
     33 H13         7.1980    4.2677    1.9067 H         1 <0>         0.1357
     34 H14         7.3378    5.2710    0.4265 H         1 <0>         0.1342
     35 H15         8.1259    6.0004    3.3022 H         1 <0>         0.0982
     36 H16         9.0873    6.1984    1.8002 H         1 <0>         0.1173
     37 H17         7.5198    8.2301    2.9070 H         1 <0>         0.1054
     38 H18         7.9186    8.1248    1.1656 H         1 <0>         0.1041
     39 H19         5.7265    7.6742    0.6816 H         1 <0>         0.1305
     40 H20         5.3219    7.8167    2.4158 H         1 <0>         0.1315
     41 H21         5.4728    5.5959    2.6869 H         1 <0>         0.4254
@<TRIPOS>BOND
     1    1    6 ar
     2    1    2 ar
     3    1   21 1
     4    2    3 ar
     5    2    8 1
     6    3    4 ar
     7    3   22 1
     8    4    5 ar
     9    5    6 ar
    10    5   23 1
    11    6    7 1
    12    8    9 2
    13    8   10 am
    14   10   15 1
    15   10   11 1
    16   11   12 1
    17   11   24 1
    18   11   25 1
    19   12   13 1
    20   12   26 1
    21   12   27 1
    22   13   14 1
    23   13   16 1
    24   13   28 1
    25   14   15 1
    26   14   29 1
    27   14   30 1
    28   15   31 1
    29   15   32 1
    30   16   20 1
    31   16   17 1
    32   16   41 1
    33   17   18 1
    34   17   33 1
    35   17   34 1
    36   18   19 1
    37   18   35 1
    38   18   36 1
    39   19   20 1
    40   19   37 1
    41   19   38 1
    42   20   39 1
    43   20   40 1
