@<TRIPOS>MOLECULE
ZINC19118270
   45    47     0     0     0
SMALL
USER_CHARGES
N,N-dimethyl-4-(1-methyl-9H-pyrido[5,4-b]indol-4-yl)butan-1-amine
@<TRIPOS>ATOM
      1 C1         -0.0127    1.0858    0.0080 C.3       1 <0>        -0.1079
      2 C2         -0.7181    1.5718    1.2479 C.ar      1 <0>         0.1299
      3 C3         -2.0908    1.7886    1.2198 C.ar      1 <0>         0.0916
      4 C4         -2.7228    2.2379    2.3922 C.ar      1 <0>        -0.0604
      5 C5         -4.1526    2.3711    2.0736 C.ar      1 <0>        -0.1111
      6 C6         -5.2682    2.7705    2.8071 C.ar      1 <0>        -0.0623
      7 C7         -6.5098    2.7903    2.2104 C.ar      1 <0>        -0.1501
      8 C8         -6.6537    2.4132    0.8836 C.ar      1 <0>        -0.0743
      9 C9         -5.5601    2.0154    0.1461 C.ar      1 <0>        -0.1384
     10 C10        -4.2971    1.9891    0.7305 C.ar      1 <0>         0.1492
     11 N1         -3.0522    1.6411    0.2383 N.pl3     1 <0>        -0.6029
     12 H1         -2.8783    1.3403   -0.6673 H         1 <0>         0.4227
     13 C11        -1.9476    2.4570    3.5305 C.ar      1 <0>        -0.0948
     14 C12        -0.5911    2.2195    3.4644 C.ar      1 <0>         0.0683
     15 N2         -0.0280    1.7928    2.3476 N.ar      1 <0>        -0.4527
     16 C13        -2.5806    2.9435    4.8087 C.3       1 <0>        -0.0729
     17 C14        -3.1254    1.7492    5.5948 C.3       1 <0>        -0.1136
     18 C15        -3.7680    2.2431    6.8924 C.3       1 <0>        -0.1505
     19 C16        -4.3128    1.0489    7.6785 C.3       1 <0>        -0.0074
     20 C17        -5.6696    0.4425    9.5901 C.3       1 <0>        -0.0429
     21 C18        -3.9228    2.1030    9.8231 C.3       1 <0>        -0.0470
     22 H2          0.0021   -0.0041    0.0020 H         1 <0>         0.0818
     23 H3          1.0099    1.4631    0.0003 H         1 <0>         0.0871
     24 H4         -0.5399    1.4469   -0.8751 H         1 <0>         0.0689
     25 H5         -5.1596    3.0647    3.8406 H         1 <0>         0.1211
     26 H6         -7.3746    3.0999    2.7784 H         1 <0>         0.1283
     27 H7         -7.6312    2.4311    0.4248 H         1 <0>         0.1341
     28 H8         -5.6830    1.7233   -0.8864 H         1 <0>         0.1297
     29 H9          0.0209    2.3851    4.3387 H         1 <0>         0.1582
     30 H10        -1.8340    3.4634    5.4089 H         1 <0>         0.0815
     31 H11        -3.3969    3.6262    4.5730 H         1 <0>         0.0789
     32 H12        -3.8720    1.2293    4.9945 H         1 <0>         0.0765
     33 H13        -2.3090    1.0665    5.8305 H         1 <0>         0.0774
     34 H14        -3.0214    2.7631    7.4927 H         1 <0>         0.0893
     35 H15        -4.5844    2.9258    6.6567 H         1 <0>         0.0874
     36 H16        -5.0595    0.5289    7.0783 H         1 <0>         0.1291
     37 H17        -3.4965    0.3662    7.9142 H         1 <0>         0.1313
     38 H18        -4.9865   -0.3732    9.8268 H         1 <0>         0.1227
     39 H19        -6.1163    0.8208   10.5096 H         1 <0>         0.1225
     40 H20        -6.4549    0.0782    8.9277 H         1 <0>         0.1213
     41 H21        -3.4383    2.9458    9.3302 H         1 <0>         0.1225
     42 H22        -4.4066    2.4460   10.7377 H         1 <0>         0.1222
     43 H23        -3.1765    1.3474   10.0683 H         1 <0>         0.1232
     44 N3         -4.9486    1.5438    8.9177 N.4       1 <0>        -0.3986
     45 H24        -5.6191    2.2830    8.6763 H         1 <0>         0.4308
@<TRIPOS>BOND
     1    1    2 1
     2    1   22 1
     3    1   23 1
     4    1   24 1
     5    2   15 ar
     6    2    3 ar
     7    3   11 1
     8    3    4 ar
     9    4    5 1
    10    4   13 ar
    11    5   10 ar
    12    5    6 ar
    13    6    7 ar
    14    6   25 1
    15    7    8 ar
    16    7   26 1
    17    8    9 ar
    18    8   27 1
    19    9   10 ar
    20    9   28 1
    21   10   11 1
    22   11   12 1
    23   13   14 ar
    24   13   16 1
    25   14   15 ar
    26   14   29 1
    27   16   17 1
    28   16   30 1
    29   16   31 1
    30   17   18 1
    31   17   32 1
    32   17   33 1
    33   18   19 1
    34   18   34 1
    35   18   35 1
    36   19   36 1
    37   19   37 1
    38   19   44 1
    39   20   38 1
    40   20   39 1
    41   20   40 1
    42   20   44 1
    43   21   41 1
    44   21   42 1
    45   21   43 1
    46   21   44 1
    47   44   45 1
