@<TRIPOS>MOLECULE
ZINC00058172
   20    20     0     0     0
SMALL
USER_CHARGES

@<TRIPOS>ATOM
      1 C1         -0.0169    1.3957    0.0097 C.ar      1 <0>        -0.1140
      2 C2          1.1668    2.1000    0.0022 C.ar      1 <0>        -0.1250
      3 C3          2.3804    1.4254   -0.0135 C.ar      1 <0>         0.0593
      4 C4          2.4079    0.0305   -0.0212 C.ar      1 <0>         0.0806
      5 C5          1.2269   -0.6836   -0.0138 C.ar      1 <0>        -0.1286
      6 C6          0.0021   -0.0041    0.0020 C.ar      1 <0>        -0.0222
      7 C7         -1.2582   -0.7578    0.0105 C.2       1 <0>        -0.1234
      8 C8         -2.4405   -0.0992    0.0258 C.2       1 <0>        -0.1542
      9 C9         -3.6536   -0.8247    0.0339 C.2       1 <0>         0.4982
     10 O1         -3.6348   -2.0498    0.0272 O.co2     1 <0>        -0.6929
     11 O2         -4.7239   -0.2284    0.0477 O.co2     1 <0>        -0.6968
     12 O3          3.5989   -0.6258   -0.0366 O.3       1 <0>        -0.4900
     13 O4          3.5440    2.1254   -0.0217 O.3       1 <0>        -0.4895
     14 H1         -0.9592    1.9231    0.0260 H         1 <0>         0.1353
     15 H2          1.1511    3.1799    0.0081 H         1 <0>         0.1310
     16 H3          1.2470   -1.7634   -0.0205 H         1 <0>         0.1354
     17 H4         -1.2417   -1.8376    0.0045 H         1 <0>         0.1311
     18 H5         -2.4570    0.9807    0.0317 H         1 <0>         0.1021
     19 H6          3.9522   -0.8203    0.8423 H         1 <0>         0.3831
     20 H7          3.8899    2.3237    0.8592 H         1 <0>         0.3804
@<TRIPOS>BOND
     1    1    6 ar
     2    1    2 ar
     3    1   14 1
     4    2    3 ar
     5    2   15 1
     6    3    4 ar
     7    3   13 1
     8    4    5 ar
     9    4   12 1
    10    5    6 ar
    11    5   16 1
    12    6    7 1
    13    7    8 2
    14    7   17 1
    15    8    9 1
    16    8   18 1
    17    9   10 2
    18    9   11 1
    19   12   19 1
    20   13   20 1
@<TRIPOS>MOLECULE
ZINC18185774
   31    33     0     0     0
SMALL
USER_CHARGES

@<TRIPOS>ATOM
      1 C1         -0.0169    1.3929    0.0097 C.ar      1 <0>        -0.0705
      2 C2          1.1675    2.0983    0.0022 C.ar      1 <0>        -0.1309
      3 C3          2.3803    1.4240   -0.0135 C.ar      1 <0>         0.1099
      4 C4          2.4067    0.0300   -0.0212 C.ar      1 <0>         0.0792
      5 C5          1.2240   -0.6832   -0.0138 C.ar      1 <0>        -0.0904
      6 C6          0.0021   -0.0041    0.0020 C.ar      1 <0>        -0.0661
      7 C7         -1.2642   -0.7606    0.0105 C.2       1 <0>         0.2069
      8 C8         -2.4374   -0.0724    0.0203 C.2       1 <0>        -0.3067
      9 C9         -3.6620   -0.7813    0.0286 C.2       1 <0>         0.4226
     10 O1         -4.7331   -0.1964    0.0371 O.2       1 <0>        -0.4521
     11 C10        -3.5935   -2.2524    0.0260 C.ar      1 <0>        -0.2661
     12 C11        -4.7554   -3.0344    0.0332 C.ar      1 <0>         0.2196
     13 C12        -4.6484   -4.4128    0.0300 C.ar      1 <0>        -0.2046
     14 C13        -3.3955   -5.0163    0.0203 C.ar      1 <0>         0.1928
     15 C14        -2.2415   -4.2483    0.0131 C.ar      1 <0>        -0.1829
     16 C15        -2.3286   -2.8648    0.0157 C.ar      1 <0>         0.1832
     17 O2         -1.2147   -2.1022    0.0028 O.3       1 <0>        -0.2181
     18 O3         -3.3016   -6.3705    0.0182 O.3       1 <0>        -0.4872
     19 O4         -5.9771   -2.4436    0.0436 O.3       1 <0>        -0.4722
     20 O5          3.5971   -0.6274   -0.0366 O.3       1 <0>        -0.4831
     21 O6          3.5446    2.1239   -0.0217 O.3       1 <0>        -0.4848
     22 H1         -0.9593    1.9201    0.0260 H         1 <0>         0.1451
     23 H2          1.1515    3.1781    0.0081 H         1 <0>         0.1468
     24 H3          1.2430   -1.7630   -0.0205 H         1 <0>         0.1466
     25 H4         -2.4342    1.0076    0.0222 H         1 <0>         0.1649
     26 H5         -5.5400   -5.0224    0.0355 H         1 <0>         0.1504
     27 H6         -1.2739   -4.7281    0.0059 H         1 <0>         0.1535
     28 H7         -3.2809   -6.7620   -0.8658 H         1 <0>         0.4041
     29 H8         -6.3379   -2.2705   -0.8367 H         1 <0>         0.4034
     30 H9          3.9502   -0.8223    0.8423 H         1 <0>         0.3919
     31 H10         3.8907    2.3221    0.8592 H         1 <0>         0.3948
@<TRIPOS>BOND
     1    1    6 ar
     2    1    2 ar
     3    1   22 1
     4    2    3 ar
     5    2   23 1
     6    3    4 ar
     7    3   21 1
     8    4    5 ar
     9    4   20 1
    10    5    6 ar
    11    5   24 1
    12    6    7 1
    13    7   17 1
    14    7    8 2
    15    8    9 1
    16    8   25 1
    17    9   10 2
    18    9   11 1
    19   11   16 ar
    20   11   12 ar
    21   12   13 ar
    22   12   19 1
    23   13   14 ar
    24   13   26 1
    25   14   15 ar
    26   14   18 1
    27   15   16 ar
    28   15   27 1
    29   16   17 1
    30   18   28 1
    31   19   29 1
    32   20   30 1
    33   21   31 1
@<TRIPOS>MOLECULE
ZINC00012342
   44    45     0     0     0
SMALL
USER_CHARGES

@<TRIPOS>ATOM
      1 C1         -0.0187    1.5258    0.0104 C.3       1 <0>        -0.1561
      2 C2          0.0021   -0.0041    0.0020 C.3       1 <0>        -0.0796
      3 H1          0.5293   -0.3651    0.8851 H         1 <0>         0.0729
      4 C3          0.7182   -0.4975   -1.2568 C.3       1 <0>        -0.0804
      5 C4          2.1652   -0.0794   -1.2080 C.ar      1 <0>        -0.0687
      6 C5          2.5498    1.1377   -1.7391 C.ar      1 <0>        -0.1081
      7 C6          3.8760    1.5258   -1.6968 C.ar      1 <0>        -0.1282
      8 C7          4.8231    0.6944   -1.1208 C.ar      1 <0>         0.0741
      9 C8          4.4359   -0.5305   -0.5858 C.ar      1 <0>         0.0830
     10 C9          3.1042   -0.9112   -0.6272 C.ar      1 <0>        -0.1289
     11 O1          5.3617   -1.3499   -0.0194 O.3       1 <0>        -0.4885
     12 O2          6.1281    1.0745   -1.0788 O.3       1 <0>        -0.4888
     13 C10        -1.4333   -0.5336    0.0129 C.3       1 <0>        -0.0796
     14 H2         -1.9605   -0.1726   -0.8702 H         1 <0>         0.0741
     15 C11        -1.4126   -2.0635    0.0045 C.3       1 <0>        -0.1556
     16 C12        -2.1494   -0.0402    1.2717 C.3       1 <0>        -0.0803
     17 C13        -3.5965   -0.4583    1.2229 C.ar      1 <0>        -0.0689
     18 C14        -4.5346    0.3711    0.6369 C.ar      1 <0>        -0.1099
     19 C15        -5.8633   -0.0079    0.5896 C.ar      1 <0>        -0.1274
     20 C16        -6.2571   -1.2216    1.1299 C.ar      1 <0>         0.0740
     21 C17        -5.3128   -2.0566    1.7193 C.ar      1 <0>         0.0821
     22 C18        -3.9819   -1.6728    1.7591 C.ar      1 <0>        -0.1267
     23 O3         -5.6945   -3.2487    2.2510 O.3       1 <0>        -0.4883
     24 O4         -7.5638   -1.5957    1.0847 O.3       1 <0>        -0.4888
     25 H3          1.0039    1.9031    0.0027 H         1 <0>         0.0591
     26 H4         -0.5459    1.8868   -0.8726 H         1 <0>         0.0559
     27 H5         -0.5289    1.8773    0.9072 H         1 <0>         0.0587
     28 H6          0.6556   -1.5845   -1.3079 H         1 <0>         0.0790
     29 H7          0.2444   -0.0644   -2.1377 H         1 <0>         0.0758
     30 H8          1.8126    1.7866   -2.1884 H         1 <0>         0.1297
     31 H9          4.1739    2.4768   -2.1131 H         1 <0>         0.1330
     32 H10         2.8006   -1.8597   -0.2093 H         1 <0>         0.1318
     33 H11         5.4917   -1.2014    0.9273 H         1 <0>         0.3874
     34 H12         6.3681    1.5701   -0.2838 H         1 <0>         0.3869
     35 H13        -0.9024   -2.4150   -0.8923 H         1 <0>         0.0589
     36 H14        -0.8854   -2.4246    0.8875 H         1 <0>         0.0553
     37 H15        -2.4352   -2.4408    0.0122 H         1 <0>         0.0575
     38 H16        -1.6756   -0.4733    2.1526 H         1 <0>         0.0744
     39 H17        -2.0868    1.0468    1.3228 H         1 <0>         0.0805
     40 H18        -4.2289    1.3173    0.2154 H         1 <0>         0.1294
     41 H19        -6.5943    0.6421    0.1319 H         1 <0>         0.1330
     42 H20        -3.2464   -2.3207    2.2126 H         1 <0>         0.1323
     43 H21        -5.6653   -3.9856    1.6255 H         1 <0>         0.3872
     44 H22        -7.8025   -2.0960    0.2923 H         1 <0>         0.3869
@<TRIPOS>BOND
     1    1    2 1
     2    1   25 1
     3    1   26 1
     4    1   27 1
     5    2    3 1
     6    2    4 1
     7    2   13 1
     8    4    5 1
     9    4   28 1
    10    4   29 1
    11    5   10 ar
    12    5    6 ar
    13    6    7 ar
    14    6   30 1
    15    7    8 ar
    16    7   31 1
    17    8    9 ar
    18    8   12 1
    19    9   10 ar
    20    9   11 1
    21   10   32 1
    22   11   33 1
    23   12   34 1
    24   13   14 1
    25   13   15 1
    26   13   16 1
    27   15   35 1
    28   15   36 1
    29   15   37 1
    30   16   17 1
    31   16   38 1
    32   16   39 1
    33   17   22 ar
    34   17   18 ar
    35   18   19 ar
    36   18   40 1
    37   19   20 ar
    38   19   41 1
    39   20   21 ar
    40   20   24 1
    41   21   22 ar
    42   21   23 1
    43   22   42 1
    44   23   43 1
    45   24   44 1
@<TRIPOS>MOLECULE
ZINC00056474
   44    45     0     0     0
SMALL
USER_CHARGES

@<TRIPOS>ATOM
      1 C1         -0.0187    1.5258    0.0104 C.3       1 <0>        -0.1537
      2 C2          0.0021   -0.0041    0.0020 C.3       1 <0>        -0.0795
      3 H1          0.5293   -0.3651    0.8851 H         1 <0>         0.0731
      4 C3          0.7182   -0.4975   -1.2568 C.3       1 <0>        -0.0826
      5 C4          2.1652   -0.0794   -1.2080 C.ar      1 <0>        -0.0685
      6 C5          2.5498    1.1377   -1.7391 C.ar      1 <0>        -0.1081
      7 C6          3.8760    1.5258   -1.6968 C.ar      1 <0>        -0.1282
      8 C7          4.8231    0.6944   -1.1208 C.ar      1 <0>         0.0741
      9 C8          4.4359   -0.5305   -0.5858 C.ar      1 <0>         0.0831
     10 C9          3.1042   -0.9112   -0.6272 C.ar      1 <0>        -0.1290
     11 O1          5.3617   -1.3499   -0.0194 O.3       1 <0>        -0.4884
     12 O2          6.1281    1.0745   -1.0788 O.3       1 <0>        -0.4888
     13 C10        -1.4333   -0.5336    0.0129 C.3       1 <0>        -0.0794
     14 H2         -1.9605   -0.1726   -0.8702 H         1 <0>         0.0731
     15 C11        -2.1494   -0.0402    1.2717 C.3       1 <0>        -0.1537
     16 C12        -1.4126   -2.0635    0.0045 C.3       1 <0>        -0.0827
     17 C13        -2.8221   -2.5844   -0.1087 C.ar      1 <0>        -0.0685
     18 C14        -3.5623   -2.8252    1.0339 C.ar      1 <0>        -0.1081
     19 C15        -4.8557   -3.3030    0.9354 C.ar      1 <0>        -0.1282
     20 C16        -5.4133   -3.5412   -0.3106 C.ar      1 <0>         0.0741
     21 C17        -4.6685   -3.2984   -1.4606 C.ar      1 <0>         0.0831
     22 C18        -3.3742   -2.8149   -1.3550 C.ar      1 <0>        -0.1289
     23 O3         -5.2113   -3.5306   -2.6858 O.3       1 <0>        -0.4884
     24 O4         -6.6854   -4.0117   -0.4092 O.3       1 <0>        -0.4888
     25 H3          1.0039    1.9031    0.0027 H         1 <0>         0.0588
     26 H4         -0.5459    1.8868   -0.8726 H         1 <0>         0.0549
     27 H5         -0.5289    1.8773    0.9072 H         1 <0>         0.0586
     28 H6          0.6556   -1.5845   -1.3079 H         1 <0>         0.0790
     29 H7          0.2444   -0.0644   -2.1377 H         1 <0>         0.0763
     30 H8          1.8126    1.7866   -2.1884 H         1 <0>         0.1296
     31 H9          4.1739    2.4768   -2.1131 H         1 <0>         0.1329
     32 H10         2.8006   -1.8597   -0.2093 H         1 <0>         0.1321
     33 H11         5.4917   -1.2014    0.9273 H         1 <0>         0.3874
     34 H12         6.3681    1.5701   -0.2838 H         1 <0>         0.3869
     35 H13        -3.1720   -0.4175    1.2794 H         1 <0>         0.0588
     36 H14        -1.6223   -0.4013    2.1547 H         1 <0>         0.0549
     37 H15        -2.1642    1.0497    1.2777 H         1 <0>         0.0586
     38 H16        -0.8263   -2.4142   -0.8449 H         1 <0>         0.0790
     39 H17        -0.9645   -2.4259    0.9297 H         1 <0>         0.0763
     40 H18        -3.1289   -2.6399    2.0056 H         1 <0>         0.1296
     41 H19        -5.4316   -3.4910    1.8295 H         1 <0>         0.1329
     42 H20        -2.7953   -2.6221   -2.2461 H         1 <0>         0.1322
     43 H21        -5.6728   -2.7688   -3.0623 H         1 <0>         0.3874
     44 H22        -7.3582   -3.3189   -0.4598 H         1 <0>         0.3869
@<TRIPOS>BOND
     1    1    2 1
     2    1   25 1
     3    1   26 1
     4    1   27 1
     5    2    3 1
     6    2    4 1
     7    2   13 1
     8    4    5 1
     9    4   28 1
    10    4   29 1
    11    5   10 ar
    12    5    6 ar
    13    6    7 ar
    14    6   30 1
    15    7    8 ar
    16    7   31 1
    17    8    9 ar
    18    8   12 1
    19    9   10 ar
    20    9   11 1
    21   10   32 1
    22   11   33 1
    23   12   34 1
    24   13   14 1
    25   13   15 1
    26   13   16 1
    27   15   35 1
    28   15   36 1
    29   15   37 1
    30   16   17 1
    31   16   38 1
    32   16   39 1
    33   17   22 ar
    34   17   18 ar
    35   18   19 ar
    36   18   40 1
    37   19   20 ar
    38   19   41 1
    39   20   21 ar
    40   20   24 1
    41   21   22 ar
    42   21   23 1
    43   22   42 1
    44   23   43 1
    45   24   44 1
@<TRIPOS>MOLECULE
ZINC04474613
   51    50     0     0     0
SMALL
USER_CHARGES

@<TRIPOS>ATOM
      1 C1          0.1443    2.0146   -0.3291 C.3       1 <0>        -0.1543
      2 C2          0.3725    0.5057   -0.2196 C.3       1 <0>        -0.1254
      3 C3          0.8073   -0.0443   -1.5795 C.3       1 <0>        -0.1222
      4 C4          1.0355   -1.5532   -1.4700 C.3       1 <0>        -0.1137
      5 C5          1.4703   -2.1033   -2.8299 C.3       1 <0>        -0.1025
      6 C6          1.6951   -3.5895   -2.7220 C.2       1 <0>        -0.1627
      7 C7          1.1050   -4.4039   -3.5614 C.2       1 <0>        -0.1487
      8 C8          0.3399   -3.8508   -4.7360 C.3       1 <0>        -0.0838
      9 C9          0.8450   -4.4832   -6.0073 C.2       1 <0>        -0.1591
     10 C10         0.0027   -5.0429   -6.8399 C.2       1 <0>        -0.1520
     11 C11        -1.4813   -4.9077   -6.6152 C.3       1 <0>        -0.1030
     12 C12        -2.1412   -4.3593   -7.8820 C.3       1 <0>        -0.1136
     13 C13        -3.6478   -4.2220   -7.6537 C.3       1 <0>        -0.1192
     14 C14        -4.3076   -3.6736   -8.9206 C.3       1 <0>        -0.1191
     15 C15        -5.8143   -3.5363   -8.6923 C.3       1 <0>        -0.1205
     16 C16        -6.4741   -2.9879   -9.9591 C.3       1 <0>        -0.0935
     17 C17        -7.9807   -2.8506   -9.7309 C.3       1 <0>        -0.1840
     18 C18        -8.6306   -2.3105  -10.9787 C.2       1 <0>         0.4872
     19 O1         -7.9517   -2.0587  -11.9596 O.co2     1 <0>        -0.7000
     20 O2         -9.8354   -2.1253  -11.0073 O.co2     1 <0>        -0.7101
     21 H1          1.0695    2.5006   -0.6386 H         1 <0>         0.0528
     22 H2         -0.6340    2.2118   -1.0664 H         1 <0>         0.0546
     23 H3         -0.1654    2.4065    0.6397 H         1 <0>         0.0526
     24 H4          1.1508    0.3086    0.5177 H         1 <0>         0.0593
     25 H5         -0.5527    0.0198    0.0900 H         1 <0>         0.0609
     26 H6          0.0290    0.1528   -2.3168 H         1 <0>         0.0626
     27 H7          1.7325    0.4416   -1.8890 H         1 <0>         0.0608
     28 H8          1.8138   -1.7504   -0.7327 H         1 <0>         0.0601
     29 H9          0.1103   -2.0392   -1.1604 H         1 <0>         0.0622
     30 H10         0.6920   -1.9061   -3.5672 H         1 <0>         0.0770
     31 H11         2.3955   -1.6173   -3.1394 H         1 <0>         0.0676
     32 H12         2.3428   -3.9832   -1.9526 H         1 <0>         0.1071
     33 H13         1.1667   -5.4717   -3.4116 H         1 <0>         0.1076
     34 H14        -0.7205   -4.0729   -4.6161 H         1 <0>         0.0849
     35 H15         0.4816   -2.7712   -4.7861 H         1 <0>         0.0828
     36 H16         1.9013   -4.4749   -6.2318 H         1 <0>         0.1065
     37 H17         0.3718   -5.6013   -7.6875 H         1 <0>         0.1083
     38 H18        -1.9036   -5.8845   -6.3793 H         1 <0>         0.0683
     39 H19        -1.6624   -4.2238   -5.7860 H         1 <0>         0.0747
     40 H20        -1.7189   -3.3825   -8.1179 H         1 <0>         0.0614
     41 H21        -1.9601   -5.0432   -8.7112 H         1 <0>         0.0613
     42 H22        -4.0700   -5.1988   -7.4178 H         1 <0>         0.0592
     43 H23        -3.8288   -3.5381   -6.8246 H         1 <0>         0.0588
     44 H24        -3.8854   -2.6968   -9.1564 H         1 <0>         0.0596
     45 H25        -4.1266   -4.3576   -9.7497 H         1 <0>         0.0597
     46 H26        -6.2365   -4.5131   -8.4564 H         1 <0>         0.0537
     47 H27        -5.9953   -2.8524   -7.8631 H         1 <0>         0.0537
     48 H28        -6.0518   -2.0111  -10.1950 H         1 <0>         0.0571
     49 H29        -6.2930   -3.6719  -10.7883 H         1 <0>         0.0570
     50 H30        -8.4030   -3.8275   -9.4950 H         1 <0>         0.0540
     51 H31        -8.1618   -2.1667   -8.9017 H         1 <0>         0.0540
@<TRIPOS>BOND
     1    1    2 1
     2    1   21 1
     3    1   22 1
     4    1   23 1
     5    2    3 1
     6    2   24 1
     7    2   25 1
     8    3    4 1
     9    3   26 1
    10    3   27 1
    11    4    5 1
    12    4   28 1
    13    4   29 1
    14    5    6 1
    15    5   30 1
    16    5   31 1
    17    6    7 2
    18    6   32 1
    19    7    8 1
    20    7   33 1
    21    8    9 1
    22    8   34 1
    23    8   35 1
    24    9   10 2
    25    9   36 1
    26   10   11 1
    27   10   37 1
    28   11   12 1
    29   11   38 1
    30   11   39 1
    31   12   13 1
    32   12   40 1
    33   12   41 1
    34   13   14 1
    35   13   42 1
    36   13   43 1
    37   14   15 1
    38   14   44 1
    39   14   45 1
    40   15   16 1
    41   15   46 1
    42   15   47 1
    43   16   17 1
    44   16   48 1
    45   16   49 1
    46   17   18 1
    47   17   50 1
    48   17   51 1
    49   18   19 2
    50   18   20 1
@<TRIPOS>MOLECULE
ZINC13507842
   47    48     0     0     0
SMALL
USER_CHARGES
4-[(2S,3R)-4-(4-hydroxy-3-methoxy-phenyl)-2,3-dimethyl-butyl]benzene-1,2-diol
@<TRIPOS>ATOM
      1 C1          3.9085   -1.3936   -0.8017 C.3       1 <0>        -0.1560
      2 C2          4.1888   -0.0520   -1.4816 C.3       1 <0>        -0.0806
      3 H1          4.9847    0.4668   -0.9473 H         1 <0>         0.0740
      4 C3          4.6200   -0.2942   -2.9294 C.3       1 <0>        -0.0795
      5 C4          5.9342   -1.0315   -2.9455 C.ar      1 <0>        -0.0688
      6 C5          5.9494   -2.4139   -2.9526 C.ar      1 <0>        -0.1083
      7 C6          7.1524   -3.0949   -2.9673 C.ar      1 <0>        -0.1282
      8 C7          8.3464   -2.3919   -2.9754 C.ar      1 <0>         0.0741
      9 C8          8.3311   -1.0005   -2.9687 C.ar      1 <0>         0.0831
     10 C9          7.1218   -0.3240   -2.9588 C.ar      1 <0>        -0.1289
     11 O1          9.5003   -0.3060   -2.9766 O.3       1 <0>        -0.4885
     12 O2          9.5307   -3.0603   -2.9904 O.3       1 <0>        -0.4888
     13 C10         2.9205    0.8037   -1.4635 C.3       1 <0>        -0.0783
     14 H2          2.1246    0.2849   -1.9977 H         1 <0>         0.0721
     15 C11         3.2008    2.1454   -2.1434 C.3       1 <0>        -0.1560
     16 C12         2.4893    1.0459   -0.0156 C.3       1 <0>        -0.0815
     17 C13         1.1751    1.7833    0.0004 C.ar      1 <0>        -0.0447
     18 C14         1.1599    3.1657    0.0080 C.ar      1 <0>        -0.1375
     19 C15        -0.0431    3.8467    0.0237 C.ar      1 <0>        -0.1042
     20 C16        -1.2371    3.1437    0.0313 C.ar      1 <0>         0.0675
     21 C17        -1.2218    1.7523    0.0174 C.ar      1 <0>         0.1052
     22 C18        -0.0126    1.0758    0.0080 C.ar      1 <0>        -0.1934
     23 O3         -2.3911    1.0578    0.0191 O.3       1 <0>        -0.3085
     24 C19        -2.2988   -0.3681    0.0109 C.3       1 <0>         0.0250
     25 O4         -2.4214    3.8121    0.0463 O.3       1 <0>        -0.4871
     26 H3          3.1125   -1.9124   -1.3359 H         1 <0>         0.0546
     27 H4          4.8120   -2.0032   -0.8145 H         1 <0>         0.0597
     28 H5          3.6012   -1.2211    0.2298 H         1 <0>         0.0585
     29 H6          3.8629   -0.8900   -3.4392 H         1 <0>         0.0750
     30 H7          4.7338    0.6624   -3.4395 H         1 <0>         0.0791
     31 H8          5.0195   -2.9630   -2.9463 H         1 <0>         0.1294
     32 H9          7.1615   -4.1749   -2.9729 H         1 <0>         0.1329
     33 H10         7.1071    0.7559   -2.9573 H         1 <0>         0.1321
     34 H11         9.8301   -0.1010   -3.8622 H         1 <0>         0.3875
     35 H12         9.8646   -3.2492   -3.8780 H         1 <0>         0.3869
     36 H13         3.5081    1.9728   -3.1749 H         1 <0>         0.0577
     37 H14         2.2973    2.7550   -2.1305 H         1 <0>         0.0605
     38 H15         3.9968    2.6642   -1.6092 H         1 <0>         0.0557
     39 H16         3.2464    1.6417    0.4941 H         1 <0>         0.0762
     40 H17         2.3755    0.0894    0.4944 H         1 <0>         0.0778
     41 H18         2.0898    3.7148    0.0021 H         1 <0>         0.1284
     42 H19        -0.0522    4.9266    0.0296 H         1 <0>         0.1355
     43 H20         0.0021   -0.0041    0.0020 H         1 <0>         0.1312
     44 H21        -1.7668   -0.6926   -0.8834 H         1 <0>         0.0553
     45 H22        -1.7584   -0.7024    0.8965 H         1 <0>         0.0560
     46 H23        -3.3009   -0.7971    0.0132 H         1 <0>         0.1018
     47 H24        -2.7723    4.0102   -0.8328 H         1 <0>         0.3858
@<TRIPOS>BOND
     1    1    2 1
     2    1   26 1
     3    1   27 1
     4    1   28 1
     5    2    3 1
     6    2    4 1
     7    2   13 1
     8    4    5 1
     9    4   29 1
    10    4   30 1
    11    5   10 ar
    12    5    6 ar
    13    6    7 ar
    14    6   31 1
    15    7    8 ar
    16    7   32 1
    17    8    9 ar
    18    8   12 1
    19    9   10 ar
    20    9   11 1
    21   10   33 1
    22   11   34 1
    23   12   35 1
    24   13   14 1
    25   13   15 1
    26   13   16 1
    27   15   36 1
    28   15   37 1
    29   15   38 1
    30   16   17 1
    31   16   39 1
    32   16   40 1
    33   17   22 ar
    34   17   18 ar
    35   18   19 ar
    36   18   41 1
    37   19   20 ar
    38   19   42 1
    39   20   21 ar
    40   20   25 1
    41   21   22 ar
    42   21   23 1
    43   22   43 1
    44   23   24 1
    45   24   44 1
    46   24   45 1
    47   24   46 1
    48   25   47 1
@<TRIPOS>MOLECULE
ZINC00056472
   44    45     0     0     0
SMALL
USER_CHARGES

@<TRIPOS>ATOM
      1 C1         -0.0187    1.5258    0.0104 C.3       1 <0>        -0.1531
      2 C2          0.0021   -0.0041    0.0020 C.3       1 <0>        -0.0796
      3 H1          0.5293   -0.3651    0.8851 H         1 <0>         0.0740
      4 C3         -1.4333   -0.5336    0.0129 C.3       1 <0>        -0.0824
      5 C4         -2.1001   -0.1511    1.3091 C.ar      1 <0>        -0.0689
      6 C5         -2.0198   -0.9949    2.4013 C.ar      1 <0>        -0.1099
      7 C6         -2.6297   -0.6485    3.5925 C.ar      1 <0>        -0.1273
      8 C7         -3.3231    0.5469    3.6939 C.ar      1 <0>         0.0740
      9 C8         -3.4036    1.3964    2.5947 C.ar      1 <0>         0.0820
     10 C9         -2.7858    1.0454    1.4050 C.ar      1 <0>        -0.1267
     11 O1         -4.0829    2.5707    2.6892 O.3       1 <0>        -0.4883
     12 O2         -3.9241    0.8890    4.8649 O.3       1 <0>        -0.4888
     13 C10         0.7182   -0.4975   -1.2568 C.3       1 <0>        -0.0796
     14 H2          0.1910   -0.1364   -2.1398 H         1 <0>         0.0740
     15 C11         2.1536    0.0321   -1.2676 C.3       1 <0>        -0.1531
     16 C12         0.7390   -2.0273   -1.2652 C.3       1 <0>        -0.0824
     17 C13         1.3339   -2.5145   -2.5613 C.ar      1 <0>        -0.0689
     18 C14         0.5162   -2.7441   -3.6522 C.ar      1 <0>        -0.1099
     19 C15         1.0571   -3.1910   -4.8433 C.ar      1 <0>        -0.1273
     20 C16         2.4216   -3.4095   -4.9459 C.ar      1 <0>         0.0740
     21 C17         3.2446   -3.1780   -3.8479 C.ar      1 <0>         0.0820
     22 C18         2.6966   -2.7254   -2.6584 C.ar      1 <0>        -0.1267
     23 O3          4.5844   -3.3909   -3.9436 O.3       1 <0>        -0.4884
     24 O4          2.9552   -3.8496   -6.1168 O.3       1 <0>        -0.4888
     25 H3          1.0039    1.9031    0.0027 H         1 <0>         0.0586
     26 H4         -0.5459    1.8868   -0.8726 H         1 <0>         0.0549
     27 H5         -0.5289    1.8773    0.9072 H         1 <0>         0.0570
     28 H6         -1.9862   -0.1019   -0.8214 H         1 <0>         0.0754
     29 H7         -1.4207   -1.6194   -0.0826 H         1 <0>         0.0803
     30 H8         -1.4796   -1.9269    2.3236 H         1 <0>         0.1296
     31 H9         -2.5661   -1.3097    4.4441 H         1 <0>         0.1331
     32 H10        -2.8436    1.7047    0.5515 H         1 <0>         0.1323
     33 H11        -3.5398    3.3172    2.9769 H         1 <0>         0.3871
     34 H12        -3.3584    1.3947    5.4643 H         1 <0>         0.3869
     35 H13         2.1388    1.1220   -1.2617 H         1 <0>         0.0587
     36 H14         2.6808   -0.3290   -0.3846 H         1 <0>         0.0549
     37 H15         2.6638   -0.3194   -2.1644 H         1 <0>         0.0570
     38 H16         1.3413   -2.3871   -0.4310 H         1 <0>         0.0754
     39 H17        -0.2789   -2.4050   -1.1679 H         1 <0>         0.0803
     40 H18        -0.5474   -2.5742   -3.5736 H         1 <0>         0.1296
     41 H19         0.4161   -3.3703   -5.6939 H         1 <0>         0.1331
     42 H20         3.3337   -2.5414   -1.8059 H         1 <0>         0.1323
     43 H21         5.0860   -2.6165   -4.2331 H         1 <0>         0.3871
     44 H22         3.2237   -3.1410   -6.7176 H         1 <0>         0.3869
@<TRIPOS>BOND
     1    1    2 1
     2    1   25 1
     3    1   26 1
     4    1   27 1
     5    2    3 1
     6    2    4 1
     7    2   13 1
     8    4    5 1
     9    4   28 1
    10    4   29 1
    11    5   10 ar
    12    5    6 ar
    13    6    7 ar
    14    6   30 1
    15    7    8 ar
    16    7   31 1
    17    8    9 ar
    18    8   12 1
    19    9   10 ar
    20    9   11 1
    21   10   32 1
    22   11   33 1
    23   12   34 1
    24   13   14 1
    25   13   15 1
    26   13   16 1
    27   15   35 1
    28   15   36 1
    29   15   37 1
    30   16   17 1
    31   16   38 1
    32   16   39 1
    33   17   22 ar
    34   17   18 ar
    35   18   19 ar
    36   18   40 1
    37   19   20 ar
    38   19   41 1
    39   20   21 ar
    40   20   24 1
    41   21   22 ar
    42   21   23 1
    43   22   42 1
    44   23   43 1
    45   24   44 1
@<TRIPOS>MOLECULE
ZINC49757222
   58    57     0     0     0
SMALL
USER_CHARGES

@<TRIPOS>ATOM
      1 C1         -1.1397    1.2836   -0.4782 C.3       1 <0>        -0.1538
      2 C2         -0.8688   -0.2185   -0.3713 C.3       1 <0>        -0.1265
      3 C3         -0.1322   -0.6943   -1.6251 C.3       1 <0>        -0.1209
      4 C4          0.1388   -2.1963   -1.5181 C.3       1 <0>        -0.1216
      5 C5          0.8754   -2.6722   -2.7719 C.3       1 <0>        -0.1199
      6 C6          1.1463   -4.1742   -2.6650 C.3       1 <0>        -0.1213
      7 C7          1.8829   -4.6501   -3.9187 C.3       1 <0>        -0.1130
      8 C8          2.1539   -6.1521   -3.8118 C.3       1 <0>        -0.1021
      9 C9          2.8794   -6.6208   -5.0467 C.2       1 <0>        -0.1635
     10 C10         3.9944   -7.2990   -4.9336 C.2       1 <0>        -0.1561
     11 C11         4.4631   -7.7574   -3.5766 C.3       1 <0>        -0.1026
     12 C12         4.7180   -9.2657   -3.6078 C.3       1 <0>        -0.1136
     13 C13         5.1939   -9.7310   -2.2301 C.3       1 <0>        -0.1202
     14 C14         5.4488  -11.2393   -2.2612 C.3       1 <0>        -0.1207
     15 C15         5.9247  -11.7047   -0.8836 C.3       1 <0>        -0.1180
     16 C16         6.1795  -13.2130   -0.9147 C.3       1 <0>        -0.1218
     17 C17         6.6554  -13.6783    0.4629 C.3       1 <0>        -0.1175
     18 C18         6.9103  -15.1866    0.4318 C.3       1 <0>         0.0812
     19 O1          7.3548  -15.6213    1.7185 O.3       1 <0>        -0.7826
     20 S1          7.6401  -17.1139    1.8033 S.o2      1 <0>         2.7761
     21 O2          7.7233  -17.4485    3.2165 O.2       1 <0>        -1.0717
     22 O3          6.5331  -17.7934    1.1483 O.2       1 <0>        -1.0992
     23 O4          8.9014  -17.3426    1.1156 O.3       1 <0>        -1.0947
     24 H1         -0.1940    1.8178   -0.5688 H         1 <0>         0.0531
     25 H2         -1.7538    1.4803   -1.3570 H         1 <0>         0.0528
     26 H3         -1.6645    1.6226    0.4150 H         1 <0>         0.0530
     27 H4         -0.2547   -0.4152    0.5075 H         1 <0>         0.0607
     28 H5         -1.8145   -0.7527   -0.2808 H         1 <0>         0.0603
     29 H6         -0.7462   -0.4976   -2.5039 H         1 <0>         0.0600
     30 H7          0.8136   -0.1601   -1.7156 H         1 <0>         0.0603
     31 H8          0.7528   -2.3931   -0.6393 H         1 <0>         0.0612
     32 H9         -0.8070   -2.7306   -1.4276 H         1 <0>         0.0607
     33 H10         0.2613   -2.4754   -3.6507 H         1 <0>         0.0599
     34 H11         1.8211   -2.1379   -2.8625 H         1 <0>         0.0604
     35 H12         1.7604   -4.3710   -1.7862 H         1 <0>         0.0616
     36 H13         0.2006   -4.7085   -2.5744 H         1 <0>         0.0612
     37 H14         1.2689   -4.4533   -4.7976 H         1 <0>         0.0601
     38 H15         2.8287   -4.1158   -4.0093 H         1 <0>         0.0611
     39 H16         2.7679   -6.3489   -2.9330 H         1 <0>         0.0768
     40 H17         1.2081   -6.6864   -3.7213 H         1 <0>         0.0676
     41 H18         2.4800   -6.3976   -6.0250 H         1 <0>         0.1060
     42 H19         4.5778   -7.5297   -5.8127 H         1 <0>         0.1069
     43 H20         5.3856   -7.2383   -3.3164 H         1 <0>         0.0678
     44 H21         3.6981   -7.5335   -2.8332 H         1 <0>         0.0756
     45 H22         3.7956   -9.7848   -3.8680 H         1 <0>         0.0615
     46 H23         5.4831   -9.4896   -4.3512 H         1 <0>         0.0612
     47 H24         6.1164   -9.2120   -1.9699 H         1 <0>         0.0609
     48 H25         4.4289   -9.5071   -1.4867 H         1 <0>         0.0606
     49 H26         4.5263  -11.7584   -2.5214 H         1 <0>         0.0615
     50 H27         6.2138  -11.4633   -3.0047 H         1 <0>         0.0614
     51 H28         6.8471  -11.1856   -0.6234 H         1 <0>         0.0622
     52 H29         5.1596  -11.4808   -0.1402 H         1 <0>         0.0622
     53 H30         5.2571  -13.7321   -1.1749 H         1 <0>         0.0661
     54 H31         6.9446  -13.4369   -1.6582 H         1 <0>         0.0655
     55 H32         7.5779  -13.1593    0.7231 H         1 <0>         0.0716
     56 H33         5.8904  -13.4544    1.2063 H         1 <0>         0.0721
     57 H34         5.9878  -15.7057    0.1716 H         1 <0>         0.0811
     58 H35         7.6753  -15.4106   -0.3116 H         1 <0>         0.0690
@<TRIPOS>BOND
     1    1    2 1
     2    1   24 1
     3    1   25 1
     4    1   26 1
     5    2    3 1
     6    2   27 1
     7    2   28 1
     8    3    4 1
     9    3   29 1
    10    3   30 1
    11    4    5 1
    12    4   31 1
    13    4   32 1
    14    5    6 1
    15    5   33 1
    16    5   34 1
    17    6    7 1
    18    6   35 1
    19    6   36 1
    20    7    8 1
    21    7   37 1
    22    7   38 1
    23    8    9 1
    24    8   39 1
    25    8   40 1
    26    9   10 2
    27    9   41 1
    28   10   11 1
    29   10   42 1
    30   11   12 1
    31   11   43 1
    32   11   44 1
    33   12   13 1
    34   12   45 1
    35   12   46 1
    36   13   14 1
    37   13   47 1
    38   13   48 1
    39   14   15 1
    40   14   49 1
    41   14   50 1
    42   15   16 1
    43   15   51 1
    44   15   52 1
    45   16   17 1
    46   16   53 1
    47   16   54 1
    48   17   18 1
    49   17   55 1
    50   17   56 1
    51   18   19 1
    52   18   57 1
    53   18   58 1
    54   19   20 1
    55   20   21 2
    56   20   22 2
    57   20   23 1
