@<TRIPOS>MOLECULE
ZINC36178975
   48    47     0     0     0
SMALL
USER_CHARGES

@<TRIPOS>ATOM
      1 C1         -0.0187    1.5258    0.0104 C.3       1 <0>        -0.1537
      2 C2          0.0021   -0.0041    0.0020 C.3       1 <0>        -0.1261
      3 C3          0.7421   -0.5109    1.2415 C.3       1 <0>        -0.1213
      4 C4          0.7628   -2.0407    1.2331 C.3       1 <0>        -0.1210
      5 C5          1.5028   -2.5476    2.4727 C.3       1 <0>        -0.1207
      6 C6          1.5236   -4.0774    2.4642 C.3       1 <0>        -0.1202
      7 C7          2.2636   -4.5842    3.7038 C.3       1 <0>        -0.1205
      8 C8          2.2843   -6.1141    3.6954 C.3       1 <0>        -0.1197
      9 C9          3.0243   -6.6209    4.9349 C.3       1 <0>        -0.1204
     10 C10         3.0450   -8.1508    4.9265 C.3       1 <0>        -0.1186
     11 C11         3.7850   -8.6576    6.1660 C.3       1 <0>        -0.1217
     12 C12         3.8058  -10.1874    6.1576 C.3       1 <0>        -0.1153
     13 C13         4.5458  -10.6943    7.3971 C.3       1 <0>        -0.0941
     14 C14         4.5665  -12.2241    7.3887 C.3       1 <0>        -0.7284
     15 P1          5.4482  -12.8280    8.8656 P.3       1 <0>         2.2566
     16 O1          6.8557  -12.1931    8.9206 O.2       1 <0>        -1.0981
     17 O2          4.6569  -12.4369   10.1336 O.3       1 <0>        -1.0989
     18 O3          5.5849  -14.4305    8.7912 O.3       1 <0>        -0.9058
     19 H1          1.0039    1.9031    0.0027 H         1 <0>         0.0532
     20 H2         -0.5459    1.8868   -0.8726 H         1 <0>         0.0524
     21 H3         -0.5289    1.8773    0.9072 H         1 <0>         0.0532
     22 H4         -1.0205   -0.3814    0.0098 H         1 <0>         0.0600
     23 H5          0.5123   -0.3556   -0.8948 H         1 <0>         0.0600
     24 H6          1.7647   -0.1336    1.2338 H         1 <0>         0.0606
     25 H7          0.2319   -0.1594    2.1383 H         1 <0>         0.0606
     26 H8         -0.2598   -2.4180    1.2409 H         1 <0>         0.0601
     27 H9          1.2730   -2.3923    0.3363 H         1 <0>         0.0601
     28 H10         2.5254   -2.1703    2.4649 H         1 <0>         0.0605
     29 H11         0.9926   -2.1961    3.3695 H         1 <0>         0.0605
     30 H12         0.5010   -4.4547    2.4720 H         1 <0>         0.0597
     31 H13         2.0337   -4.4289    1.5675 H         1 <0>         0.0597
     32 H14         3.2861   -4.2070    3.6960 H         1 <0>         0.0606
     33 H15         1.7534   -4.2327    4.6006 H         1 <0>         0.0606
     34 H16         1.2617   -6.4914    3.7031 H         1 <0>         0.0592
     35 H17         2.7945   -6.4656    2.7986 H         1 <0>         0.0591
     36 H18         4.0469   -6.2436    4.9271 H         1 <0>         0.0611
     37 H19         2.5141   -6.2694    5.8317 H         1 <0>         0.0611
     38 H20         2.0224   -8.5280    4.9342 H         1 <0>         0.0577
     39 H21         3.5552   -8.5023    4.0297 H         1 <0>         0.0577
     40 H22         4.8076   -8.2803    6.1583 H         1 <0>         0.0626
     41 H23         3.2748   -8.3061    7.0628 H         1 <0>         0.0625
     42 H24         2.7832  -10.5647    6.1653 H         1 <0>         0.0515
     43 H25         4.3160  -10.5389    5.2608 H         1 <0>         0.0514
     44 H26         5.5684  -10.3170    7.3894 H         1 <0>         0.0711
     45 H27         4.0356  -10.3427    8.2939 H         1 <0>         0.0682
     46 H28         3.5439  -12.6014    7.3964 H         1 <0>         0.0666
     47 H29         5.0767  -12.5756    6.4919 H         1 <0>         0.0650
     48 H30         6.0449  -14.8215    9.5466 H         1 <0>         0.4111
@<TRIPOS>BOND
     1    1    2 1
     2    1   19 1
     3    1   20 1
     4    1   21 1
     5    2    3 1
     6    2   22 1
     7    2   23 1
     8    3    4 1
     9    3   24 1
    10    3   25 1
    11    4    5 1
    12    4   26 1
    13    4   27 1
    14    5    6 1
    15    5   28 1
    16    5   29 1
    17    6    7 1
    18    6   30 1
    19    6   31 1
    20    7    8 1
    21    7   32 1
    22    7   33 1
    23    8    9 1
    24    8   34 1
    25    8   35 1
    26    9   10 1
    27    9   36 1
    28    9   37 1
    29   10   11 1
    30   10   38 1
    31   10   39 1
    32   11   12 1
    33   11   40 1
    34   11   41 1
    35   12   13 1
    36   12   42 1
    37   12   43 1
    38   13   14 1
    39   13   44 1
    40   13   45 1
    41   14   15 1
    42   14   46 1
    43   14   47 1
    44   15   16 2
    45   15   17 1
    46   15   18 1
    47   18   48 1
@<TRIPOS>MOLECULE
ZINC03819448
   54    56     0     0     0
SMALL
USER_CHARGES

@<TRIPOS>ATOM
      1 C1         -1.2337    1.1680    0.0633 C.3       1 <0>        -0.0742
      2 C2         -0.5211   -0.1593    0.0244 C.2       1 <0>         0.1303
      3 C3         -0.0328   -0.7997   -1.1302 C.2       1 <0>        -0.0055
      4 C4          0.5446   -1.9750   -0.7441 C.2       1 <0>         0.1285
      5 O1          0.4239   -2.0684    0.5955 O.3       1 <0>        -0.0656
      6 N1         -0.2462   -0.9089    1.0547 N.2       1 <0>        -0.3089
      7 C5          1.1851   -2.9652   -1.6331 C.ar      1 <0>        -0.0534
      8 C6          1.2869   -2.7154   -3.0032 C.ar      1 <0>        -0.0898
      9 C7          1.8869   -3.6444   -3.8276 C.ar      1 <0>        -0.1009
     10 C8          2.3871   -4.8216   -3.2999 C.ar      1 <0>        -0.0329
     11 C9          2.2896   -5.0756   -1.9433 C.ar      1 <0>        -0.1020
     12 C10         1.6969   -4.1529   -1.1065 C.ar      1 <0>        -0.0765
     13 C11         3.0408   -5.8320   -4.2071 C.3       1 <0>        -0.0567
     14 S1          4.8170   -5.4822   -4.3214 S.3       1 <0>        -0.2821
     15 C12         5.4471   -6.7692   -5.4336 C.3       1 <0>        -0.0415
     16 C13         6.9551   -6.5892   -5.6195 C.3       1 <0>        -0.1688
     17 C14         7.4785   -7.6585   -6.5435 C.2       1 <0>         0.4986
     18 O2          6.7162   -8.4877   -7.0100 O.co2     1 <0>        -0.6966
     19 O3          8.6644   -7.6943   -6.8244 O.co2     1 <0>        -0.6964
     20 N2         -0.1234   -0.3157   -2.4450 N.am      1 <0>        -0.6245
     21 C15         0.2744    0.9401   -2.7298 C.2       1 <0>         0.6517
     22 O4          0.6135    1.6879   -1.8339 O.2       1 <0>        -0.5442
     23 O5          0.2962    1.3662   -4.0071 O.3       1 <0>        -0.3511
     24 C16         0.7288    2.7088   -4.2358 C.3       1 <0>         0.1451
     25 H1          1.4446    2.9961   -3.4656 H         1 <0>         0.1055
     26 C17        -0.4775    3.6486   -4.1870 C.3       1 <0>        -0.1657
     27 C18         1.3836    2.8018   -5.5899 C.ar      1 <0>        -0.0859
     28 C19         1.0503    1.8991   -6.5824 C.ar      1 <0>        -0.0836
     29 C20         1.6507    1.9843   -7.8245 C.ar      1 <0>        -0.1129
     30 C21         2.5849    2.9722   -8.0750 C.ar      1 <0>        -0.1015
     31 C22         2.9189    3.8752   -7.0837 C.ar      1 <0>        -0.1083
     32 C23         2.3140    3.7940   -5.8418 C.ar      1 <0>        -0.0261
     33 Cl1         2.7282    4.9320   -4.5980 Cl        1 <0>        -0.0628
     34 H2         -0.5241    1.9538    0.3223 H         1 <0>         0.0989
     35 H3         -1.6662    1.3770   -0.9151 H         1 <0>         0.0773
     36 H4         -2.0261    1.1332    0.8110 H         1 <0>         0.0799
     37 H5          0.8966   -1.7971   -3.4164 H         1 <0>         0.1307
     38 H6          1.9660   -3.4526   -4.8875 H         1 <0>         0.1362
     39 H7          2.6822   -5.9965   -1.5380 H         1 <0>         0.1363
     40 H8          1.6255   -4.3504   -0.0471 H         1 <0>         0.1363
     41 H9          2.8930   -6.8331   -3.8021 H         1 <0>         0.0926
     42 H10         2.5940   -5.7720   -5.1995 H         1 <0>         0.0923
     43 H11         5.2488   -7.7507   -5.0028 H         1 <0>         0.0803
     44 H12         4.9498   -6.6895   -6.4003 H         1 <0>         0.0802
     45 H13         7.1534   -5.6078   -6.0503 H         1 <0>         0.0669
     46 H14         7.4524   -6.6689   -4.6529 H         1 <0>         0.0671
     47 H15        -0.4724   -0.8852   -3.1485 H         1 <0>         0.4190
     48 H16        -1.1933    3.3613   -4.9571 H         1 <0>         0.0691
     49 H17        -0.9511    3.5814   -3.2075 H         1 <0>         0.0707
     50 H18        -0.1475    4.6727   -4.3614 H         1 <0>         0.0797
     51 H19         0.3209    1.1270   -6.3872 H         1 <0>         0.1390
     52 H20         1.3902    1.2786   -8.5995 H         1 <0>         0.1336
     53 H21         3.0540    3.0381   -9.0456 H         1 <0>         0.1352
     54 H22         3.6489    4.6467   -7.2794 H         1 <0>         0.1373
@<TRIPOS>BOND
     1    1    2 1
     2    1   34 1
     3    1   35 1
     4    1   36 1
     5    2    6 2
     6    2    3 1
     7    3    4 2
     8    3   20 1
     9    4    5 1
    10    4    7 1
    11    5    6 1
    12    7   12 ar
    13    7    8 ar
    14    8    9 ar
    15    8   37 1
    16    9   10 ar
    17    9   38 1
    18   10   11 ar
    19   10   13 1
    20   11   12 ar
    21   11   39 1
    22   12   40 1
    23   13   14 1
    24   13   41 1
    25   13   42 1
    26   14   15 1
    27   15   16 1
    28   15   43 1
    29   15   44 1
    30   16   17 1
    31   16   45 1
    32   16   46 1
    33   17   18 2
    34   17   19 1
    35   20   21 am
    36   20   47 1
    37   21   22 2
    38   21   23 1
    39   23   24 1
    40   24   25 1
    41   24   26 1
    42   24   27 1
    43   26   48 1
    44   26   49 1
    45   26   50 1
    46   27   32 ar
    47   27   28 ar
    48   28   29 ar
    49   28   51 1
    50   29   30 ar
    51   29   52 1
    52   30   31 ar
    53   30   53 1
    54   31   32 ar
    55   31   54 1
    56   32   33 1
@<TRIPOS>MOLECULE
ZINC13648514
   54    56     0     0     0
SMALL
USER_CHARGES

@<TRIPOS>ATOM
      1 C1         -1.2337    1.1680    0.0633 C.3       1 <0>        -0.0745
      2 C2         -0.5211   -0.1593    0.0244 C.2       1 <0>         0.1304
      3 C3         -0.0328   -0.7997   -1.1302 C.2       1 <0>        -0.0054
      4 C4          0.5446   -1.9750   -0.7441 C.2       1 <0>         0.1284
      5 O1          0.4239   -2.0684    0.5956 O.3       1 <0>        -0.0656
      6 N1         -0.2462   -0.9089    1.0547 N.2       1 <0>        -0.3088
      7 C5          1.1851   -2.9652   -1.6331 C.ar      1 <0>        -0.0533
      8 C6          1.2869   -2.7154   -3.0031 C.ar      1 <0>        -0.0899
      9 C7          1.8868   -3.6445   -3.8276 C.ar      1 <0>        -0.1011
     10 C8          2.3870   -4.8217   -3.2999 C.ar      1 <0>        -0.0329
     11 C9          2.2895   -5.0756   -1.9433 C.ar      1 <0>        -0.1020
     12 C10         1.6968   -4.1530   -1.1065 C.ar      1 <0>        -0.0765
     13 C11         3.0406   -5.8321   -4.2071 C.3       1 <0>        -0.0567
     14 S1          4.8169   -5.4823   -4.3214 S.3       1 <0>        -0.2824
     15 C12         5.4470   -6.7694   -5.4336 C.3       1 <0>        -0.0413
     16 C13         6.9549   -6.5893   -5.6195 C.3       1 <0>        -0.1689
     17 C14         7.4784   -7.6586   -6.5435 C.2       1 <0>         0.4986
     18 O2          6.7160   -8.4878   -7.0101 O.co2     1 <0>        -0.6968
     19 O3          8.6642   -7.6945   -6.8244 O.co2     1 <0>        -0.6963
     20 N2         -0.1235   -0.3158   -2.4450 N.am      1 <0>        -0.6244
     21 C15         0.2744    0.9401   -2.7298 C.2       1 <0>         0.6517
     22 O4          0.6134    1.6879   -1.8339 O.2       1 <0>        -0.5441
     23 O5          0.2961    1.3661   -4.0071 O.3       1 <0>        -0.3513
     24 C16         0.7287    2.7088   -4.2358 C.3       1 <0>         0.1457
     25 H1          0.4751    3.3242   -3.3727 H         1 <0>         0.1052
     26 C17         2.2438    2.7273   -4.4479 C.3       1 <0>        -0.1680
     27 C18         0.0432    3.2555   -5.4615 C.ar      1 <0>        -0.0839
     28 C19        -0.4204    2.3927   -6.4370 C.ar      1 <0>        -0.0834
     29 C20        -1.0492    2.8940   -7.5612 C.ar      1 <0>        -0.1138
     30 C21        -1.2149    4.2585   -7.7107 C.ar      1 <0>        -0.1033
     31 C22        -0.7520    5.1220   -6.7361 C.ar      1 <0>        -0.1091
     32 C23        -0.1275    4.6204   -5.6078 C.ar      1 <0>        -0.0264
     33 Cl1         0.4485    5.7041   -4.3799 Cl        1 <0>        -0.0619
     34 H2         -0.5241    1.9538    0.3222 H         1 <0>         0.0990
     35 H3         -1.6662    1.3770   -0.9151 H         1 <0>         0.0772
     36 H4         -2.0261    1.1332    0.8110 H         1 <0>         0.0800
     37 H5          0.8965   -1.7971   -3.4164 H         1 <0>         0.1309
     38 H6          1.9659   -3.4527   -4.8875 H         1 <0>         0.1363
     39 H7          2.6821   -5.9965   -1.5380 H         1 <0>         0.1362
     40 H8          1.6254   -4.3504   -0.0471 H         1 <0>         0.1363
     41 H9          2.8928   -6.8332   -3.8021 H         1 <0>         0.0926
     42 H10         2.5939   -5.7720   -5.1995 H         1 <0>         0.0923
     43 H11         5.2486   -7.7508   -5.0028 H         1 <0>         0.0804
     44 H12         4.9496   -6.6896   -6.4003 H         1 <0>         0.0802
     45 H13         7.1533   -5.6079   -6.0503 H         1 <0>         0.0670
     46 H14         7.4523   -6.6691   -4.6529 H         1 <0>         0.0672
     47 H15        -0.4724   -0.8852   -3.1484 H         1 <0>         0.4189
     48 H16         2.4974    2.1118   -5.3111 H         1 <0>         0.0712
     49 H17         2.5738    3.7514   -4.6224 H         1 <0>         0.0798
     50 H18         2.7397    2.3318   -3.5615 H         1 <0>         0.0725
     51 H19        -0.2909    1.3268   -6.3210 H         1 <0>         0.1401
     52 H20        -1.4109    2.2196   -8.3233 H         1 <0>         0.1330
     53 H21        -1.7060    4.6496   -8.5895 H         1 <0>         0.1342
     54 H22        -0.8812    6.1878   -6.8532 H         1 <0>         0.1368
@<TRIPOS>BOND
     1    1    2 1
     2    1   34 1
     3    1   35 1
     4    1   36 1
     5    2    6 2
     6    2    3 1
     7    3    4 2
     8    3   20 1
     9    4    5 1
    10    4    7 1
    11    5    6 1
    12    7   12 ar
    13    7    8 ar
    14    8    9 ar
    15    8   37 1
    16    9   10 ar
    17    9   38 1
    18   10   11 ar
    19   10   13 1
    20   11   12 ar
    21   11   39 1
    22   12   40 1
    23   13   14 1
    24   13   41 1
    25   13   42 1
    26   14   15 1
    27   15   16 1
    28   15   43 1
    29   15   44 1
    30   16   17 1
    31   16   45 1
    32   16   46 1
    33   17   18 2
    34   17   19 1
    35   20   21 am
    36   20   47 1
    37   21   22 2
    38   21   23 1
    39   23   24 1
    40   24   25 1
    41   24   26 1
    42   24   27 1
    43   26   48 1
    44   26   49 1
    45   26   50 1
    46   27   32 ar
    47   27   28 ar
    48   28   29 ar
    49   28   51 1
    50   29   30 ar
    51   29   52 1
    52   30   31 ar
    53   30   53 1
    54   31   32 ar
    55   31   54 1
    56   32   33 1
