@<TRIPOS>MOLECULE
ZINC04098580
   24    24     0     0     0
SMALL
USER_CHARGES
2-(hydroxymethyl)piperidine-3,4-diol
@<TRIPOS>ATOM
      1 C1         -2.0571    1.0526    3.7863 C.3       1 <0>        -0.1841
      2 C2         -2.8036    1.4559    2.5128 C.3       1 <0>        -0.0019
      3 C3         -0.7288    1.5792    1.2668 C.3       1 <0>         0.0424
      4 H1         -0.8225    2.6646    1.2296 H         1 <0>         0.1543
      5 C4          0.0796    1.1795    2.5032 C.3       1 <0>         0.1055
      6 H2          0.1854    0.0951    2.5339 H         1 <0>         0.0874
      7 C5         -0.6508    1.6577    3.7611 C.3       1 <0>         0.0627
      8 H3         -0.7224    2.7453    3.7495 H         1 <0>         0.0838
      9 O1          0.0702    1.2389    4.9217 O.3       1 <0>        -0.5539
     10 O2          1.3730    1.7843    2.4435 O.3       1 <0>        -0.5445
     11 C6         -0.0127    1.0858    0.0080 C.3       1 <0>         0.0557
     12 O3         -0.7038    1.5592   -1.1497 O.3       1 <0>        -0.5813
     13 H4         -2.5971    1.4232    4.6576 H         1 <0>         0.1212
     14 H5         -1.9849   -0.0339    3.8372 H         1 <0>         0.1001
     15 H6         -2.8875    2.5418    2.4695 H         1 <0>         0.1350
     16 H7         -3.8003    1.0147    2.5210 H         1 <0>         0.1422
     17 H8         -0.3394    1.5048    5.7564 H         1 <0>         0.4010
     18 H9          1.9409    1.5736    3.1973 H         1 <0>         0.4126
     19 H10         0.0021   -0.0041    0.0020 H         1 <0>         0.0729
     20 H11         1.0099    1.4631    0.0003 H         1 <0>         0.1059
     21 H12        -0.3044    1.2838   -1.9862 H         1 <0>         0.4124
     22 N1         -2.0698    0.9671    1.3299 N.4       1 <0>        -0.5093
     23 H13        -2.5938    1.2123    0.4817 H         1 <0>         0.4492
     24 H14        -1.9733   -0.0534    1.3897 H         1 <0>         0.4309
@<TRIPOS>BOND
     1    1    7 1
     2    1    2 1
     3    1   13 1
     4    1   14 1
     5    2   15 1
     6    2   16 1
     7    2   22 1
     8    3    4 1
     9    3    5 1
    10    3   11 1
    11    3   22 1
    12    5    6 1
    13    5    7 1
    14    5   10 1
    15    7    8 1
    16    7    9 1
    17    9   17 1
    18   10   18 1
    19   11   12 1
    20   11   19 1
    21   11   20 1
    22   12   21 1
    23   22   23 1
    24   22   24 1
@<TRIPOS>MOLECULE
ZINC33671247
   24    24     0     0     0
SMALL
USER_CHARGES
(2S,3S,4R)-2-(hydroxymethyl)piperidine-3,4-diol
@<TRIPOS>ATOM
      1 C1          2.1687    1.4902    1.2114 C.3       1 <0>        -0.1414
      2 C2          2.1260   -0.0390    1.1681 C.3       1 <0>        -0.0002
      3 N1          0.7291   -0.4915    1.1811 N.4       1 <0>        -0.5285
      4 C3          0.0021   -0.0041    0.0020 C.3       1 <0>         0.0512
      5 H1          0.5330   -0.3781   -0.8858 H         1 <0>         0.1480
      6 C4         -0.0187    1.5261    0.0104 C.3       1 <0>         0.0755
      7 H2         -0.5816    1.9145    0.8719 H         1 <0>         0.0835
      8 C5          1.4196    2.0513   -0.0005 C.3       1 <0>         0.0737
      9 H3          1.4466    3.1508   -0.0168 H         1 <0>         0.0847
     10 O1          2.0718    1.6324   -1.2010 O.3       1 <0>        -0.5935
     11 O2         -0.7085    2.0003   -1.1477 O.3       1 <0>        -0.5865
     12 C6         -1.4330   -0.5335    0.0334 C.3       1 <0>         0.0680
     13 O3         -1.4184   -1.9570   -0.0918 O.3       1 <0>        -0.6164
     14 H4          3.2144    1.8305    1.1858 H         1 <0>         0.1219
     15 H5          1.6898    1.8461    2.1355 H         1 <0>         0.1030
     16 H6          2.6173   -0.3937    0.2500 H         1 <0>         0.1356
     17 H7          2.6508   -0.4455    2.0452 H         1 <0>         0.1370
     18 H8          0.6999   -1.5911    1.1816 H         1 <0>         0.4658
     19 H9          1.6742    1.9406   -2.1792 H         1 <0>         0.4309
     20 H10        -0.8248    3.0814   -1.3144 H         1 <0>         0.4401
     21 H11        -1.9061   -0.2540    0.9863 H         1 <0>         0.0640
     22 H12        -2.0029   -0.0979   -0.8005 H         1 <0>         0.0963
     23 H13        -2.3640   -2.5190   -0.0897 H         1 <0>         0.4464
     24 H14         0.2288   -0.1110    2.0838 H         1 <0>         0.4410
@<TRIPOS>BOND
     1    1    8 1
     2    1    2 1
     3    1   14 1
     4    1   15 1
     5    2    3 1
     6    2   16 1
     7    2   17 1
     8    3    4 1
     9    3   18 1
    10    3   24 1
    11    4    5 1
    12    4    6 1
    13    4   12 1
    14    6    7 1
    15    6    8 1
    16    6   11 1
    17    8    9 1
    18    8   10 1
    19   10   19 1
    20   11   20 1
    21   12   13 1
    22   12   21 1
    23   12   22 1
    24   13   23 1
@<TRIPOS>MOLECULE
ZINC06361525
   24    24     0     0     0
SMALL
USER_CHARGES
5-(hydroxymethyl)piperidine-3,4-diol
@<TRIPOS>ATOM
      1 C1         -0.7107    3.1243   -1.2534 C.3       1 <0>         0.0013
      2 C2         -0.7462    1.5945   -1.2361 C.3       1 <0>        -0.0967
      3 H1         -0.2564    1.2090   -2.1303 H         1 <0>         0.1153
      4 C3         -0.0127    1.0858    0.0080 C.3       1 <0>         0.1034
      5 H2          0.0021   -0.0041    0.0020 H         1 <0>         0.0944
      6 C4          1.4233    1.6171   -0.0028 C.3       1 <0>         0.0596
      7 H3          1.9472    1.2320   -0.8777 H         1 <0>         0.0889
      8 C5          1.3959    3.1463   -0.0559 C.3       1 <0>        -0.0389
      9 O1          2.0982    1.1921    1.1829 O.3       1 <0>        -0.5392
     10 O2         -0.6840    1.5478    1.1819 O.3       1 <0>        -0.5571
     11 C6         -2.1996    1.1176   -1.2029 C.3       1 <0>         0.0849
     12 O3         -2.8519    1.4928   -2.4177 O.3       1 <0>        -0.5803
     13 H4         -1.2127    3.5093   -0.3658 H         1 <0>         0.1389
     14 H5         -1.2197    3.4893   -2.1455 H         1 <0>         0.1435
     15 H6          0.8840    3.5312    0.8261 H         1 <0>         0.1427
     16 H7          2.4169    3.5273   -0.0784 H         1 <0>         0.1340
     17 H8          3.0151    1.4934    1.2430 H         1 <0>         0.4003
     18 H9         -0.2707    1.2640    2.0087 H         1 <0>         0.4030
     19 H10        -2.2237    0.0329   -1.0976 H         1 <0>         0.0673
     20 H11        -2.7133    1.5762   -0.3580 H         1 <0>         0.0697
     21 H12        -3.7789    1.2220   -2.4662 H         1 <0>         0.4003
     22 N1          0.6893    3.5893   -1.2729 N.4       1 <0>        -0.5091
     23 H13         0.7044    4.6150   -1.3183 H         1 <0>         0.4417
     24 H14         1.1625    3.2032   -2.0982 H         1 <0>         0.4320
@<TRIPOS>BOND
     1    1    2 1
     2    1   13 1
     3    1   14 1
     4    1   22 1
     5    2    3 1
     6    2    4 1
     7    2   11 1
     8    4    5 1
     9    4    6 1
    10    4   10 1
    11    6    7 1
    12    6    8 1
    13    6    9 1
    14    8   15 1
    15    8   16 1
    16    8   22 1
    17    9   17 1
    18   10   18 1
    19   11   12 1
    20   11   19 1
    21   11   20 1
    22   12   21 1
    23   22   23 1
    24   22   24 1
@<TRIPOS>MOLECULE
ZINC03813668
   24    24     0     0     0
SMALL
USER_CHARGES
5-(hydroxymethyl)piperidine-3,4-diol
@<TRIPOS>ATOM
      1 C1         -0.0127    1.0858    0.0080 C.3       1 <0>         0.0019
      2 C2         -0.7286    1.5791    1.2674 C.3       1 <0>        -0.1023
      3 H1         -0.7316    2.6691    1.2810 H         1 <0>         0.1126
      4 C3         -2.1703    1.0639    1.2644 C.3       1 <0>         0.1089
      5 H2         -2.1688   -0.0258    1.2907 H         1 <0>         0.0820
      6 C4         -2.8727    1.5441   -0.0087 C.3       1 <0>         0.0566
      7 H3         -2.9100    2.6334   -0.0156 H         1 <0>         0.0901
      8 C5         -2.0949    1.0518   -1.2313 C.3       1 <0>        -0.0409
      9 O1         -4.2019    1.0209   -0.0465 O.3       1 <0>        -0.5391
     10 O2         -2.8602    1.5683    2.4096 O.3       1 <0>        -0.5462
     11 C6         -0.0015    1.0541    2.5071 C.3       1 <0>         0.0845
     12 O3          1.3073    1.6242    2.5688 O.3       1 <0>        -0.5791
     13 H4          0.0021   -0.0041    0.0020 H         1 <0>         0.1346
     14 H5          1.0099    1.4629    0.0003 H         1 <0>         0.1504
     15 H6         -2.5844    1.4040   -2.1392 H         1 <0>         0.1385
     16 H7         -2.0703   -0.0380   -1.2313 H         1 <0>         0.1401
     17 H8         -4.7056    1.2828   -0.8292 H         1 <0>         0.4002
     18 H9         -3.7828    1.2851    2.4693 H         1 <0>         0.4024
     19 H10        -0.5609    1.3308    3.4008 H         1 <0>         0.0787
     20 H11         0.0774   -0.0315    2.4494 H         1 <0>         0.0582
     21 H12         1.8268    1.3350    3.3314 H         1 <0>         0.4003
     22 N1         -0.7177    1.5794   -1.1903 N.4       1 <0>        -0.5113
     23 H13        -0.2128    1.2727   -2.0301 H         1 <0>         0.4429
     24 H14        -0.7491    2.6054   -1.1656 H         1 <0>         0.4358
@<TRIPOS>BOND
     1    1    2 1
     2    1   13 1
     3    1   14 1
     4    1   22 1
     5    2    3 1
     6    2    4 1
     7    2   11 1
     8    4    5 1
     9    4    6 1
    10    4   10 1
    11    6    7 1
    12    6    8 1
    13    6    9 1
    14    8   15 1
    15    8   16 1
    16    8   22 1
    17    9   17 1
    18   10   18 1
    19   11   12 1
    20   11   19 1
    21   11   20 1
    22   12   21 1
    23   22   23 1
    24   22   24 1
@<TRIPOS>MOLECULE
ZINC01492230
   25    25     0     0     0
SMALL
USER_CHARGES
2,5-bis(hydroxymethyl)pyrrolidine-3,4-diol
@<TRIPOS>ATOM
      1 C1          3.3713    2.7344   -2.8930 C.3       1 <0>         0.0599
      2 C2          2.9862    2.4745   -1.4352 C.3       1 <0>         0.0348
      3 H1          3.8765    2.2920   -0.8335 H         1 <0>         0.1601
      4 C3          2.0151    1.2713   -1.3403 C.3       1 <0>         0.0636
      5 H2          1.3135    1.2691   -2.1744 H         1 <0>         0.1100
      6 C4          1.2864    1.5618   -0.0018 C.3       1 <0>         0.0638
      7 H3          1.8767    1.2123    0.8452 H         1 <0>         0.1111
      8 C5          1.1768    3.1010    0.0075 C.3       1 <0>         0.0328
      9 H4          0.1942    3.4050   -0.3532 H         1 <0>         0.1618
     10 C6          1.3968    3.6299    1.4262 C.3       1 <0>         0.0570
     11 O1          1.1789    5.0421    1.4472 O.3       1 <0>        -0.5760
     12 O2         -0.0110    0.9628    0.0073 O.3       1 <0>        -0.5394
     13 O3          2.7334    0.0377   -1.2748 O.3       1 <0>        -0.5360
     14 O4          4.2992    3.8194   -2.9544 O.3       1 <0>        -0.5769
     15 H5          3.8305    1.8394   -3.3126 H         1 <0>         0.1021
     16 H6          2.4785    2.9871   -3.4651 H         1 <0>         0.0749
     17 H7          0.6981    3.1443    2.1074 H         1 <0>         0.1003
     18 H8          2.4184    3.4152    1.7397 H         1 <0>         0.0753
     19 H9          1.3013    5.4460    2.3173 H         1 <0>         0.4121
     20 H10         0.0021   -0.0041    0.0020 H         1 <0>         0.4063
     21 H11         2.1740   -0.7353   -1.1182 H         1 <0>         0.4060
     22 H12         4.5876    4.0401   -3.8506 H         1 <0>         0.4116
     23 N1          2.2226    3.6128   -0.8911 N.4       1 <0>        -0.5019
     24 H13         1.7894    4.1363   -1.6608 H         1 <0>         0.4403
     25 H14         2.8531    4.2320   -0.3683 H         1 <0>         0.4465
@<TRIPOS>BOND
     1    1    2 1
     2    1   14 1
     3    1   15 1
     4    1   16 1
     5    2    3 1
     6    2    4 1
     7    2   23 1
     8    4    5 1
     9    4    6 1
    10    4   13 1
    11    6    7 1
    12    6    8 1
    13    6   12 1
    14    8    9 1
    15    8   10 1
    16    8   23 1
    17   10   11 1
    18   10   17 1
    19   10   18 1
    20   11   19 1
    21   12   20 1
    22   13   21 1
    23   14   22 1
    24   23   24 1
    25   23   25 1
@<TRIPOS>MOLECULE
ZINC13601808
   24    24     0     0     0
SMALL
USER_CHARGES
(2R,3R,4S)-2-(hydroxymethyl)piperidine-3,4-diol
@<TRIPOS>ATOM
      1 C1         -3.5450   -2.1286   -1.1647 C.3       1 <0>        -0.1820
      2 C2         -3.5034   -0.6009   -1.2450 C.3       1 <0>        -0.0019
      3 C3         -1.4333   -0.5336    0.0129 C.3       1 <0>         0.0420
      4 H1         -1.9700   -0.1108    0.8622 H         1 <0>         0.1588
      5 C4         -1.4130   -2.0593    0.1308 C.3       1 <0>         0.1082
      6 H2         -0.8648   -2.4821   -0.7111 H         1 <0>         0.0927
      7 C5         -2.8507   -2.5863    0.1210 C.3       1 <0>         0.0582
      8 H3         -2.8397   -3.6754    0.1623 H         1 <0>         0.0909
      9 O1         -3.5553   -2.0726    1.2531 O.3       1 <0>        -0.5518
     10 O2         -0.7747   -2.4350    1.3529 O.3       1 <0>        -0.5374
     11 C6          0.0021   -0.0041    0.0020 C.3       1 <0>         0.0543
     12 O3         -0.0173    1.4248    0.0099 O.3       1 <0>        -0.5810
     13 H4         -3.0302   -2.5525   -2.0269 H         1 <0>         0.1009
     14 H5         -4.5817   -2.4652   -1.1580 H         1 <0>         0.1210
     15 H6         -3.9844   -0.2725   -2.1664 H         1 <0>         0.1377
     16 H7         -4.0303   -0.1778   -0.3897 H         1 <0>         0.1370
     17 H8         -4.4748   -2.3663    1.3106 H         1 <0>         0.3948
     18 H9         -0.7264   -3.3904    1.4939 H         1 <0>         0.4049
     19 H10         0.5123   -0.3556   -0.8948 H         1 <0>         0.0701
     20 H11         0.5293   -0.3651    0.8851 H         1 <0>         0.1040
     21 H12         0.8606    1.8301    0.0037 H         1 <0>         0.4108
     22 N1         -2.1017   -0.1408   -1.2423 N.4       1 <0>        -0.5070
     23 H13        -2.0813    0.8820   -1.3306 H         1 <0>         0.4479
     24 H14        -1.6057   -0.5628   -2.0361 H         1 <0>         0.4269
@<TRIPOS>BOND
     1    1    7 1
     2    1    2 1
     3    1   13 1
     4    1   14 1
     5    2   15 1
     6    2   16 1
     7    2   22 1
     8    3    4 1
     9    3    5 1
    10    3   11 1
    11    3   22 1
    12    5    6 1
    13    5    7 1
    14    5   10 1
    15    7    8 1
    16    7    9 1
    17    9   17 1
    18   10   18 1
    19   11   12 1
    20   11   19 1
    21   11   20 1
    22   12   21 1
    23   22   23 1
    24   22   24 1
@<TRIPOS>MOLECULE
ZINC05766623
   25    25     0     0     0
SMALL
USER_CHARGES
2,5-bis(hydroxymethyl)pyrrolidine-3,4-diol
@<TRIPOS>ATOM
      1 C1          1.2864    1.5618   -0.0018 C.3       1 <0>         0.0568
      2 C2          1.1449    3.0852    0.0077 C.3       1 <0>         0.0350
      3 H1          0.5071    3.4039   -0.8168 H         1 <0>         0.1626
      4 C3          2.5322    3.7417   -0.1181 C.3       1 <0>         0.0640
      5 H2          3.3059    2.9783   -0.2000 H         1 <0>         0.1121
      6 C4          2.7147    4.5529    1.1852 C.3       1 <0>         0.0547
      7 H3          3.7394    4.4743    1.5482 H         1 <0>         0.1206
      8 C5          1.7284    3.8651    2.1624 C.3       1 <0>         0.0415
      9 H4          2.1699    2.9609    2.5814 H         1 <0>         0.1615
     10 C6          1.3131    4.8276    3.2768 C.3       1 <0>         0.0663
     11 O1          0.4985    4.1353    4.2251 O.3       1 <0>        -0.5803
     12 O2          2.3552    5.9212    0.9837 O.3       1 <0>        -0.5440
     13 O3          2.5689    4.6103   -1.2522 O.3       1 <0>        -0.5387
     14 O4         -0.0110    0.9628    0.0073 O.3       1 <0>        -0.5753
     15 H5          1.8401    1.2428    0.8812 H         1 <0>         0.0735
     16 H6          1.8231    1.2523   -0.8987 H         1 <0>         0.0981
     17 H7          2.2030    5.2126    3.7748 H         1 <0>         0.0962
     18 H8          0.7486    5.6564    2.8495 H         1 <0>         0.0820
     19 H9          0.1980    4.6855    4.9614 H         1 <0>         0.4102
     20 H10         2.8939    6.3760    0.3219 H         1 <0>         0.4057
     21 H11         3.4192    5.0522   -1.3819 H         1 <0>         0.4033
     22 H12         0.0021   -0.0041    0.0020 H         1 <0>         0.4125
     23 N1          0.5915    3.5276    1.2874 N.4       1 <0>        -0.5042
     24 H13         0.0350    2.7747    1.7089 H         1 <0>         0.4460
     25 H14        -0.0014    4.3541    1.1472 H         1 <0>         0.4399
@<TRIPOS>BOND
     1    1    2 1
     2    1   14 1
     3    1   15 1
     4    1   16 1
     5    2    3 1
     6    2    4 1
     7    2   23 1
     8    4    5 1
     9    4    6 1
    10    4   13 1
    11    6    7 1
    12    6    8 1
    13    6   12 1
    14    8    9 1
    15    8   10 1
    16    8   23 1
    17   10   11 1
    18   10   17 1
    19   10   18 1
    20   11   19 1
    21   12   20 1
    22   13   21 1
    23   14   22 1
    24   23   24 1
    25   23   25 1
@<TRIPOS>MOLECULE
ZINC03795332
   28    28     0     0     0
SMALL
USER_CHARGES
2-(hydroxymethyl)-1-methyl-piperidine-3,4,5-triol
@<TRIPOS>ATOM
      1 C1          4.2144    1.1727   -2.1735 C.3       1 <0>        -0.0442
      2 C2          2.0526    1.1150   -1.0854 C.3       1 <0>        -0.0415
      3 C3          1.2504    1.6650    0.0961 C.3       1 <0>         0.0559
      4 H1          1.7824    1.4599    1.0250 H         1 <0>         0.0907
      5 C4          1.0772    3.1772   -0.0706 C.3       1 <0>         0.0682
      6 H2          0.5107    3.3810   -0.9793 H         1 <0>         0.0869
      7 C5          2.4572    3.8331   -0.1701 C.3       1 <0>         0.1102
      8 H3          3.0089    3.6621    0.7543 H         1 <0>         0.0966
      9 C6          3.2245    3.2203   -1.3439 C.3       1 <0>         0.0409
     10 H4          2.6792    3.4036   -2.2696 H         1 <0>         0.1584
     11 C7          4.6121    3.8584   -1.4347 C.3       1 <0>         0.0560
     12 O1          5.2926    3.6981   -0.1884 O.3       1 <0>        -0.5796
     13 O2          2.3036    5.2381   -0.3811 O.3       1 <0>        -0.5401
     14 O3          0.3778    3.7051    1.0582 O.3       1 <0>        -0.5485
     15 O4         -0.0337    1.0390    0.1335 O.3       1 <0>        -0.5374
     16 H5          5.2344    1.5417   -2.0657 H         1 <0>         0.1275
     17 H6          4.2072    0.0881   -2.0660 H         1 <0>         0.1286
     18 H7          3.8324    1.4429   -3.1580 H         1 <0>         0.1271
     19 H8          2.1900    0.0407   -0.9624 H         1 <0>         0.1396
     20 H9          1.5128    1.3082   -2.0124 H         1 <0>         0.1421
     21 H10         5.1840    3.3736   -2.2259 H         1 <0>         0.0778
     22 H11         4.5097    4.9202   -1.6588 H         1 <0>         0.1041
     23 H12         6.1809    4.0799   -0.1733 H         1 <0>         0.4111
     24 H13         1.8227    5.6915    0.3247 H         1 <0>         0.4123
     25 H14        -0.5043    3.3297    1.1851 H         1 <0>         0.4052
     26 H15         0.0000    0.0782    0.2377 H         1 <0>         0.4000
     27 N1          3.3786    1.7686   -1.1108 N.4       1 <0>        -0.3849
     28 H16         3.8386    1.6239   -0.2043 H         1 <0>         0.4370
@<TRIPOS>BOND
     1    1   16 1
     2    1   17 1
     3    1   18 1
     4    1   27 1
     5    2    3 1
     6    2   19 1
     7    2   20 1
     8    2   27 1
     9    3    4 1
    10    3    5 1
    11    3   15 1
    12    5    6 1
    13    5    7 1
    14    5   14 1
    15    7    8 1
    16    7    9 1
    17    7   13 1
    18    9   10 1
    19    9   11 1
    20    9   27 1
    21   11   12 1
    22   11   21 1
    23   11   22 1
    24   12   23 1
    25   13   24 1
    26   14   25 1
    27   15   26 1
    28   27   28 1
