@<TRIPOS>MOLECULE
ZINC01698904
   36    36     0     0     0
SMALL
USER_CHARGES
4-heptoxybenzoic acid
@<TRIPOS>ATOM
      1 C1          5.7919   10.8049    0.0050 C.3       1 <0>        -0.1537
      2 C2          4.4406   10.0874    0.0140 C.3       1 <0>        -0.1259
      3 C3          4.6665    8.5742    0.0037 C.3       1 <0>        -0.1215
      4 C4          3.3152    7.8567    0.0127 C.3       1 <0>        -0.1188
      5 C5          3.5412    6.3435    0.0024 C.3       1 <0>        -0.1175
      6 C6          2.1899    5.6260    0.0115 C.3       1 <0>        -0.1177
      7 C7          2.4158    4.1128    0.0011 C.3       1 <0>         0.0591
      8 O1          1.1537    3.4427    0.0096 O.3       1 <0>        -0.3202
      9 C8          1.1765    2.0859    0.0020 C.ar      1 <0>         0.1187
     10 C9         -0.0166    1.3726    0.0096 C.ar      1 <0>        -0.1687
     11 C10         0.0021   -0.0041    0.0020 C.ar      1 <0>        -0.0487
     12 C11         1.2232   -0.6845   -0.0133 C.ar      1 <0>        -0.1497
     13 C12         2.4207    0.0368   -0.0210 C.ar      1 <0>        -0.0396
     14 C13         2.3930    1.4132   -0.0133 C.ar      1 <0>        -0.2253
     15 C14         1.2480   -2.1589   -0.0210 C.2       1 <0>         0.4917
     16 O2          0.2061   -2.7841   -0.0140 O.co2     1 <0>        -0.6342
     17 H1          6.3452   10.5263   -0.8919 H         1 <0>         0.0532
     18 H2          5.6309   11.8829    0.0123 H         1 <0>         0.0522
     19 H3          6.3622   10.5166    0.8880 H         1 <0>         0.0532
     20 H4          3.8702   10.3756   -0.8690 H         1 <0>         0.0604
     21 H5          3.8873   10.3660    0.9109 H         1 <0>         0.0604
     22 H6          5.2369    8.2860    0.8867 H         1 <0>         0.0615
     23 H7          5.2198    8.2956   -0.8931 H         1 <0>         0.0615
     24 H8          2.7449    8.1449   -0.8703 H         1 <0>         0.0627
     25 H9          2.7619    8.1353    0.9096 H         1 <0>         0.0627
     26 H10         4.1115    6.0553    0.8854 H         1 <0>         0.0650
     27 H11         4.0945    6.0649   -0.8944 H         1 <0>         0.0650
     28 H12         1.6195    5.9142   -0.8716 H         1 <0>         0.0718
     29 H13         1.6366    5.9046    0.9083 H         1 <0>         0.0718
     30 H14         2.9862    3.8246    0.8841 H         1 <0>         0.0594
     31 H15         2.9691    3.8342   -0.8957 H         1 <0>         0.0594
     32 H16        -0.9596    1.8990    0.0169 H         1 <0>         0.1238
     33 H17        -0.9253   -0.5575    0.0083 H         1 <0>         0.1337
     34 H18         3.3661   -0.4851   -0.0325 H         1 <0>         0.1326
     35 H19         3.3177    1.9712   -0.0195 H         1 <0>         0.1204
     36 O3          2.4260   -2.8129   -0.0358 O.co2     1 <0>        -0.7583
@<TRIPOS>BOND
     1    1    2 1
     2    1   17 1
     3    1   18 1
     4    1   19 1
     5    2    3 1
     6    2   20 1
     7    2   21 1
     8    3    4 1
     9    3   22 1
    10    3   23 1
    11    4    5 1
    12    4   24 1
    13    4   25 1
    14    5    6 1
    15    5   26 1
    16    5   27 1
    17    6    7 1
    18    6   28 1
    19    6   29 1
    20    7    8 1
    21    7   30 1
    22    7   31 1
    23    8    9 1
    24    9   14 ar
    25    9   10 ar
    26   10   11 ar
    27   10   32 1
    28   11   12 ar
    29   11   33 1
    30   12   13 ar
    31   12   15 1
    32   13   14 ar
    33   13   34 1
    34   14   35 1
    35   15   16 2
    36   15   36 1
