@<TRIPOS>MOLECULE
ZINC00005569
   38    40     0     0     0
SMALL
USER_CHARGES
5,7-dimethyl-2-methylamino-4-(3-pyridylmethyl)benzothiazol-6-ol
@<TRIPOS>ATOM
      1 C1         -4.2897    2.0226   -1.0300 C.3       1 <0>        -0.1215
      2 C2         -3.8476    3.1827   -1.8843 C.ar      1 <0>        -0.0773
      3 C3         -3.1533    4.2141   -1.3071 C.ar      1 <0>        -0.0414
      4 C4         -2.7275    5.3202   -2.0769 C.ar      1 <0>         0.1370
      5 C5         -3.0491    5.2864   -3.4526 C.ar      1 <0>        -0.1569
      6 C6         -3.7442    4.2521   -4.0266 C.ar      1 <0>        -0.0419
      7 C7         -4.1525    3.1833   -3.2415 C.ar      1 <0>         0.1039
      8 O1         -4.8428    2.1491   -3.7921 O.3       1 <0>        -0.4830
      9 C8         -4.0617    4.2763   -5.4995 C.3       1 <0>        -0.1143
     10 S1         -2.3484    6.8086   -4.0432 S.3       1 <0>        -0.0075
     11 C9         -1.6878    7.3735   -2.4816 C.2       1 <0>         0.4124
     12 N1         -2.0339    6.4059   -1.6644 N.2       1 <0>        -0.5810
     13 N2         -0.9911    8.5330   -2.2048 N.pl3     1 <0>        -0.6757
     14 C10        -0.7076    9.4907   -3.2765 C.3       1 <0>         0.0868
     15 C11        -2.8458    4.1710    0.1676 C.3       1 <0>        -0.0339
     16 C12        -3.9638    4.8305    0.9333 C.ar      1 <0>        -0.1224
     17 C13        -3.9873    6.2076    1.0948 C.ar      1 <0>        -0.0622
     18 C14        -5.0328    6.7701    1.8106 C.ar      1 <0>        -0.1737
     19 C15        -6.0157    5.9466    2.3267 C.ar      1 <0>         0.0922
     20 N3         -5.9633    4.6411    2.1495 N.ar      1 <0>        -0.4839
     21 C16        -4.9812    4.0711    1.4789 C.ar      1 <0>         0.0980
     22 H1         -5.2350    2.2675   -0.5458 H         1 <0>         0.0746
     23 H2         -4.4198    1.1396   -1.6556 H         1 <0>         0.0790
     24 H3         -3.5339    1.8218   -0.2707 H         1 <0>         0.0750
     25 H4         -5.8026    2.2663   -3.7804 H         1 <0>         0.3893
     26 H5         -5.0228    4.7660   -5.6561 H         1 <0>         0.0745
     27 H6         -3.2836    4.8253   -6.0299 H         1 <0>         0.0667
     28 H7         -4.1082    3.2552   -5.8781 H         1 <0>         0.0815
     29 H8         -0.6893    8.7134   -1.3008 H         1 <0>         0.4199
     30 H9         -0.1533   10.3369   -2.8704 H         1 <0>         0.0951
     31 H10        -0.1133    9.0047   -4.0503 H         1 <0>         0.0661
     32 H11        -1.6452    9.8432   -3.7063 H         1 <0>         0.0658
     33 H12        -1.9124    4.7001    0.3597 H         1 <0>         0.0920
     34 H13        -2.7482    3.1339    0.4882 H         1 <0>         0.0889
     35 H14        -3.2077    6.8267    0.6762 H         1 <0>         0.1379
     36 H15        -5.0810    7.8388    1.9594 H         1 <0>         0.1323
     37 H16        -6.8359    6.3775    2.8817 H         1 <0>         0.1542
     38 H17        -4.9721    2.9983    1.3543 H         1 <0>         0.1537
@<TRIPOS>BOND
     1    1    2 1
     2    1   22 1
     3    1   23 1
     4    1   24 1
     5    2    7 ar
     6    2    3 ar
     7    3    4 ar
     8    3   15 1
     9    4   12 1
    10    4    5 ar
    11    5    6 ar
    12    5   10 1
    13    6    7 ar
    14    6    9 1
    15    7    8 1
    16    8   25 1
    17    9   26 1
    18    9   27 1
    19    9   28 1
    20   10   11 1
    21   11   12 2
    22   11   13 1
    23   13   14 1
    24   13   29 1
    25   14   30 1
    26   14   31 1
    27   14   32 1
    28   15   16 1
    29   15   33 1
    30   15   34 1
    31   16   21 ar
    32   16   17 ar
    33   17   18 ar
    34   17   35 1
    35   18   19 ar
    36   18   36 1
    37   19   20 ar
    38   19   37 1
    39   20   21 ar
    40   21   38 1
@<TRIPOS>MOLECULE
ZINC00007874
   41    43     0     0     0
SMALL
USER_CHARGES
2-ethylamino-4,5-dimethyl-7-(3-pyridylmethyl)benzothiazol-6-ol
@<TRIPOS>ATOM
      1 C1          4.8335    4.3399    0.0673 C.3       1 <0>        -0.1678
      2 C2          4.2042    2.9480   -0.0198 C.3       1 <0>         0.1264
      3 N1          2.7602    3.0500    0.2057 N.pl3     1 <0>        -0.6731
      4 C3          1.9747    1.9149    0.1747 C.2       1 <0>         0.4153
      5 N2          2.3343    0.6704   -0.0392 N.2       1 <0>        -0.5744
      6 C4          1.4478   -0.3514   -0.0410 C.ar      1 <0>         0.1282
      7 C5          1.7020   -1.7252   -0.2570 C.ar      1 <0>        -0.0400
      8 C6          0.6831   -2.6409   -0.2256 C.ar      1 <0>        -0.0881
      9 C7         -0.6317   -2.2555    0.0176 C.ar      1 <0>         0.1139
     10 C8         -0.9151   -0.9149    0.2331 C.ar      1 <0>        -0.0422
     11 C9          0.1027    0.0054    0.2029 C.ar      1 <0>        -0.1442
     12 S1          0.2100    1.7662    0.4149 S.3       1 <0>        -0.0255
     13 C10        -2.3308   -0.4719    0.4991 C.3       1 <0>        -0.0359
     14 C11        -3.0079   -0.1431   -0.8064 C.ar      1 <0>        -0.1278
     15 C12        -2.9565    1.1443   -1.3193 C.ar      1 <0>        -0.0683
     16 C13        -3.5899    1.3998   -2.5256 C.ar      1 <0>        -0.1674
     17 C14        -4.2562    0.3726   -3.1672 C.ar      1 <0>         0.0948
     18 N3         -4.2886   -0.8387   -2.6474 N.ar      1 <0>        -0.4804
     19 C15        -3.6928   -1.1192   -1.5047 C.ar      1 <0>         0.1004
     20 O1         -1.6268   -3.1821    0.0432 O.3       1 <0>        -0.4822
     21 C16         0.9931   -4.0969   -0.4600 C.3       1 <0>        -0.1163
     22 C17         3.1109   -2.1883   -0.5246 C.3       1 <0>        -0.1106
     23 H1          4.6489    4.7609    1.0556 H         1 <0>         0.0647
     24 H2          5.9079    4.2640   -0.1004 H         1 <0>         0.0811
     25 H3          4.3921    4.9863   -0.6913 H         1 <0>         0.0645
     26 H4          4.6455    2.3016    0.7388 H         1 <0>         0.0721
     27 H5          4.3887    2.5270   -1.0080 H         1 <0>         0.0719
     28 H6          2.3559    3.9151    0.3767 H         1 <0>         0.4208
     29 H7         -2.8746   -1.2737    0.9986 H         1 <0>         0.1004
     30 H8         -2.3212    0.4124    1.1363 H         1 <0>         0.0836
     31 H9         -2.4320    1.9284   -0.7933 H         1 <0>         0.1320
     32 H10        -3.5672    2.3899   -2.9563 H         1 <0>         0.1360
     33 H11        -4.7557    0.5643   -4.1054 H         1 <0>         0.1566
     34 H12        -3.7410   -2.1233   -1.1100 H         1 <0>         0.1548
     35 H13        -2.0417   -3.3375   -0.8163 H         1 <0>         0.3871
     36 H14         1.0188   -4.2950   -1.5315 H         1 <0>         0.0723
     37 H15         1.9622   -4.3370   -0.0227 H         1 <0>         0.0741
     38 H16         0.2224   -4.7119    0.0048 H         1 <0>         0.0769
     39 H17         3.2695   -2.2665   -1.6001 H         1 <0>         0.0713
     40 H18         3.8153   -1.4703   -0.1046 H         1 <0>         0.0743
     41 H19         3.2668   -3.1632   -0.0625 H         1 <0>         0.0710
@<TRIPOS>BOND
     1    1    2 1
     2    1   23 1
     3    1   24 1
     4    1   25 1
     5    2    3 1
     6    2   26 1
     7    2   27 1
     8    3    4 1
     9    3   28 1
    10    4   12 1
    11    4    5 2
    12    5    6 1
    13    6   11 ar
    14    6    7 ar
    15    7    8 ar
    16    7   22 1
    17    8    9 ar
    18    8   21 1
    19    9   10 ar
    20    9   20 1
    21   10   11 ar
    22   10   13 1
    23   11   12 1
    24   13   14 1
    25   13   29 1
    26   13   30 1
    27   14   19 ar
    28   14   15 ar
    29   15   16 ar
    30   15   31 1
    31   16   17 ar
    32   16   32 1
    33   17   18 ar
    34   17   33 1
    35   18   19 ar
    36   19   34 1
    37   20   35 1
    38   21   36 1
    39   21   37 1
    40   21   38 1
    41   22   39 1
    42   22   40 1
    43   22   41 1
@<TRIPOS>MOLECULE
ZINC00007873
   41    43     0     0     0
SMALL
USER_CHARGES
2-ethylamino-4,7-dimethyl-5-(3-pyridylmethyl)benzothiazol-6-ol
@<TRIPOS>ATOM
      1 C1         -4.3165    9.7698   -7.6167 C.3       1 <0>        -0.1651
      2 C2         -4.4462    8.3795   -6.9914 C.3       1 <0>         0.1154
      3 N1         -3.7152    8.3446   -5.7223 N.pl3     1 <0>        -0.6728
      4 C3         -3.6891    7.1856   -4.9722 C.2       1 <0>         0.4145
      5 N2         -3.0955    6.9621   -3.8227 N.2       1 <0>        -0.5804
      6 C4         -3.1554    5.7651   -3.1952 C.ar      1 <0>         0.1300
      7 C5         -2.5702    5.3973   -1.9620 C.ar      1 <0>        -0.0361
      8 C6         -2.7228    4.1302   -1.4630 C.ar      1 <0>        -0.0831
      9 C7         -3.4640    3.1675   -2.1411 C.ar      1 <0>         0.1118
     10 C8         -4.0560    3.4978   -3.3514 C.ar      1 <0>        -0.0472
     11 C9         -3.9009    4.7641   -3.8573 C.ar      1 <0>        -0.1521
     12 S1         -4.4555    5.6088   -5.3188 S.3       1 <0>        -0.0108
     13 C10        -4.8634    2.4730   -4.1056 C.3       1 <0>        -0.1129
     14 O1         -3.6067    1.9181   -1.6235 O.3       1 <0>        -0.4829
     15 C11        -2.0788    3.7735   -0.1480 C.3       1 <0>        -0.0335
     16 C12        -0.7247    3.1626   -0.4012 C.ar      1 <0>        -0.1268
     17 C13        -0.5936    1.7930   -0.5746 C.ar      1 <0>        -0.0597
     18 C14         0.6722    1.2748   -0.8005 C.ar      1 <0>        -0.1733
     19 C15         1.7524    2.1355   -0.8558 C.ar      1 <0>         0.0929
     20 N3          1.5896    3.4335   -0.6908 N.ar      1 <0>        -0.4850
     21 C16         0.4013    3.9607   -0.4687 C.ar      1 <0>         0.0996
     22 C17        -1.7635    6.4092   -1.1898 C.3       1 <0>        -0.1156
     23 H1         -4.7323   10.5139   -6.9373 H         1 <0>         0.0675
     24 H2         -3.2644    9.9903   -7.7973 H         1 <0>         0.0675
     25 H3         -4.8604    9.7958   -8.5609 H         1 <0>         0.0831
     26 H4         -4.0305    7.6353   -7.6708 H         1 <0>         0.0726
     27 H5         -5.4983    8.1590   -6.8108 H         1 <0>         0.0728
     28 H6         -3.2494    9.1357   -5.4090 H         1 <0>         0.4185
     29 H7         -5.9055    2.5279   -3.7906 H         1 <0>         0.0743
     30 H8         -4.7961    2.6728   -5.1751 H         1 <0>         0.0658
     31 H9         -4.4727    1.4771   -3.8968 H         1 <0>         0.0804
     32 H10        -4.3764    1.8169   -1.0468 H         1 <0>         0.3880
     33 H11        -2.7071    3.0575    0.3818 H         1 <0>         0.0875
     34 H12        -1.9643    4.6733    0.4564 H         1 <0>         0.0914
     35 H13        -1.4565    1.1451   -0.5308 H         1 <0>         0.1400
     36 H14         0.8120    0.2125   -0.9360 H         1 <0>         0.1343
     37 H15         2.7412    1.7402   -1.0358 H         1 <0>         0.1542
     38 H16         0.3072    5.0287   -0.3385 H         1 <0>         0.1528
     39 H17        -0.7061    6.2861   -1.4238 H         1 <0>         0.0735
     40 H18        -2.0820    7.4146   -1.4654 H         1 <0>         0.0770
     41 H19        -1.9190    6.2590   -0.1214 H         1 <0>         0.0717
@<TRIPOS>BOND
     1    1    2 1
     2    1   23 1
     3    1   24 1
     4    1   25 1
     5    2    3 1
     6    2   26 1
     7    2   27 1
     8    3    4 1
     9    3   28 1
    10    4   12 1
    11    4    5 2
    12    5    6 1
    13    6   11 ar
    14    6    7 ar
    15    7    8 ar
    16    7   22 1
    17    8    9 ar
    18    8   15 1
    19    9   10 ar
    20    9   14 1
    21   10   11 ar
    22   10   13 1
    23   11   12 1
    24   13   29 1
    25   13   30 1
    26   13   31 1
    27   14   32 1
    28   15   16 1
    29   15   33 1
    30   15   34 1
    31   16   21 ar
    32   16   17 ar
    33   17   18 ar
    34   17   35 1
    35   18   19 ar
    36   18   36 1
    37   19   20 ar
    38   19   37 1
    39   20   21 ar
    40   21   38 1
    41   22   39 1
    42   22   40 1
    43   22   41 1
@<TRIPOS>MOLECULE
ZINC04489629
   61    61     0     0     0
SMALL
USER_CHARGES

@<TRIPOS>ATOM
      1 C1         -0.2028    1.5448   -0.6355 C.3       1 <0>        -0.1543
      2 C2         -0.1638    0.0154   -0.6238 C.3       1 <0>        -0.1260
      3 C3         -1.5652   -0.5283   -0.3386 C.3       1 <0>        -0.1211
      4 C4         -1.5262   -2.0578   -0.3269 C.3       1 <0>        -0.1147
      5 C5         -2.9276   -2.6015   -0.0417 C.3       1 <0>        -0.1011
      6 C6         -2.8891   -4.1080   -0.0302 C.2       1 <0>        -0.1558
      7 C7         -3.3764   -4.7678    0.9913 C.2       1 <0>        -0.1517
      8 C8         -4.1261   -4.0347    2.0736 C.3       1 <0>        -0.1269
      9 C9         -5.4957   -4.6858    2.2761 C.3       1 <0>         0.1380
     10 H1         -5.3662   -5.7485    2.4806 H         1 <0>         0.1126
     11 C10        -6.1956   -4.0320    3.4396 C.2       1 <0>        -0.1414
     12 C11        -7.4059   -3.5144    3.2795 C.2       1 <0>        -0.1228
     13 C12        -8.0922   -2.8734    4.4203 C.ar      1 <0>         0.1640
     14 C13        -9.3680   -2.3356    4.2473 C.ar      1 <0>        -0.1675
     15 C14        -9.9975   -1.7392    5.3253 C.ar      1 <0>        -0.0696
     16 C15        -9.3317   -1.6990    6.5427 C.ar      1 <0>        -0.1744
     17 C16        -8.0683   -2.2515    6.6440 C.ar      1 <0>         0.1461
     18 N1         -7.4922   -2.8185    5.6038 N.ar      1 <0>        -0.4778
     19 C17        -7.3425   -2.2093    7.9640 C.3       1 <0>        -0.1039
     20 C18        -6.9319   -3.6273    8.3659 C.3       1 <0>         0.1150
     21 H2         -6.3482   -4.0778    7.5631 H         1 <0>         0.1083
     22 C19        -6.0880   -3.5719    9.6409 C.3       1 <0>        -0.1509
     23 C20        -5.5736   -4.9739    9.9734 C.3       1 <0>        -0.1130
     24 C21        -4.7298   -4.9185   11.2484 C.3       1 <0>        -0.1211
     25 C22        -4.2154   -6.3206   11.5809 C.3       1 <0>         0.0735
     26 O1         -3.4272   -6.2688   12.7718 O.3       1 <0>        -0.5773
     27 O2         -8.1018   -4.4129    8.6028 O.3       1 <0>        -0.5569
     28 O3         -6.2812   -4.5205    1.0938 O.3       1 <0>        -0.5539
     29 H3          0.7956    1.9322   -0.8387 H         1 <0>         0.0536
     30 H4         -0.8892    1.8849   -1.4110 H         1 <0>         0.0534
     31 H5         -0.5425    1.9071    0.3348 H         1 <0>         0.0531
     32 H6          0.1760   -0.3468   -1.5941 H         1 <0>         0.0608
     33 H7          0.5226   -0.3246    0.1517 H         1 <0>         0.0605
     34 H8         -1.9049   -0.1661    0.6317 H         1 <0>         0.0604
     35 H9         -2.2516   -0.1883   -1.1141 H         1 <0>         0.0613
     36 H10        -1.1864   -2.4200   -1.2972 H         1 <0>         0.0620
     37 H11        -0.8398   -2.3978    0.4486 H         1 <0>         0.0617
     38 H12        -3.2673   -2.2393    0.9286 H         1 <0>         0.0734
     39 H13        -3.6140   -2.2615   -0.8172 H         1 <0>         0.0687
     40 H14        -2.4599   -4.6436   -0.8640 H         1 <0>         0.1087
     41 H15        -3.2409   -5.8372    1.0576 H         1 <0>         0.1093
     42 H16        -3.5600   -4.0824    3.0039 H         1 <0>         0.0821
     43 H17        -4.2586   -2.9928    1.7820 H         1 <0>         0.0820
     44 H18        -5.7115   -3.9851    4.4039 H         1 <0>         0.1318
     45 H19        -7.8901   -3.5614    2.3153 H         1 <0>         0.1338
     46 H20        -9.8570   -2.3839    3.2856 H         1 <0>         0.1354
     47 H21       -10.9849   -1.3139    5.2219 H         1 <0>         0.1353
     48 H22        -9.7963   -1.2401    7.4029 H         1 <0>         0.1321
     49 H23        -6.4530   -1.5864    7.8698 H         1 <0>         0.0928
     50 H24        -7.9995   -1.7914    8.7267 H         1 <0>         0.0829
     51 H25        -5.2423   -2.9014    9.4881 H         1 <0>         0.0742
     52 H26        -6.6990   -3.2040   10.4653 H         1 <0>         0.0675
     53 H27        -6.4193   -5.6444   10.1263 H         1 <0>         0.0708
     54 H28        -4.9627   -5.3418    9.1491 H         1 <0>         0.0641
     55 H29        -3.8841   -4.2480   11.0956 H         1 <0>         0.0684
     56 H30        -5.3407   -4.5507   12.0728 H         1 <0>         0.0683
     57 H31        -5.0611   -6.9911   11.7338 H         1 <0>         0.0455
     58 H32        -3.6045   -6.6884   10.7566 H         1 <0>         0.0452
     59 H33        -3.0676   -7.1245   13.0429 H         1 <0>         0.3807
     60 H34        -8.6699   -4.0702    9.3063 H         1 <0>         0.3708
     61 H35        -6.4371   -3.5975    0.8510 H         1 <0>         0.3738
@<TRIPOS>BOND
     1    1    2 1
     2    1   29 1
     3    1   30 1
     4    1   31 1
     5    2    3 1
     6    2   32 1
     7    2   33 1
     8    3    4 1
     9    3   34 1
    10    3   35 1
    11    4    5 1
    12    4   36 1
    13    4   37 1
    14    5    6 1
    15    5   38 1
    16    5   39 1
    17    6    7 2
    18    6   40 1
    19    7    8 1
    20    7   41 1
    21    8    9 1
    22    8   42 1
    23    8   43 1
    24    9   10 1
    25    9   11 1
    26    9   28 1
    27   11   12 2
    28   11   44 1
    29   12   13 1
    30   12   45 1
    31   13   18 ar
    32   13   14 ar
    33   14   15 ar
    34   14   46 1
    35   15   16 ar
    36   15   47 1
    37   16   17 ar
    38   16   48 1
    39   17   18 ar
    40   17   19 1
    41   19   20 1
    42   19   49 1
    43   19   50 1
    44   20   21 1
    45   20   22 1
    46   20   27 1
    47   22   23 1
    48   22   51 1
    49   22   52 1
    50   23   24 1
    51   23   53 1
    52   23   54 1
    53   24   25 1
    54   24   55 1
    55   24   56 1
    56   25   26 1
    57   25   57 1
    58   25   58 1
    59   26   59 1
    60   27   60 1
    61   28   61 1
@<TRIPOS>MOLECULE
ZINC13650561
   53    54     0     0     0
SMALL
USER_CHARGES

@<TRIPOS>ATOM
      1 C1         -0.0317    1.5381    0.0059 C.3       1 <0>        -0.1464
      2 C2         -0.0027    0.0084    0.0029 C.3       1 <0>        -0.0746
      3 C3         -1.4137   -0.5208    0.0130 C.ar      1 <0>        -0.1374
      4 C4         -2.0052   -0.8523    1.1973 C.ar      1 <0>        -0.0217
      5 C5         -3.3170   -1.3449    1.2130 C.ar      1 <0>        -0.2451
      6 C6         -4.0191   -1.4947    0.0032 C.ar      1 <0>         0.2082
      7 C7         -3.4061   -1.1538   -1.1896 C.ar      1 <0>        -0.2551
      8 C8         -2.1079   -0.6630   -1.1855 C.ar      1 <0>         0.1904
      9 O1         -1.5106   -0.3245   -2.3557 O.3       1 <0>        -0.3011
     10 C9         -2.2783   -0.4947   -3.5489 C.3       1 <0>         0.0535
     11 C10        -1.4447   -0.0641   -4.7574 C.3       1 <0>        -0.1163
     12 C11        -2.2666   -0.2463   -6.0350 C.3       1 <0>        -0.1164
     13 C12        -1.4330    0.1844   -7.2435 C.3       1 <0>        -0.1208
     14 C13        -2.2549    0.0021   -8.5211 C.3       1 <0>        -0.0930
     15 C14        -1.4213    0.4328   -9.7296 C.3       1 <0>         0.0504
     16 C15        -1.0296    1.9043   -9.5807 C.3       1 <0>        -0.1309
     17 C16        -0.1574   -0.4258   -9.8094 C.3       1 <0>        -0.1310
     18 C17        -2.2308    0.2533  -10.9879 C.2       1 <0>         0.0647
     19 N1         -3.4740   -0.1977  -11.0700 N.2       1 <0>        -0.3884
     20 N2         -3.8058   -0.2016  -12.3159 N.2       1 <0>        -0.2040
     21 N3         -2.8148    0.2308  -13.0151 N.2       1 <0>        -0.2032
     22 N4         -1.8385    0.5216  -12.2248 N.2       1 <0>        -0.3885
     23 O2         -5.2889   -1.9708    0.0059 O.3       1 <0>        -0.4808
     24 C18        -3.9538   -1.7024    2.4829 C.2       1 <0>         0.3965
     25 O3         -5.1205   -2.0351    2.5041 O.2       1 <0>        -0.4543
     26 C19        -3.1599   -1.6571    3.7631 C.3       1 <0>        -0.2011
     27 H1          0.9889    1.9208   -0.0014 H         1 <0>         0.0582
     28 H2         -0.5592    1.8932   -0.8794 H         1 <0>         0.0579
     29 H3         -0.5453    1.8900    0.9005 H         1 <0>         0.0525
     30 H4          0.5109   -0.3436   -0.8917 H         1 <0>         0.0784
     31 H5          0.5248   -0.3468    0.8882 H         1 <0>         0.0714
     32 H6         -1.4616   -0.7354    2.1232 H         1 <0>         0.1432
     33 H7         -3.9385   -1.2664   -2.1225 H         1 <0>         0.1430
     34 H8         -2.5573   -1.5431   -3.6550 H         1 <0>         0.0669
     35 H9         -3.1787    0.1169   -3.4920 H         1 <0>         0.0663
     36 H10        -1.1656    0.9843   -4.6514 H         1 <0>         0.0740
     37 H11        -0.5443   -0.6757   -4.8143 H         1 <0>         0.0742
     38 H12        -2.5456   -1.2946   -6.1411 H         1 <0>         0.0650
     39 H13        -3.1670    0.3654   -5.9781 H         1 <0>         0.0647
     40 H14        -1.1539    1.2327   -7.1374 H         1 <0>         0.0642
     41 H15        -0.5326   -0.4273   -7.3004 H         1 <0>         0.0643
     42 H16        -2.5339   -1.0462   -8.6272 H         1 <0>         0.0629
     43 H17        -3.1553    0.6138   -8.4642 H         1 <0>         0.0629
     44 H18        -0.4440    2.0342   -8.6705 H         1 <0>         0.0516
     45 H19        -0.4357    2.2112  -10.4416 H         1 <0>         0.0568
     46 H20        -1.9300    2.5160   -9.5238 H         1 <0>         0.0468
     47 H21        -0.4364   -1.4741   -9.9155 H         1 <0>         0.0469
     48 H22         0.4365   -0.1189  -10.6704 H         1 <0>         0.0568
     49 H23         0.4282   -0.2959   -8.8993 H         1 <0>         0.0516
     50 H24        -5.9660   -1.2848    0.0839 H         1 <0>         0.3991
     51 H25        -2.1677   -1.2536    3.5612 H         1 <0>         0.0814
     52 H26        -3.6710   -1.0204    4.4852 H         1 <0>         0.0915
     53 H27        -3.0669   -2.6645    4.1687 H         1 <0>         0.0939
@<TRIPOS>BOND
     1    1    2 1
     2    1   27 1
     3    1   28 1
     4    1   29 1
     5    2    3 1
     6    2   30 1
     7    2   31 1
     8    3    8 ar
     9    3    4 ar
    10    4    5 ar
    11    4   32 1
    12    5    6 ar
    13    5   24 1
    14    6    7 ar
    15    6   23 1
    16    7    8 ar
    17    7   33 1
    18    8    9 1
    19    9   10 1
    20   10   11 1
    21   10   34 1
    22   10   35 1
    23   11   12 1
    24   11   36 1
    25   11   37 1
    26   12   13 1
    27   12   38 1
    28   12   39 1
    29   13   14 1
    30   13   40 1
    31   13   41 1
    32   14   15 1
    33   14   42 1
    34   14   43 1
    35   15   16 1
    36   15   17 1
    37   15   18 1
    38   16   44 1
    39   16   45 1
    40   16   46 1
    41   17   47 1
    42   17   48 1
    43   17   49 1
    44   18   22 2
    45   18   19 1
    46   19   20 1
    47   20   21 2
    48   21   22 1
    49   23   50 1
    50   24   25 2
    51   24   26 1
    52   26   51 1
    53   26   52 1
    54   26   53 1
@<TRIPOS>MOLECULE
ZINC13650561
   54    55     0     0     0
SMALL
USER_CHARGES

@<TRIPOS>ATOM
      1 C1         -0.0317    1.5381    0.0059 C.3       1 <0>        -0.1463
      2 C2         -0.0027    0.0084    0.0029 C.3       1 <0>        -0.0749
      3 C3         -1.4137   -0.5208    0.0130 C.ar      1 <0>        -0.1355
      4 C4         -2.0052   -0.8523    1.1973 C.ar      1 <0>        -0.0210
      5 C5         -3.3170   -1.3449    1.2130 C.ar      1 <0>        -0.2401
      6 C6         -4.0191   -1.4947    0.0032 C.ar      1 <0>         0.2073
      7 C7         -3.4061   -1.1538   -1.1896 C.ar      1 <0>        -0.2545
      8 C8         -2.1079   -0.6630   -1.1855 C.ar      1 <0>         0.1862
      9 O1         -1.5106   -0.3245   -2.3557 O.3       1 <0>        -0.3020
     10 C9         -2.2783   -0.4947   -3.5489 C.3       1 <0>         0.0533
     11 C10        -1.4447   -0.0641   -4.7574 C.3       1 <0>        -0.1175
     12 C11        -2.2666   -0.2463   -6.0350 C.3       1 <0>        -0.1178
     13 C12        -1.4330    0.1844   -7.2435 C.3       1 <0>        -0.1213
     14 C13        -2.2549    0.0021   -8.5211 C.3       1 <0>        -0.1025
     15 C14        -1.4213    0.4328   -9.7296 C.3       1 <0>         0.0189
     16 C15        -1.0296    1.9043   -9.5807 C.3       1 <0>        -0.1541
     17 C16        -0.1574   -0.4258   -9.8094 C.3       1 <0>        -0.1486
     18 C17        -2.2308    0.2533  -10.9879 C.2       1 <0>         0.2037
     19 N1         -1.9593    0.7735  -12.1993 N.pl3     1 <0>        -0.4054
     20 N2         -2.8930    0.3819  -12.9988 N.2       1 <0>        -0.0874
     21 N3         -3.7224   -0.3508  -12.3412 N.2       1 <0>        -0.0676
     22 N4         -3.3329   -0.4443  -11.1166 N.2       1 <0>        -0.2959
     23 O2         -5.2889   -1.9708    0.0059 O.3       1 <0>        -0.4804
     24 C18        -3.9538   -1.7024    2.4829 C.2       1 <0>         0.3956
     25 O3         -5.1205   -2.0351    2.5041 O.2       1 <0>        -0.4516
     26 C19        -3.1599   -1.6571    3.7631 C.3       1 <0>        -0.2017
     27 H1          0.9889    1.9208   -0.0014 H         1 <0>         0.0587
     28 H2         -0.5592    1.8932   -0.8794 H         1 <0>         0.0562
     29 H3         -0.5453    1.8900    0.9005 H         1 <0>         0.0538
     30 H4          0.5109   -0.3436   -0.8917 H         1 <0>         0.0773
     31 H5          0.5248   -0.3468    0.8882 H         1 <0>         0.0730
     32 H6         -1.4616   -0.7354    2.1232 H         1 <0>         0.1449
     33 H7         -3.9385   -1.2664   -2.1225 H         1 <0>         0.1414
     34 H8         -2.5573   -1.5431   -3.6550 H         1 <0>         0.0668
     35 H9         -3.1787    0.1169   -3.4920 H         1 <0>         0.0658
     36 H10        -1.1656    0.9843   -4.6514 H         1 <0>         0.0752
     37 H11        -0.5443   -0.6757   -4.8143 H         1 <0>         0.0758
     38 H12        -2.5456   -1.2946   -6.1411 H         1 <0>         0.0689
     39 H13        -3.1670    0.3654   -5.9781 H         1 <0>         0.0675
     40 H14        -1.1539    1.2327   -7.1374 H         1 <0>         0.0697
     41 H15        -0.5326   -0.4273   -7.3004 H         1 <0>         0.0711
     42 H16        -2.5339   -1.0462   -8.6272 H         1 <0>         0.0807
     43 H17        -3.1553    0.6138   -8.4642 H         1 <0>         0.0730
     44 H18        -0.4440    2.0342   -8.6705 H         1 <0>         0.0852
     45 H19        -0.4357    2.2112  -10.4416 H         1 <0>         0.0569
     46 H20        -1.9300    2.5160   -9.5238 H         1 <0>         0.0662
     47 H21        -0.4364   -1.4741   -9.9155 H         1 <0>         0.0675
     48 H22         0.4365   -0.1189  -10.6704 H         1 <0>         0.0578
     49 H23         0.4282   -0.2959   -8.8993 H         1 <0>         0.0829
     50 H24        -5.9660   -1.2848    0.0839 H         1 <0>         0.3997
     51 H25        -2.1677   -1.2536    3.5612 H         1 <0>         0.0813
     52 H26        -3.6710   -1.0204    4.4852 H         1 <0>         0.0930
     53 H27        -3.0669   -2.6645    4.1687 H         1 <0>         0.0952
     54 H28        -1.2037    1.3372  -12.4280 H         1 <0>         0.4552
@<TRIPOS>BOND
     1    1    2 1
     2    1   27 1
     3    1   28 1
     4    1   29 1
     5    2    3 1
     6    2   30 1
     7    2   31 1
     8    3    8 ar
     9    3    4 ar
    10    4    5 ar
    11    4   32 1
    12    5    6 ar
    13    5   24 1
    14    6    7 ar
    15    6   23 1
    16    7    8 ar
    17    7   33 1
    18    8    9 1
    19    9   10 1
    20   10   11 1
    21   10   34 1
    22   10   35 1
    23   11   12 1
    24   11   36 1
    25   11   37 1
    26   12   13 1
    27   12   38 1
    28   12   39 1
    29   13   14 1
    30   13   40 1
    31   13   41 1
    32   14   15 1
    33   14   42 1
    34   14   43 1
    35   15   16 1
    36   15   17 1
    37   15   18 1
    38   16   44 1
    39   16   45 1
    40   16   46 1
    41   17   47 1
    42   17   48 1
    43   17   49 1
    44   18   19 1
    45   18   22 2
    46   19   54 1
    47   19   20 1
    48   20   21 2
    49   21   22 1
    50   23   50 1
    51   24   25 2
    52   24   26 1
    53   26   51 1
    54   26   52 1
    55   26   53 1
@<TRIPOS>MOLECULE
ZINC13898716
   79    82     0     0     0
SMALL
USER_CHARGES
3-[(2R)-7-[3-[2-(cyclopropylmethyl)-3-methoxy-4-(methylcarbamoyl)phenoxy]propoxy]-8-propyl-chroman-2-yl]propanoic acid
@<TRIPOS>ATOM
      1 C1         -4.2326    0.0945    1.4751 C.3       1 <0>        -0.1513
      2 C2         -2.9411    0.9147    1.4691 C.3       1 <0>        -0.1114
      3 C3         -2.5196    1.1919    0.0247 C.3       1 <0>        -0.0627
      4 C4         -1.2475    1.9998    0.0188 C.ar      1 <0>        -0.1433
      5 C5         -1.3081    3.3834    0.0280 C.ar      1 <0>         0.1577
      6 C6         -0.1359    4.1258    0.0178 C.ar      1 <0>        -0.2432
      7 C7          1.0860    3.4836    0.0054 C.ar      1 <0>        -0.0516
      8 C8          1.1504    2.1000    0.0024 C.ar      1 <0>        -0.1951
      9 C9         -0.0163    1.3543    0.0095 C.ar      1 <0>         0.1820
     10 O1          0.0021   -0.0041    0.0020 O.3       1 <0>        -0.2958
     11 C10         1.2216   -0.6573    0.3567 C.3       1 <0>         0.0914
     12 H1          1.4090   -0.5310    1.4230 H         1 <0>         0.0704
     13 C11         2.3627   -0.0212   -0.4474 C.3       1 <0>        -0.1551
     14 C12         2.5052    1.4379   -0.0072 C.3       1 <0>        -0.0714
     15 C13         1.1237   -2.1474    0.0237 C.3       1 <0>        -0.0904
     16 C14         0.0502   -2.7964    0.8997 C.3       1 <0>        -0.1554
     17 C15        -0.0461   -4.2641    0.5717 C.2       1 <0>         0.4592
     18 O2          0.6703   -4.7420   -0.2757 O.co2     1 <0>        -0.6440
     19 O3         -2.5126    4.0124    0.0412 O.3       1 <0>        -0.3038
     20 C16        -2.4984    5.4413    0.0440 C.3       1 <0>         0.0661
     21 C17        -3.9356    5.9657    0.0594 C.3       1 <0>        -0.1200
     22 C18        -3.9203    7.4956    0.0623 C.3       1 <0>         0.0619
     23 O4         -5.2627    7.9853    0.0767 O.3       1 <0>        -0.2962
     24 C19        -5.4271    9.3325    0.0810 C.ar      1 <0>         0.1813
     25 C20        -4.3129   10.1667    0.0717 C.ar      1 <0>        -0.2226
     26 C21        -4.4705   11.5330    0.0756 C.ar      1 <0>        -0.0348
     27 C22        -5.7541   12.0881    0.0894 C.ar      1 <0>        -0.2021
     28 C23        -6.8762   11.2460    0.0994 C.ar      1 <0>         0.1999
     29 C24        -6.7045    9.8723    0.0891 C.ar      1 <0>        -0.1419
     30 C25        -7.9063    8.9630    0.0930 C.3       1 <0>        -0.0358
     31 C26        -8.3055    8.6516    1.5368 C.3       1 <0>        -0.1411
     32 C27        -8.2107    7.1957    1.9976 C.3       1 <0>        -0.1744
     33 C28        -9.5801    7.8342    1.7567 C.3       1 <0>        -0.1803
     34 O5         -8.1249   11.7759    0.1124 O.3       1 <0>        -0.3134
     35 C29        -8.7347   12.0311   -1.1545 C.3       1 <0>         0.0498
     36 C30        -5.9273   13.5509    0.0941 C.2       1 <0>         0.5607
     37 O6         -7.0446   14.0310    0.1062 O.2       1 <0>        -0.5199
     38 N1         -4.8474   14.3573    0.0851 N.am      1 <0>        -0.7371
     39 C31        -5.0196   15.8121    0.0897 C.3       1 <0>         0.0894
     40 H2         -5.0196    0.6523    0.9676 H         1 <0>         0.0497
     41 H3         -4.0654   -0.8503    0.9578 H         1 <0>         0.0590
     42 H4         -4.5329   -0.1029    2.5041 H         1 <0>         0.0516
     43 H5         -2.1541    0.3570    1.9766 H         1 <0>         0.0620
     44 H6         -3.1083    1.8595    1.9864 H         1 <0>         0.0551
     45 H7         -3.3066    1.7497   -0.4828 H         1 <0>         0.0695
     46 H8         -2.3524    0.2471   -0.4926 H         1 <0>         0.0777
     47 H9         -0.1794    5.2050    0.0200 H         1 <0>         0.1240
     48 H10         1.9972    4.0634   -0.0024 H         1 <0>         0.1231
     49 H11         3.2922   -0.5562   -0.2526 H         1 <0>         0.0856
     50 H12         2.1301   -0.0630   -1.5115 H         1 <0>         0.0773
     51 H13         2.9337    1.4744    0.9944 H         1 <0>         0.0732
     52 H14         3.1605    1.9639   -0.7015 H         1 <0>         0.0767
     53 H15         0.8577   -2.2684   -1.0264 H         1 <0>         0.0727
     54 H16         2.0848   -2.6258    0.2125 H         1 <0>         0.0828
     55 H17         0.3162   -2.6755    1.9498 H         1 <0>         0.0608
     56 H18        -0.9108   -2.3180    0.7110 H         1 <0>         0.0710
     57 H19        -1.9721    5.7977    0.9295 H         1 <0>         0.0648
     58 H20        -1.9898    5.8013   -0.8503 H         1 <0>         0.0644
     59 H21        -4.4619    5.6093   -0.8262 H         1 <0>         0.0879
     60 H22        -4.4442    5.6057    0.9537 H         1 <0>         0.0892
     61 H23        -3.3941    7.8520    0.9478 H         1 <0>         0.0699
     62 H24        -3.4118    7.8556   -0.8320 H         1 <0>         0.0691
     63 H25        -3.3211    9.7395    0.0609 H         1 <0>         0.1384
     64 H26        -3.6035   12.1769    0.0675 H         1 <0>         0.1323
     65 H27        -8.7357    9.4549   -0.4152 H         1 <0>         0.0766
     66 H28        -7.6618    8.0354   -0.4245 H         1 <0>         0.0801
     67 H29        -8.0727    9.4270    2.2667 H         1 <0>         0.1017
     68 H30        -7.8639    6.4598    1.2721 H         1 <0>         0.0961
     69 H31        -7.9153    7.0130    3.0308 H         1 <0>         0.0905
     70 H32       -10.1855    8.0716    2.6315 H         1 <0>         0.0923
     71 H33       -10.1342    7.5183    0.8728 H         1 <0>         0.0929
     72 H34        -8.8182   11.0982   -1.7120 H         1 <0>         0.0431
     73 H35        -9.7280   12.4530   -1.0013 H         1 <0>         0.0959
     74 H36        -8.1229   12.7368   -1.7166 H         1 <0>         0.0483
     75 H37        -3.9562   13.9744    0.0754 H         1 <0>         0.3990
     76 H38        -4.0418   16.2938    0.0810 H         1 <0>         0.0753
     77 H39        -5.5814   16.1144   -0.7941 H         1 <0>         0.0599
     78 H40        -5.5637   16.1107    0.9858 H         1 <0>         0.0606
     79 O7         -0.9279   -5.0404    1.2211 O.co2     1 <0>        -0.7761
@<TRIPOS>BOND
     1    1    2 1
     2    1   40 1
     3    1   41 1
     4    1   42 1
     5    2    3 1
     6    2   43 1
     7    2   44 1
     8    3    4 1
     9    3   45 1
    10    3   46 1
    11    4    9 ar
    12    4    5 ar
    13    5    6 ar
    14    5   19 1
    15    6    7 ar
    16    6   47 1
    17    7    8 ar
    18    7   48 1
    19    8   14 1
    20    8    9 ar
    21    9   10 1
    22   10   11 1
    23   11   12 1
    24   11   13 1
    25   11   15 1
    26   13   14 1
    27   13   49 1
    28   13   50 1
    29   14   51 1
    30   14   52 1
    31   15   16 1
    32   15   53 1
    33   15   54 1
    34   16   17 1
    35   16   55 1
    36   16   56 1
    37   17   18 2
    38   17   79 1
    39   19   20 1
    40   20   21 1
    41   20   57 1
    42   20   58 1
    43   21   22 1
    44   21   59 1
    45   21   60 1
    46   22   23 1
    47   22   61 1
    48   22   62 1
    49   23   24 1
    50   24   29 ar
    51   24   25 ar
    52   25   26 ar
    53   25   63 1
    54   26   27 ar
    55   26   64 1
    56   27   28 ar
    57   27   36 1
    58   28   29 ar
    59   28   34 1
    60   29   30 1
    61   30   31 1
    62   30   65 1
    63   30   66 1
    64   31   33 1
    65   31   32 1
    66   31   67 1
    67   32   33 1
    68   32   68 1
    69   32   69 1
    70   33   70 1
    71   33   71 1
    72   34   35 1
    73   35   72 1
    74   35   73 1
    75   35   74 1
    76   36   37 2
    77   36   38 am
    78   38   39 1
    79   38   75 1
    80   39   76 1
    81   39   77 1
    82   39   78 1
@<TRIPOS>MOLECULE
ZINC04172316
   69    71     0     0     0
SMALL
USER_CHARGES
6-acetyl-7-[5-(4-acetyl-3-hydroxy-2-propyl-phenoxy)pentoxy]chroman-2-carboxylic acid
@<TRIPOS>ATOM
      1 C1         -6.0853    2.3109    5.6418 C.3       1 <0>        -0.1508
      2 C2         -5.3550    1.8190    4.3906 C.3       1 <0>        -0.1152
      3 C3         -4.9027    3.0207    3.5586 C.3       1 <0>        -0.0631
      4 C4         -4.1833    2.5361    2.3262 C.ar      1 <0>        -0.1616
      5 C5         -4.8931    2.2900    1.1592 C.ar      1 <0>         0.1859
      6 C6         -4.2347    1.8426    0.0168 C.ar      1 <0>        -0.2293
      7 C7         -2.8851    1.6412    0.0317 C.ar      1 <0>        -0.0201
      8 C8         -2.1520    1.8840    1.2010 C.ar      1 <0>        -0.2440
      9 C9         -2.8152    2.3305    2.3586 C.ar      1 <0>         0.2088
     10 O1         -2.1173    2.5630    3.4978 O.3       1 <0>        -0.4726
     11 C10        -0.7032    1.6681    1.2197 C.2       1 <0>         0.3952
     12 O2         -0.0714    1.8792    2.2339 O.2       1 <0>        -0.4511
     13 C11         0.0025    1.1838   -0.0206 C.3       1 <0>        -0.1924
     14 O3         -6.2351    2.4868    1.1313 O.3       1 <0>        -0.3022
     15 C12        -6.9051    2.2152   -0.1013 C.3       1 <0>         0.0548
     16 C13        -8.4011    2.4928    0.0595 C.3       1 <0>        -0.1165
     17 C14        -9.1185    2.2020   -1.2602 C.3       1 <0>        -0.1147
     18 C15       -10.6145    2.4796   -1.0994 C.3       1 <0>        -0.1135
     19 C16       -11.3319    2.1888   -2.4192 C.3       1 <0>         0.0497
     20 O4        -12.7291    2.4481   -2.2690 O.3       1 <0>        -0.2820
     21 C17       -13.5143    2.2387   -3.3546 C.ar      1 <0>         0.2199
     22 C18       -12.9588    1.7995   -4.5419 C.ar      1 <0>        -0.2692
     23 C19       -13.7649    1.5785   -5.6547 C.ar      1 <0>         0.2221
     24 C20       -15.1344    1.8060   -5.5795 C.ar      1 <0>        -0.2121
     25 C21       -15.6957    2.2485   -4.4129 C.ar      1 <0>        -0.0010
     26 C22       -14.8994    2.4722   -3.2833 C.ar      1 <0>        -0.2573
     27 C23       -15.5046    2.9455   -2.0361 C.2       1 <0>         0.3977
     28 O5        -14.8288    3.0442   -1.0331 O.2       1 <0>        -0.4577
     29 C24       -16.9664    3.3098   -1.9986 C.3       1 <0>        -0.1904
     30 C25       -16.0345    1.5689   -6.7667 C.3       1 <0>        -0.0717
     31 C26       -15.1964    1.5124   -8.0460 C.3       1 <0>        -0.1382
     32 C27       -14.0100    0.5706   -7.8036 C.3       1 <0>         0.0450
     33 H1        -14.3740   -0.3999   -7.4663 H         1 <0>         0.0779
     34 O6        -13.1756    1.1471   -6.7984 O.3       1 <0>        -0.2799
     35 C28       -13.2259    0.4032   -9.0796 C.2       1 <0>         0.4762
     36 O7        -12.0961    0.8250   -9.1541 O.co2     1 <0>        -0.6124
     37 H2         -5.4130    2.9311    6.2348 H         1 <0>         0.0533
     38 H3         -6.9557    2.8974    5.3475 H         1 <0>         0.0544
     39 H4         -6.4075    1.4549    6.2346 H         1 <0>         0.0538
     40 H5         -6.0273    1.1989    3.7977 H         1 <0>         0.0611
     41 H6         -4.4846    1.2326    4.6850 H         1 <0>         0.0627
     42 H7         -4.2304    3.6408    4.1515 H         1 <0>         0.0711
     43 H8         -5.7731    3.6071    3.2642 H         1 <0>         0.0767
     44 H9         -4.7956    1.6535   -0.8865 H         1 <0>         0.1384
     45 H10        -2.3816    1.2940   -0.8585 H         1 <0>         0.1397
     46 H11        -1.7865    3.4680    3.5786 H         1 <0>         0.3960
     47 H12         0.0221    0.1840   -0.0240 H         1 <0>         0.0861
     48 H13         1.0228    1.5672   -0.0313 H         1 <0>         0.0871
     49 H14        -0.5287    1.5398   -0.9033 H         1 <0>         0.0846
     50 H15        -6.4989    2.8554   -0.8844 H         1 <0>         0.0681
     51 H16        -6.7567    1.1701   -0.3729 H         1 <0>         0.0681
     52 H17        -8.8073    1.8526    0.8426 H         1 <0>         0.0776
     53 H18        -8.5496    3.5379    0.3311 H         1 <0>         0.0774
     54 H19        -8.7123    2.8422   -2.0433 H         1 <0>         0.0712
     55 H20        -8.9700    1.1569   -1.5319 H         1 <0>         0.0710
     56 H21       -11.0207    1.8394   -0.3163 H         1 <0>         0.0767
     57 H22       -10.7630    3.5247   -0.8278 H         1 <0>         0.0763
     58 H23       -10.9257    2.8290   -3.2023 H         1 <0>         0.0661
     59 H24       -11.1834    1.1437   -2.6908 H         1 <0>         0.0658
     60 H25       -11.8952    1.6229   -4.6048 H         1 <0>         0.1404
     61 H26       -16.7599    2.4260   -4.3629 H         1 <0>         0.1383
     62 H27       -17.3867    3.0928   -2.8797 H         1 <0>         0.0718
     63 H28       -17.4620    2.7432   -1.2103 H         1 <0>         0.0875
     64 H29       -17.0700    4.3765   -1.7994 H         1 <0>         0.0898
     65 H30       -16.5637    0.6248   -6.6377 H         1 <0>         0.0758
     66 H31       -16.7570    2.3816   -6.8420 H         1 <0>         0.0793
     67 H32       -14.8300    2.5097   -8.2896 H         1 <0>         0.0724
     68 H33       -15.8043    1.1335   -8.8677 H         1 <0>         0.0948
     69 O8        -13.7826   -0.2146  -10.1332 O.co2     1 <0>        -0.7477
@<TRIPOS>BOND
     1    1    2 1
     2    1   37 1
     3    1   38 1
     4    1   39 1
     5    2    3 1
     6    2   40 1
     7    2   41 1
     8    3    4 1
     9    3   42 1
    10    3   43 1
    11    4    9 ar
    12    4    5 ar
    13    5    6 ar
    14    5   14 1
    15    6    7 ar
    16    6   44 1
    17    7    8 ar
    18    7   45 1
    19    8    9 ar
    20    8   11 1
    21    9   10 1
    22   10   46 1
    23   11   12 2
    24   11   13 1
    25   13   47 1
    26   13   48 1
    27   13   49 1
    28   14   15 1
    29   15   16 1
    30   15   50 1
    31   15   51 1
    32   16   17 1
    33   16   52 1
    34   16   53 1
    35   17   18 1
    36   17   54 1
    37   17   55 1
    38   18   19 1
    39   18   56 1
    40   18   57 1
    41   19   20 1
    42   19   58 1
    43   19   59 1
    44   20   21 1
    45   21   26 ar
    46   21   22 ar
    47   22   23 ar
    48   22   60 1
    49   23   34 1
    50   23   24 ar
    51   24   25 ar
    52   24   30 1
    53   25   26 ar
    54   25   61 1
    55   26   27 1
    56   27   28 2
    57   27   29 1
    58   29   62 1
    59   29   63 1
    60   29   64 1
    61   30   31 1
    62   30   65 1
    63   30   66 1
    64   31   32 1
    65   31   67 1
    66   31   68 1
    67   32   33 1
    68   32   34 1
    69   32   35 1
    70   35   36 2
    71   35   69 1
@<TRIPOS>MOLECULE
ZINC11676975
   69    71     0     0     0
SMALL
USER_CHARGES
(2R)-6-acetyl-7-[5-(4-acetyl-3-hydroxy-2-propyl-phenoxy)pentoxy]chroman-2-carboxylic acid
@<TRIPOS>ATOM
      1 C1         -9.1090    6.0701  -12.0744 C.3       1 <0>        -0.1520
      2 C2         -9.4546    6.8248  -10.7892 C.3       1 <0>        -0.1148
      3 C3         -8.4939    8.0029  -10.6155 C.3       1 <0>        -0.0689
      4 C4         -8.8343    8.7463   -9.3496 C.ar      1 <0>        -0.1606
      5 C5         -8.2382    8.3841   -8.1498 C.ar      1 <0>         0.1855
      6 C6         -8.5518    9.0634   -6.9755 C.ar      1 <0>        -0.2292
      7 C7         -9.4401   10.0992   -6.9930 C.ar      1 <0>        -0.0192
      8 C8        -10.0519   10.4789   -8.1952 C.ar      1 <0>        -0.2441
      9 C9         -9.7412    9.7910   -9.3823 C.ar      1 <0>         0.2087
     10 O1        -10.3272   10.1492  -10.5516 O.3       1 <0>        -0.4733
     11 C10       -11.0099   11.5871   -8.2157 C.2       1 <0>         0.3944
     12 O2        -11.5375   11.9137   -9.2584 O.2       1 <0>        -0.4502
     13 C11       -11.3400   12.3214   -6.9418 C.3       1 <0>        -0.1920
     14 O3         -7.3498    7.3593   -8.1199 O.3       1 <0>        -0.3023
     15 C12        -6.7727    7.0377   -6.8528 C.3       1 <0>         0.0549
     16 C13        -5.8033    5.8654   -7.0166 C.3       1 <0>        -0.1164
     17 C14        -5.1854    5.5211   -5.6599 C.3       1 <0>        -0.1147
     18 C15        -4.2160    4.3488   -5.8237 C.3       1 <0>        -0.1135
     19 C16        -3.5981    4.0045   -4.4671 C.3       1 <0>         0.0496
     20 O4         -2.6927    2.9096   -4.6201 O.3       1 <0>        -0.2818
     21 C17        -2.0557    2.4768   -3.5039 C.ar      1 <0>         0.2199
     22 C18        -2.2918    3.0871   -2.2862 C.ar      1 <0>        -0.2693
     23 C19        -1.6384    2.6436   -1.1402 C.ar      1 <0>         0.2222
     24 C20        -0.7406    1.5847   -1.2155 C.ar      1 <0>        -0.2121
     25 C21        -0.4992    0.9708   -2.4142 C.ar      1 <0>        -0.0004
     26 C22        -1.1501    1.4032   -3.5758 C.ar      1 <0>        -0.2576
     27 C23        -0.8893    0.7425   -4.8570 C.2       1 <0>         0.3979
     28 O5         -1.4555    1.1211   -5.8612 O.2       1 <0>        -0.4570
     29 C24         0.0822   -0.4074   -4.9279 C.3       1 <0>        -0.1904
     30 C25        -0.0127    1.0858    0.0080 C.3       1 <0>        -0.0717
     31 C26        -0.7273    1.5785    1.2686 C.3       1 <0>        -0.1383
     32 C27        -0.9939    3.0813    1.1152 C.3       1 <0>         0.0450
     33 H1         -0.0603    3.6009    0.8997 H         1 <0>         0.0780
     34 O6         -1.9084    3.2672    0.0344 O.3       1 <0>        -0.2799
     35 C28        -1.5942    3.6228    2.3870 C.2       1 <0>         0.4762
     36 O7         -2.7294    4.0365    2.3908 O.co2     1 <0>        -0.6124
     37 H2         -9.7934    5.2308  -12.1981 H         1 <0>         0.0541
     38 H3         -9.2015    6.7431  -12.9269 H         1 <0>         0.0543
     39 H4         -8.0860    5.6989  -12.0139 H         1 <0>         0.0559
     40 H5         -9.3621    6.1519   -9.9367 H         1 <0>         0.0629
     41 H6        -10.4776    7.1961  -10.8497 H         1 <0>         0.0555
     42 H7         -8.5864    8.6758  -11.4680 H         1 <0>         0.0780
     43 H8         -7.4709    7.6317  -10.5550 H         1 <0>         0.0783
     44 H9         -8.0859    8.7717   -6.0459 H         1 <0>         0.1384
     45 H10        -9.6754   10.6237   -6.0787 H         1 <0>         0.1386
     46 H11       -11.1562    9.6859  -10.7342 H         1 <0>         0.3964
     47 H12       -10.5074   12.7287   -6.5665 H         1 <0>         0.0824
     48 H13       -12.0655   13.1070   -7.1529 H         1 <0>         0.0839
     49 H14       -11.7607   11.6230   -6.2184 H         1 <0>         0.0920
     50 H15        -7.5620    6.7615   -6.1536 H         1 <0>         0.0681
     51 H16        -6.2338    7.9038   -6.4686 H         1 <0>         0.0679
     52 H17        -5.0139    6.1416   -7.7157 H         1 <0>         0.0774
     53 H18        -6.3422    4.9993   -7.4007 H         1 <0>         0.0775
     54 H19        -5.9747    5.2449   -4.9608 H         1 <0>         0.0712
     55 H20        -4.6465    6.3872   -5.2758 H         1 <0>         0.0710
     56 H21        -3.4267    4.6250   -6.5229 H         1 <0>         0.0765
     57 H22        -4.7549    3.4827   -6.2079 H         1 <0>         0.0766
     58 H23        -4.3874    3.7283   -3.7679 H         1 <0>         0.0662
     59 H24        -3.0592    4.8706   -4.0830 H         1 <0>         0.0657
     60 H25        -2.9861    3.9120   -2.2239 H         1 <0>         0.1403
     61 H26         0.1979    0.1474   -2.4646 H         1 <0>         0.1376
     62 H27        -0.4064   -1.2664   -4.7749 H         1 <0>         0.0833
     63 H28         0.5515   -0.4265   -5.9115 H         1 <0>         0.0827
     64 H29         0.8481   -0.2837   -4.1623 H         1 <0>         0.0827
     65 H30         0.0021   -0.0041    0.0020 H         1 <0>         0.0793
     66 H31         1.0101    1.4625    0.0003 H         1 <0>         0.0760
     67 H32        -1.6718    1.0475    1.3868 H         1 <0>         0.0724
     68 H33        -0.0962    1.4051    2.1402 H         1 <0>         0.0947
     69 O8         -0.8678    3.6455    3.5155 O.co2     1 <0>        -0.7477
@<TRIPOS>BOND
     1    1    2 1
     2    1   37 1
     3    1   38 1
     4    1   39 1
     5    2    3 1
     6    2   40 1
     7    2   41 1
     8    3    4 1
     9    3   42 1
    10    3   43 1
    11    4    9 ar
    12    4    5 ar
    13    5    6 ar
    14    5   14 1
    15    6    7 ar
    16    6   44 1
    17    7    8 ar
    18    7   45 1
    19    8    9 ar
    20    8   11 1
    21    9   10 1
    22   10   46 1
    23   11   12 2
    24   11   13 1
    25   13   47 1
    26   13   48 1
    27   13   49 1
    28   14   15 1
    29   15   16 1
    30   15   50 1
    31   15   51 1
    32   16   17 1
    33   16   52 1
    34   16   53 1
    35   17   18 1
    36   17   54 1
    37   17   55 1
    38   18   19 1
    39   18   56 1
    40   18   57 1
    41   19   20 1
    42   19   58 1
    43   19   59 1
    44   20   21 1
    45   21   26 ar
    46   21   22 ar
    47   22   23 ar
    48   22   60 1
    49   23   34 1
    50   23   24 ar
    51   24   25 ar
    52   24   30 1
    53   25   26 ar
    54   25   61 1
    55   26   27 1
    56   27   28 2
    57   27   29 1
    58   29   62 1
    59   29   63 1
    60   29   64 1
    61   30   31 1
    62   30   65 1
    63   30   66 1
    64   31   32 1
    65   31   67 1
    66   31   68 1
    67   32   33 1
    68   32   34 1
    69   32   35 1
    70   35   36 2
    71   35   69 1
@<TRIPOS>MOLECULE
ZINC01845036
   26    27     0     0     0
SMALL
USER_CHARGES
1-[3-(trifluoromethyl)phenyl]-4,5-dihydropyrazol-3-amine
@<TRIPOS>ATOM
      1 C1          1.1769    1.7819    0.0004 C.ar      1 <0>        -0.0722
      2 C2         -0.0126    1.0758    0.0080 C.ar      1 <0>        -0.1293
      3 C3         -1.2205    1.7491    0.0173 C.ar      1 <0>        -0.1395
      4 C4         -1.2433    3.1298    0.0298 C.ar      1 <0>        -0.1202
      5 C5         -0.0501    3.8429    0.0218 C.ar      1 <0>         0.2468
      6 C6          1.1623    3.1623    0.0070 C.ar      1 <0>        -0.1621
      7 N1         -0.0690    5.2369    0.0281 N.pl3     1 <0>        -0.4689
      8 C7          1.1160    6.1097    0.0204 C.3       1 <0>         0.0893
      9 C8          0.5165    7.5300    0.0318 C.3       1 <0>        -0.1304
     10 C9         -0.9769    7.2939    0.0451 C.2       1 <0>         0.3283
     11 N2         -1.2130    6.0324    0.0366 N.2       1 <0>        -0.3279
     12 N3         -1.9433    8.2881    0.0583 N.pl3     1 <0>        -0.8296
     13 C10        -2.5135    0.9751    0.0192 C.3       1 <0>         0.5086
     14 F1         -2.2361   -0.3961    0.0105 F         1 <0>        -0.1765
     15 F2         -3.2469    1.2952    1.1668 F         1 <0>        -0.1763
     16 F3         -3.2577    1.3076   -1.1177 F         1 <0>        -0.1762
     17 H1          2.1183    1.2526   -0.0111 H         1 <0>         0.1373
     18 H2          0.0021   -0.0041    0.0020 H         1 <0>         0.1367
     19 H3         -2.1870    3.6549    0.0409 H         1 <0>         0.1395
     20 H4          2.0914    3.7129    0.0004 H         1 <0>         0.1299
     21 H5          1.7223    5.9417    0.9105 H         1 <0>         0.0817
     22 H6          1.7067    5.9470   -0.8812 H         1 <0>         0.0816
     23 H7          0.8265    8.0687    0.9272 H         1 <0>         0.1030
     24 H8          0.8095    8.0760   -0.8649 H         1 <0>         0.1031
     25 H9         -1.6790    9.2214    0.0596 H         1 <0>         0.4138
     26 H10        -2.8836    8.0502    0.0663 H         1 <0>         0.4097
@<TRIPOS>BOND
     1    1    6 ar
     2    1    2 ar
     3    1   17 1
     4    2    3 ar
     5    2   18 1
     6    3    4 ar
     7    3   13 1
     8    4    5 ar
     9    4   19 1
    10    5    6 ar
    11    5    7 1
    12    6   20 1
    13    7   11 1
    14    7    8 1
    15    8    9 1
    16    8   21 1
    17    8   22 1
    18    9   10 1
    19    9   23 1
    20    9   24 1
    21   10   11 2
    22   10   12 1
    23   12   25 1
    24   12   26 1
    25   13   14 1
    26   13   15 1
    27   13   16 1
@<TRIPOS>MOLECULE
ZINC00597083
   44    46     0     0     0
SMALL
USER_CHARGES

@<TRIPOS>ATOM
      1 C1          0.4388    1.4725   -0.0545 C.3       1 <0>        -0.1103
      2 C2          0.2220   -0.0186   -0.0291 C.ar      1 <0>        -0.0428
      3 C3         -0.0983   -0.6759   -1.1886 C.ar      1 <0>        -0.0879
      4 C4         -0.3067   -2.0511   -1.2090 C.ar      1 <0>         0.1076
      5 C5         -0.1869   -2.7716   -0.0292 C.ar      1 <0>        -0.0478
      6 C6          0.1340   -2.1174    1.1334 C.ar      1 <0>        -0.1522
      7 C7          0.3570   -0.7229    1.1887 C.ar      1 <0>         0.1265
      8 N1          0.6699   -0.2280    2.4081 N.2       1 <0>        -0.5753
      9 C8          0.7663   -0.9886    3.4739 C.2       1 <0>         0.4113
     10 S1          0.3856   -2.6087    2.8222 S.3       1 <0>        -0.0089
     11 N2          1.0752   -0.6275    4.7703 N.pl3     1 <0>        -0.6711
     12 C9          1.1301   -1.6466    5.8213 C.3       1 <0>         0.1576
     13 C10         1.4852   -0.9963    7.1336 C.ar      1 <0>        -0.0545
     14 C11         2.8106   -0.8661    7.5042 C.ar      1 <0>        -0.1160
     15 C12         3.1363   -0.2696    8.7079 C.ar      1 <0>        -0.0187
     16 C13         2.1366    0.1972    9.5408 C.ar      1 <0>        -0.6645
     17 C14         0.8113    0.0678    9.1698 C.ar      1 <0>        -0.0186
     18 C15         0.4858   -0.5249    7.9641 C.ar      1 <0>        -0.1160
     19 S2          2.5517    0.9565   11.0757 S.o2      1 <0>         2.7008
     20 O1          1.4162    0.8162   11.9184 O.2       1 <0>        -0.9594
     21 O2          3.8348    0.4649   11.4381 O.2       1 <0>        -0.9595
     22 N3          2.7300    2.5775   10.7876 N.pl3     1 <0>        -1.2491
     23 C16        -0.4082   -4.2622   -0.0247 C.3       1 <0>        -0.1135
     24 O3         -0.6244   -2.6818   -2.3712 O.3       1 <0>        -0.4836
     25 C17        -0.2279    0.1083   -2.4689 C.3       1 <0>        -0.1161
     26 H1          1.4642    1.6855   -0.3568 H         1 <0>         0.0713
     27 H2         -0.2514    1.9280   -0.7646 H         1 <0>         0.0706
     28 H3          0.2605    1.8826    0.9395 H         1 <0>         0.0739
     29 H4          1.2558    0.3010    4.9852 H         1 <0>         0.4194
     30 H5          0.1581   -2.1322    5.9077 H         1 <0>         0.0882
     31 H6          1.8862   -2.3896    5.5677 H         1 <0>         0.0882
     32 H7          3.5916   -1.2307    6.8534 H         1 <0>         0.1398
     33 H8          4.1717   -0.1685    8.9978 H         1 <0>         0.1487
     34 H9          0.0303    0.4321    9.8207 H         1 <0>         0.1487
     35 H10        -0.5495   -0.6226    7.6725 H         1 <0>         0.1399
     36 H11         2.6030    2.9278    9.8920 H         1 <0>         0.4170
     37 H12         2.9614    3.1767   11.5145 H         1 <0>         0.4229
     38 H13         0.5370   -4.7704   -0.2159 H         1 <0>         0.0744
     39 H14        -0.7957   -4.5691    0.9467 H         1 <0>         0.0663
     40 H15        -1.1258   -4.5253   -0.8018 H         1 <0>         0.0809
     41 H16         0.1420   -2.9918   -2.8727 H         1 <0>         0.3894
     42 H17         0.7570    0.2356   -2.9183 H         1 <0>         0.0724
     43 H18        -0.8761   -0.4298   -3.1605 H         1 <0>         0.0762
     44 H19        -0.6583    1.0864   -2.2538 H         1 <0>         0.0738
@<TRIPOS>BOND
     1    1    2 1
     2    1   26 1
     3    1   27 1
     4    1   28 1
     5    2    7 ar
     6    2    3 ar
     7    3    4 ar
     8    3   25 1
     9    4    5 ar
    10    4   24 1
    11    5    6 ar
    12    5   23 1
    13    6   10 1
    14    6    7 ar
    15    7    8 1
    16    8    9 2
    17    9   10 1
    18    9   11 1
    19   11   12 1
    20   11   29 1
    21   12   13 1
    22   12   30 1
    23   12   31 1
    24   13   18 ar
    25   13   14 ar
    26   14   15 ar
    27   14   32 1
    28   15   16 ar
    29   15   33 1
    30   16   17 ar
    31   16   19 1
    32   17   18 ar
    33   17   34 1
    34   18   35 1
    35   19   20 2
    36   19   21 2
    37   19   22 1
    38   22   36 1
    39   22   37 1
    40   23   38 1
    41   23   39 1
    42   23   40 1
    43   24   41 1
    44   25   42 1
    45   25   43 1
    46   25   44 1
@<TRIPOS>MOLECULE
ZINC03779075
   79    82     0     0     0
SMALL
USER_CHARGES
3-[7-[3-[2-(cyclopropylmethyl)-3-methoxy-4-(methylcarbamoyl)phenoxy]propoxy]-8-propyl-chroman-2-yl]propanoic acid
@<TRIPOS>ATOM
      1 C1         -4.4786    2.4308    3.4628 C.3       1 <0>        -0.1513
      2 C2         -3.2212    1.5602    3.5068 C.3       1 <0>        -0.1114
      3 C3         -1.9808    2.4558    3.5164 C.3       1 <0>        -0.0627
      4 C4         -0.7423    1.5983    3.5597 C.ar      1 <0>        -0.1432
      5 C5         -0.1488    1.1821    2.3796 C.ar      1 <0>         0.1577
      6 C6          0.9944    0.3969    2.4212 C.ar      1 <0>        -0.2431
      7 C7          1.5322    0.0274    3.6378 C.ar      1 <0>        -0.0516
      8 C8          0.9382    0.4374    4.8200 C.ar      1 <0>        -0.1948
      9 C9         -0.2011    1.2235    4.7841 C.ar      1 <0>         0.1819
     10 O1         -0.8111    1.6523    5.9197 O.3       1 <0>        -0.2958
     11 C10        -0.4912    0.9856    7.1416 C.3       1 <0>         0.0913
     12 H1         -0.9171   -0.0177    7.1356 H         1 <0>         0.0705
     13 C11         1.0358    0.8980    7.2593 C.3       1 <0>        -0.1552
     14 C12         1.5549    0.0079    6.1273 C.3       1 <0>        -0.0714
     15 C13        -1.0545    1.7774    8.3235 C.3       1 <0>        -0.0904
     16 C14        -2.5834    1.7560    8.2693 C.3       1 <0>        -0.1556
     17 C15        -3.1383    2.5359    9.4333 C.2       1 <0>         0.4592
     18 O2         -2.3879    3.0555   10.2250 O.co2     1 <0>        -0.6439
     19 O3         -0.6816    1.5467    1.1837 O.3       1 <0>        -0.3038
     20 C16        -0.0127    1.0858    0.0080 C.3       1 <0>         0.0660
     21 C17        -0.7527    1.5927   -1.2315 C.3       1 <0>        -0.1200
     22 C18        -0.0366    1.0992   -2.4903 C.3       1 <0>         0.0619
     23 O4         -0.7277    1.5726   -3.6480 O.3       1 <0>        -0.2962
     24 C19        -0.2186    1.2215   -4.8561 C.ar      1 <0>         0.1813
     25 C20         0.9273    0.4342   -4.9229 C.ar      1 <0>        -0.2226
     26 C21         1.4497    0.0734   -6.1430 C.ar      1 <0>        -0.0348
     27 C22         0.8288    0.4985   -7.3220 C.ar      1 <0>        -0.2021
     28 C23        -0.3259    1.2923   -7.2530 C.ar      1 <0>         0.1999
     29 C24        -0.8455    1.6438   -6.0188 C.ar      1 <0>        -0.1419
     30 C25        -2.0894    2.4908   -5.9388 C.3       1 <0>        -0.0359
     31 C26        -1.6986    3.9699   -5.9163 C.3       1 <0>        -0.1410
     32 C27        -2.0450    4.7730   -4.6609 C.3       1 <0>        -0.1745
     33 C28        -2.8293    4.9999   -5.9549 C.3       1 <0>        -0.1803
     34 O5         -0.9348    1.7087   -8.3915 O.3       1 <0>        -0.3134
     35 C29        -1.9472    0.8586   -8.9340 C.3       1 <0>         0.0498
     36 C30         1.3853    0.1147   -8.6307 C.2       1 <0>         0.5607
     37 O6          0.8434    0.4857   -9.6543 O.2       1 <0>        -0.5199
     38 N1          2.4949   -0.6476   -8.6938 N.am      1 <0>        -0.7370
     39 C31         3.0484   -1.0293   -9.9954 C.3       1 <0>         0.0894
     40 H2         -4.5039    3.0771    4.3402 H         1 <0>         0.0590
     41 H3         -4.4654    3.0428    2.5609 H         1 <0>         0.0497
     42 H4         -5.3623    1.7928    3.4560 H         1 <0>         0.0515
     43 H5         -3.1959    0.9139    2.6294 H         1 <0>         0.0550
     44 H6         -3.2344    0.9482    4.4087 H         1 <0>         0.0621
     45 H7         -2.0061    3.1021    4.3937 H         1 <0>         0.0777
     46 H8         -1.9676    3.0678    2.6145 H         1 <0>         0.0697
     47 H9          1.4632    0.0754    1.5029 H         1 <0>         0.1241
     48 H10         2.4215   -0.5846    3.6679 H         1 <0>         0.1231
     49 H11         1.3058    0.4633    8.2217 H         1 <0>         0.0856
     50 H12         1.4694    1.8942    7.1716 H         1 <0>         0.0773
     51 H13         1.2888   -1.0294    6.3305 H         1 <0>         0.0732
     52 H14         2.6393    0.0984    6.0639 H         1 <0>         0.0767
     53 H15        -0.7177    1.3261    9.2567 H         1 <0>         0.0828
     54 H16        -0.7034    2.8080    8.2707 H         1 <0>         0.0729
     55 H17        -2.9202    2.2073    7.3360 H         1 <0>         0.0708
     56 H18        -2.9345    0.7255    8.3220 H         1 <0>         0.0609
     57 H19         0.0021   -0.0041    0.0020 H         1 <0>         0.0646
     58 H20         1.0099    1.4631    0.0003 H         1 <0>         0.0646
     59 H21        -1.7753    1.2154   -1.2238 H         1 <0>         0.0881
     60 H22        -0.7675    2.6825   -1.2255 H         1 <0>         0.0889
     61 H23         0.9860    1.4765   -2.4981 H         1 <0>         0.0698
     62 H24        -0.0218    0.0093   -2.4963 H         1 <0>         0.0692
     63 H25         1.4079    0.1052   -4.0134 H         1 <0>         0.1384
     64 H26         2.3386   -0.5381   -6.1907 H         1 <0>         0.1323
     65 H27        -2.7190    2.2945   -6.8066 H         1 <0>         0.0766
     66 H28        -2.6378    2.2460   -5.0292 H         1 <0>         0.0801
     67 H29        -0.7726    4.2194   -6.4342 H         1 <0>         0.1017
     68 H30        -2.5513    4.2477   -3.8511 H         1 <0>         0.0962
     69 H31        -1.3467    5.5511   -4.3526 H         1 <0>         0.0904
     70 H32        -2.6469    5.9273   -6.4979 H         1 <0>         0.0923
     71 H33        -3.8515    4.6238   -5.9964 H         1 <0>         0.0930
     72 H34        -1.5161   -0.1141   -9.1713 H         1 <0>         0.0483
     73 H35        -2.7463    0.7333   -8.2034 H         1 <0>         0.0431
     74 H36        -2.3513    1.3079   -9.8411 H         1 <0>         0.0959
     75 H37         2.9271   -0.9435   -7.8774 H         1 <0>         0.3990
     76 H38         3.9385   -1.6406   -9.8466 H         1 <0>         0.0753
     77 H39         2.3053   -1.5993  -10.5531 H         1 <0>         0.0599
     78 H40         3.3131   -0.1321  -10.5549 H         1 <0>         0.0606
     79 O7         -4.4661    2.6533    9.5906 O.co2     1 <0>        -0.7761
@<TRIPOS>BOND
     1    1    2 1
     2    1   40 1
     3    1   41 1
     4    1   42 1
     5    2    3 1
     6    2   43 1
     7    2   44 1
     8    3    4 1
     9    3   45 1
    10    3   46 1
    11    4    9 ar
    12    4    5 ar
    13    5    6 ar
    14    5   19 1
    15    6    7 ar
    16    6   47 1
    17    7    8 ar
    18    7   48 1
    19    8   14 1
    20    8    9 ar
    21    9   10 1
    22   10   11 1
    23   11   12 1
    24   11   13 1
    25   11   15 1
    26   13   14 1
    27   13   49 1
    28   13   50 1
    29   14   51 1
    30   14   52 1
    31   15   16 1
    32   15   53 1
    33   15   54 1
    34   16   17 1
    35   16   55 1
    36   16   56 1
    37   17   18 2
    38   17   79 1
    39   19   20 1
    40   20   21 1
    41   20   57 1
    42   20   58 1
    43   21   22 1
    44   21   59 1
    45   21   60 1
    46   22   23 1
    47   22   61 1
    48   22   62 1
    49   23   24 1
    50   24   29 ar
    51   24   25 ar
    52   25   26 ar
    53   25   63 1
    54   26   27 ar
    55   26   64 1
    56   27   28 ar
    57   27   36 1
    58   28   29 ar
    59   28   34 1
    60   29   30 1
    61   30   31 1
    62   30   65 1
    63   30   66 1
    64   31   33 1
    65   31   32 1
    66   31   67 1
    67   32   33 1
    68   32   68 1
    69   32   69 1
    70   33   70 1
    71   33   71 1
    72   34   35 1
    73   35   72 1
    74   35   73 1
    75   35   74 1
    76   36   37 2
    77   36   38 am
    78   38   39 1
    79   38   75 1
    80   39   76 1
    81   39   77 1
    82   39   78 1
@<TRIPOS>MOLECULE
ZINC03930629
   72    75     0     0     0
SMALL
USER_CHARGES
2-[3-[3-[2-ethyl-4-(4-fluorophenyl)-5-hydroxy-phenoxy]propoxy]-2-propyl-phenoxy]benzoic acid
@<TRIPOS>ATOM
      1 C1          1.1558   -4.1854   -1.6940 C.3       1 <0>        -0.1480
      2 C2          1.1565   -2.6573   -1.6191 C.3       1 <0>        -0.1130
      3 C3          1.2105   -2.2185   -0.1544 C.3       1 <0>        -0.0688
      4 C4          1.2111   -0.7133   -0.0806 C.ar      1 <0>        -0.1198
      5 C5          2.4106   -0.0179   -0.0918 C.ar      1 <0>         0.1396
      6 C6          2.4085    1.3680   -0.0243 C.ar      1 <0>        -0.2146
      7 C7          1.2121    2.0554    0.0542 C.ar      1 <0>        -0.0742
      8 C8          0.0156    1.3651    0.0656 C.ar      1 <0>        -0.1593
      9 C9          0.0122   -0.0215   -0.0018 C.ar      1 <0>         0.1333
     10 O1         -1.1650   -0.7000    0.0099 O.3       1 <0>        -0.2122
     11 C10        -1.5936   -1.2111    1.1908 C.ar      1 <0>         0.1521
     12 C11        -0.9049   -0.9316    2.3621 C.ar      1 <0>        -0.2151
     13 C12        -1.3450   -1.4490    3.5639 C.ar      1 <0>        -0.0883
     14 C13        -2.4695   -2.2575    3.6097 C.ar      1 <0>        -0.1721
     15 C14        -3.1629   -2.5500    2.4558 C.ar      1 <0>        -0.0445
     16 C15        -2.7317   -2.0292    1.2326 C.ar      1 <0>        -0.1396
     17 C16        -3.4690   -2.3376   -0.0058 C.2       1 <0>         0.4904
     18 O2         -3.0912   -1.8825   -1.0672 O.co2     1 <0>        -0.6104
     19 O3          3.5874   -0.6933   -0.1685 O.3       1 <0>        -0.3039
     20 C17         4.7842    0.0876   -0.1755 C.3       1 <0>         0.0644
     21 C18         5.9977   -0.8399   -0.2658 C.3       1 <0>        -0.1193
     22 C19         7.2791   -0.0039   -0.2733 C.3       1 <0>         0.0628
     23 O4          8.4125   -0.8701   -0.3576 O.3       1 <0>        -0.3015
     24 C20         9.6377   -0.2829   -0.3750 C.ar      1 <0>         0.1575
     25 C21         9.7431    1.0991   -0.3179 C.ar      1 <0>        -0.2328
     26 C22        10.9903    1.6994   -0.3307 C.ar      1 <0>         0.1568
     27 C23        12.1418    0.9093   -0.4119 C.ar      1 <0>        -0.1137
     28 C24        12.0271   -0.4775   -0.4743 C.ar      1 <0>        -0.0502
     29 C25        10.7804   -1.0677   -0.4557 C.ar      1 <0>        -0.1169
     30 C26        10.6583   -2.5683   -0.5227 C.3       1 <0>        -0.0759
     31 C27        10.4374   -2.9977   -1.9745 C.3       1 <0>        -0.1457
     32 C28        13.4809    1.5463   -0.4312 C.ar      1 <0>        -0.0378
     33 C29        14.4765    1.1071    0.4398 C.ar      1 <0>        -0.0801
     34 C30        15.7224    1.6996    0.4150 C.ar      1 <0>        -0.1498
     35 C31        15.9813    2.7365   -0.4666 C.ar      1 <0>         0.0954
     36 C32        14.9931    3.1798   -1.3306 C.ar      1 <0>        -0.1498
     37 C33        13.7459    2.5898   -1.3165 C.ar      1 <0>        -0.0754
     38 F1         17.2009    3.3174   -0.4835 F         1 <0>        -0.1401
     39 O5         11.0956    3.0524   -0.2701 O.3       1 <0>        -0.4900
     40 H1          1.1173   -4.4980   -2.7375 H         1 <0>         0.0522
     41 H2          2.0643   -4.5722   -1.2322 H         1 <0>         0.0483
     42 H3          0.2855   -4.5747   -1.1657 H         1 <0>         0.0573
     43 H4          0.2480   -2.2705   -2.0810 H         1 <0>         0.0717
     44 H5          2.0268   -2.2679   -2.1474 H         1 <0>         0.0558
     45 H6          2.1189   -2.6052    0.3075 H         1 <0>         0.0720
     46 H7          0.3402   -2.6078    0.3739 H         1 <0>         0.0740
     47 H8          3.3426    1.9100   -0.0333 H         1 <0>         0.1272
     48 H9          1.2127    3.1341    0.1063 H         1 <0>         0.1295
     49 H10        -0.9182    1.9047    0.1225 H         1 <0>         0.1330
     50 H11        -0.0253   -0.3056    2.3343 H         1 <0>         0.1196
     51 H12        -0.8074   -1.2253    4.4736 H         1 <0>         0.1163
     52 H13        -2.8036   -2.6605    4.5543 H         1 <0>         0.1182
     53 H14        -4.0384   -3.1812    2.4963 H         1 <0>         0.1375
     54 H15         4.7751    0.7587   -1.0344 H         1 <0>         0.0650
     55 H16         4.8416    0.6727    0.7423 H         1 <0>         0.0647
     56 H17         6.0068   -1.5110    0.5931 H         1 <0>         0.0880
     57 H18         5.9403   -1.4251   -1.1836 H         1 <0>         0.0884
     58 H19         7.2700    0.6672   -1.1321 H         1 <0>         0.0674
     59 H20         7.3365    0.5813    0.6445 H         1 <0>         0.0679
     60 H21         8.8521    1.7067   -0.2593 H         1 <0>         0.1381
     61 H22        12.9140   -1.0906   -0.5367 H         1 <0>         0.1361
     62 H23        11.5729   -3.0245   -0.1440 H         1 <0>         0.0710
     63 H24         9.8126   -2.8915    0.0844 H         1 <0>         0.0783
     64 H25        10.3491   -4.0830   -2.0230 H         1 <0>         0.0585
     65 H26         9.5228   -2.5414   -2.3533 H         1 <0>         0.0577
     66 H27        11.2831   -2.6745   -2.5816 H         1 <0>         0.0525
     67 H28        14.2742    0.3019    1.1305 H         1 <0>         0.1345
     68 H29        16.4957    1.3572    1.0867 H         1 <0>         0.1372
     69 H30        15.1992    3.9887   -2.0159 H         1 <0>         0.1368
     70 H31        12.9761    2.9363   -1.9901 H         1 <0>         0.1278
     71 H32        11.0927    3.4863   -1.1343 H         1 <0>         0.3901
     72 O6         -4.5622   -3.1242    0.0390 O.co2     1 <0>        -0.7614
@<TRIPOS>BOND
     1    1    2 1
     2    1   40 1
     3    1   41 1
     4    1   42 1
     5    2    3 1
     6    2   43 1
     7    2   44 1
     8    3    4 1
     9    3   45 1
    10    3   46 1
    11    4    9 ar
    12    4    5 ar
    13    5    6 ar
    14    5   19 1
    15    6    7 ar
    16    6   47 1
    17    7    8 ar
    18    7   48 1
    19    8    9 ar
    20    8   49 1
    21    9   10 1
    22   10   11 1
    23   11   16 ar
    24   11   12 ar
    25   12   13 ar
    26   12   50 1
    27   13   14 ar
    28   13   51 1
    29   14   15 ar
    30   14   52 1
    31   15   16 ar
    32   15   53 1
    33   16   17 1
    34   17   18 2
    35   17   72 1
    36   19   20 1
    37   20   21 1
    38   20   54 1
    39   20   55 1
    40   21   22 1
    41   21   56 1
    42   21   57 1
    43   22   23 1
    44   22   58 1
    45   22   59 1
    46   23   24 1
    47   24   29 ar
    48   24   25 ar
    49   25   26 ar
    50   25   60 1
    51   26   27 ar
    52   26   39 1
    53   27   28 ar
    54   27   32 1
    55   28   29 ar
    56   28   61 1
    57   29   30 1
    58   30   31 1
    59   30   62 1
    60   30   63 1
    61   31   64 1
    62   31   65 1
    63   31   66 1
    64   32   37 ar
    65   32   33 ar
    66   33   34 ar
    67   33   67 1
    68   34   35 ar
    69   34   68 1
    70   35   36 ar
    71   35   38 1
    72   36   37 ar
    73   36   69 1
    74   37   70 1
    75   39   71 1
@<TRIPOS>MOLECULE
ZINC03780900
   65    67     0     0     0
SMALL
USER_CHARGES
3-[3-(2-carboxyethyl)-4-[6-(4-methoxyphenyl)hex-5-enoxy]benzoyl]benzoic acid
@<TRIPOS>ATOM
      1 C1         -3.7001    7.3920    6.2864 C.3       1 <0>         0.0269
      2 O1         -3.4987    5.9883    6.4625 O.3       1 <0>        -0.3192
      3 C2         -2.8809    5.3223    5.4523 C.ar      1 <0>         0.1208
      4 C3         -2.6545    3.9565    5.5599 C.ar      1 <0>        -0.1498
      5 C4         -2.0279    3.2771    4.5370 C.ar      1 <0>        -0.0716
      6 C5         -1.6205    3.9641    3.3922 C.ar      1 <0>        -0.0851
      7 C6         -1.8443    5.3380    3.2905 C.ar      1 <0>        -0.0770
      8 C7         -2.4770    6.0092    4.3151 C.ar      1 <0>        -0.2051
      9 C8         -0.9486    3.2396    2.2934 C.2       1 <0>        -0.1251
     10 C9         -0.5622    3.8939    1.2068 C.2       1 <0>        -0.1380
     11 C10         0.1230    3.1551    0.0862 C.3       1 <0>        -0.0928
     12 C11        -0.6327    3.3978   -1.2218 C.3       1 <0>        -0.1095
     13 C12         0.0630    2.6477   -2.3595 C.3       1 <0>        -0.1224
     14 C13        -0.6927    2.8905   -3.6675 C.3       1 <0>         0.0575
     15 O2         -0.0429    2.1899   -4.7301 O.3       1 <0>        -0.2997
     16 C14        -0.5905    2.3009   -5.9666 C.ar      1 <0>         0.1543
     17 C15        -1.7335    3.0711   -6.1521 C.ar      1 <0>        -0.2197
     18 C16        -2.2923    3.1864   -7.4045 C.ar      1 <0>        -0.0548
     19 C17        -1.7089    2.5275   -8.4917 C.ar      1 <0>        -0.1866
     20 C18        -0.5597    1.7541   -8.3007 C.ar      1 <0>        -0.0290
     21 C19        -0.0041    1.6489   -7.0454 C.ar      1 <0>        -0.1077
     22 C20         1.2382    0.8210   -6.8394 C.3       1 <0>        -0.0527
     23 C21         0.8438   -0.5874   -6.3903 C.3       1 <0>        -0.1473
     24 C22         2.0861   -1.4152   -6.1843 C.2       1 <0>         0.4624
     25 O3          3.1752   -0.9286   -6.3769 O.co2     1 <0>        -0.6426
     26 C23        -2.3039    2.6485   -9.8358 C.2       1 <0>         0.4439
     27 O4         -1.5887    2.6525  -10.8191 O.2       1 <0>        -0.4537
     28 C24        -3.7694    2.7649   -9.9874 C.ar      1 <0>        -0.1809
     29 C25        -4.6041    2.5969   -8.8787 C.ar      1 <0>        -0.0851
     30 C26        -5.9727    2.7100   -9.0178 C.ar      1 <0>        -0.1535
     31 C27        -6.5279    2.9793  -10.2534 C.ar      1 <0>        -0.0480
     32 C28        -5.7059    3.1444  -11.3713 C.ar      1 <0>        -0.1302
     33 C29        -4.3229    3.0368  -11.2373 C.ar      1 <0>        -0.0250
     34 C30        -6.3017    3.4319  -12.6924 C.2       1 <0>         0.4916
     35 O5         -5.5859    3.5748  -13.6633 O.co2     1 <0>        -0.6274
     36 H1         -4.2020    7.8000    7.1638 H         1 <0>         0.0991
     37 H2         -2.7360    7.8841    6.1577 H         1 <0>         0.0552
     38 H3         -4.3158    7.5628    5.4034 H         1 <0>         0.0559
     39 H4         -2.9701    3.4257    6.4459 H         1 <0>         0.1307
     40 H5         -1.8522    2.2149    4.6214 H         1 <0>         0.1322
     41 H6         -1.5264    5.8738    2.4083 H         1 <0>         0.1281
     42 H7         -2.6545    7.0715    4.2352 H         1 <0>         0.1279
     43 H8         -0.7721    2.1773    2.3755 H         1 <0>         0.1197
     44 H9         -0.7386    4.9562    1.1247 H         1 <0>         0.1114
     45 H10         0.1331    2.0878    0.3073 H         1 <0>         0.0722
     46 H11         1.1470    3.5151   -0.0136 H         1 <0>         0.0775
     47 H12        -1.6567    3.0378   -1.1220 H         1 <0>         0.0666
     48 H13        -0.6427    4.4651   -1.4430 H         1 <0>         0.0651
     49 H14         1.0870    3.0078   -2.4593 H         1 <0>         0.0758
     50 H15         0.0731    1.5805   -2.1384 H         1 <0>         0.0782
     51 H16        -1.7167    2.5304   -3.5677 H         1 <0>         0.0615
     52 H17        -0.7027    3.9577   -3.8887 H         1 <0>         0.0599
     53 H18        -2.1831    3.5798   -5.3121 H         1 <0>         0.1295
     54 H19        -3.1797    3.7851   -7.5478 H         1 <0>         0.1364
     55 H20        -0.1060    1.2437   -9.1374 H         1 <0>         0.1369
     56 H21         1.7945    0.7617   -7.7749 H         1 <0>         0.0708
     57 H22         1.8614    1.2850   -6.0749 H         1 <0>         0.0755
     58 H23         0.2875   -0.5280   -5.4548 H         1 <0>         0.0643
     59 H24         0.2207   -1.0514   -7.1548 H         1 <0>         0.0622
     60 H25        -4.1768    2.3821   -7.9103 H         1 <0>         0.1329
     61 H26        -6.6127    2.5830   -8.1572 H         1 <0>         0.1223
     62 H27        -7.5998    3.0621  -10.3559 H         1 <0>         0.1334
     63 H28        -3.6830    3.1639  -12.0980 H         1 <0>         0.1377
     64 O6          1.9828   -2.6931   -5.7868 O.co2     1 <0>        -0.7803
     65 O7         -7.6387    3.5356  -12.8201 O.co2     1 <0>        -0.7572
@<TRIPOS>BOND
     1    1    2 1
     2    1   36 1
     3    1   37 1
     4    1   38 1
     5    2    3 1
     6    3    8 ar
     7    3    4 ar
     8    4    5 ar
     9    4   39 1
    10    5    6 ar
    11    5   40 1
    12    6    7 ar
    13    6    9 1
    14    7    8 ar
    15    7   41 1
    16    8   42 1
    17    9   10 2
    18    9   43 1
    19   10   11 1
    20   10   44 1
    21   11   12 1
    22   11   45 1
    23   11   46 1
    24   12   13 1
    25   12   47 1
    26   12   48 1
    27   13   14 1
    28   13   49 1
    29   13   50 1
    30   14   15 1
    31   14   51 1
    32   14   52 1
    33   15   16 1
    34   16   21 ar
    35   16   17 ar
    36   17   18 ar
    37   17   53 1
    38   18   19 ar
    39   18   54 1
    40   19   20 ar
    41   19   26 1
    42   20   21 ar
    43   20   55 1
    44   21   22 1
    45   22   23 1
    46   22   56 1
    47   22   57 1
    48   23   24 1
    49   23   58 1
    50   23   59 1
    51   24   25 2
    52   24   64 1
    53   26   27 2
    54   26   28 1
    55   28   33 ar
    56   28   29 ar
    57   29   30 ar
    58   29   60 1
    59   30   31 ar
    60   30   61 1
    61   31   32 ar
    62   31   62 1
    63   32   33 ar
    64   32   34 1
    65   33   63 1
    66   34   35 2
    67   34   65 1
@<TRIPOS>MOLECULE
ZINC00012342
   44    45     0     0     0
SMALL
USER_CHARGES

@<TRIPOS>ATOM
      1 C1         -0.0187    1.5258    0.0104 C.3       1 <0>        -0.1561
      2 C2          0.0021   -0.0041    0.0020 C.3       1 <0>        -0.0796
      3 H1          0.5293   -0.3651    0.8851 H         1 <0>         0.0729
      4 C3          0.7182   -0.4975   -1.2568 C.3       1 <0>        -0.0804
      5 C4          2.1652   -0.0794   -1.2080 C.ar      1 <0>        -0.0687
      6 C5          2.5498    1.1377   -1.7391 C.ar      1 <0>        -0.1081
      7 C6          3.8760    1.5258   -1.6968 C.ar      1 <0>        -0.1282
      8 C7          4.8231    0.6944   -1.1208 C.ar      1 <0>         0.0741
      9 C8          4.4359   -0.5305   -0.5858 C.ar      1 <0>         0.0830
     10 C9          3.1042   -0.9112   -0.6272 C.ar      1 <0>        -0.1289
     11 O1          5.3617   -1.3499   -0.0194 O.3       1 <0>        -0.4885
     12 O2          6.1281    1.0745   -1.0788 O.3       1 <0>        -0.4888
     13 C10        -1.4333   -0.5336    0.0129 C.3       1 <0>        -0.0796
     14 H2         -1.9605   -0.1726   -0.8702 H         1 <0>         0.0741
     15 C11        -1.4126   -2.0635    0.0045 C.3       1 <0>        -0.1556
     16 C12        -2.1494   -0.0402    1.2717 C.3       1 <0>        -0.0803
     17 C13        -3.5965   -0.4583    1.2229 C.ar      1 <0>        -0.0689
     18 C14        -4.5346    0.3711    0.6369 C.ar      1 <0>        -0.1099
     19 C15        -5.8633   -0.0079    0.5896 C.ar      1 <0>        -0.1274
     20 C16        -6.2571   -1.2216    1.1299 C.ar      1 <0>         0.0740
     21 C17        -5.3128   -2.0566    1.7193 C.ar      1 <0>         0.0821
     22 C18        -3.9819   -1.6728    1.7591 C.ar      1 <0>        -0.1267
     23 O3         -5.6945   -3.2487    2.2510 O.3       1 <0>        -0.4883
     24 O4         -7.5638   -1.5957    1.0847 O.3       1 <0>        -0.4888
     25 H3          1.0039    1.9031    0.0027 H         1 <0>         0.0591
     26 H4         -0.5459    1.8868   -0.8726 H         1 <0>         0.0559
     27 H5         -0.5289    1.8773    0.9072 H         1 <0>         0.0587
     28 H6          0.6556   -1.5845   -1.3079 H         1 <0>         0.0790
     29 H7          0.2444   -0.0644   -2.1377 H         1 <0>         0.0758
     30 H8          1.8126    1.7866   -2.1884 H         1 <0>         0.1297
     31 H9          4.1739    2.4768   -2.1131 H         1 <0>         0.1330
     32 H10         2.8006   -1.8597   -0.2093 H         1 <0>         0.1318
     33 H11         5.4917   -1.2014    0.9273 H         1 <0>         0.3874
     34 H12         6.3681    1.5701   -0.2838 H         1 <0>         0.3869
     35 H13        -0.9024   -2.4150   -0.8923 H         1 <0>         0.0589
     36 H14        -0.8854   -2.4246    0.8875 H         1 <0>         0.0553
     37 H15        -2.4352   -2.4408    0.0122 H         1 <0>         0.0575
     38 H16        -1.6756   -0.4733    2.1526 H         1 <0>         0.0744
     39 H17        -2.0868    1.0468    1.3228 H         1 <0>         0.0805
     40 H18        -4.2289    1.3173    0.2154 H         1 <0>         0.1294
     41 H19        -6.5943    0.6421    0.1319 H         1 <0>         0.1330
     42 H20        -3.2464   -2.3207    2.2126 H         1 <0>         0.1323
     43 H21        -5.6653   -3.9856    1.6255 H         1 <0>         0.3872
     44 H22        -7.8025   -2.0960    0.2923 H         1 <0>         0.3869
@<TRIPOS>BOND
     1    1    2 1
     2    1   25 1
     3    1   26 1
     4    1   27 1
     5    2    3 1
     6    2    4 1
     7    2   13 1
     8    4    5 1
     9    4   28 1
    10    4   29 1
    11    5   10 ar
    12    5    6 ar
    13    6    7 ar
    14    6   30 1
    15    7    8 ar
    16    7   31 1
    17    8    9 ar
    18    8   12 1
    19    9   10 ar
    20    9   11 1
    21   10   32 1
    22   11   33 1
    23   12   34 1
    24   13   14 1
    25   13   15 1
    26   13   16 1
    27   15   35 1
    28   15   36 1
    29   15   37 1
    30   16   17 1
    31   16   38 1
    32   16   39 1
    33   17   22 ar
    34   17   18 ar
    35   18   19 ar
    36   18   40 1
    37   19   20 ar
    38   19   41 1
    39   20   21 ar
    40   20   24 1
    41   21   22 ar
    42   21   23 1
    43   22   42 1
    44   23   43 1
    45   24   44 1
@<TRIPOS>MOLECULE
ZINC00056472
   44    45     0     0     0
SMALL
USER_CHARGES

@<TRIPOS>ATOM
      1 C1         -0.0187    1.5258    0.0104 C.3       1 <0>        -0.1531
      2 C2          0.0021   -0.0041    0.0020 C.3       1 <0>        -0.0796
      3 H1          0.5293   -0.3651    0.8851 H         1 <0>         0.0740
      4 C3         -1.4333   -0.5336    0.0129 C.3       1 <0>        -0.0824
      5 C4         -2.1001   -0.1511    1.3091 C.ar      1 <0>        -0.0689
      6 C5         -2.0198   -0.9949    2.4013 C.ar      1 <0>        -0.1099
      7 C6         -2.6297   -0.6485    3.5925 C.ar      1 <0>        -0.1273
      8 C7         -3.3231    0.5469    3.6939 C.ar      1 <0>         0.0740
      9 C8         -3.4036    1.3964    2.5947 C.ar      1 <0>         0.0820
     10 C9         -2.7858    1.0454    1.4050 C.ar      1 <0>        -0.1267
     11 O1         -4.0829    2.5707    2.6892 O.3       1 <0>        -0.4883
     12 O2         -3.9241    0.8890    4.8649 O.3       1 <0>        -0.4888
     13 C10         0.7182   -0.4975   -1.2568 C.3       1 <0>        -0.0796
     14 H2          0.1910   -0.1364   -2.1398 H         1 <0>         0.0740
     15 C11         2.1536    0.0321   -1.2676 C.3       1 <0>        -0.1531
     16 C12         0.7390   -2.0273   -1.2652 C.3       1 <0>        -0.0824
     17 C13         1.3339   -2.5145   -2.5613 C.ar      1 <0>        -0.0689
     18 C14         0.5162   -2.7441   -3.6522 C.ar      1 <0>        -0.1099
     19 C15         1.0571   -3.1910   -4.8433 C.ar      1 <0>        -0.1273
     20 C16         2.4216   -3.4095   -4.9459 C.ar      1 <0>         0.0740
     21 C17         3.2446   -3.1780   -3.8479 C.ar      1 <0>         0.0820
     22 C18         2.6966   -2.7254   -2.6584 C.ar      1 <0>        -0.1267
     23 O3          4.5844   -3.3909   -3.9436 O.3       1 <0>        -0.4884
     24 O4          2.9552   -3.8496   -6.1168 O.3       1 <0>        -0.4888
     25 H3          1.0039    1.9031    0.0027 H         1 <0>         0.0586
     26 H4         -0.5459    1.8868   -0.8726 H         1 <0>         0.0549
     27 H5         -0.5289    1.8773    0.9072 H         1 <0>         0.0570
     28 H6         -1.9862   -0.1019   -0.8214 H         1 <0>         0.0754
     29 H7         -1.4207   -1.6194   -0.0826 H         1 <0>         0.0803
     30 H8         -1.4796   -1.9269    2.3236 H         1 <0>         0.1296
     31 H9         -2.5661   -1.3097    4.4441 H         1 <0>         0.1331
     32 H10        -2.8436    1.7047    0.5515 H         1 <0>         0.1323
     33 H11        -3.5398    3.3172    2.9769 H         1 <0>         0.3871
     34 H12        -3.3584    1.3947    5.4643 H         1 <0>         0.3869
     35 H13         2.1388    1.1220   -1.2617 H         1 <0>         0.0587
     36 H14         2.6808   -0.3290   -0.3846 H         1 <0>         0.0549
     37 H15         2.6638   -0.3194   -2.1644 H         1 <0>         0.0570
     38 H16         1.3413   -2.3871   -0.4310 H         1 <0>         0.0754
     39 H17        -0.2789   -2.4050   -1.1679 H         1 <0>         0.0803
     40 H18        -0.5474   -2.5742   -3.5736 H         1 <0>         0.1296
     41 H19         0.4161   -3.3703   -5.6939 H         1 <0>         0.1331
     42 H20         3.3337   -2.5414   -1.8059 H         1 <0>         0.1323
     43 H21         5.0860   -2.6165   -4.2331 H         1 <0>         0.3871
     44 H22         3.2237   -3.1410   -6.7176 H         1 <0>         0.3869
@<TRIPOS>BOND
     1    1    2 1
     2    1   25 1
     3    1   26 1
     4    1   27 1
     5    2    3 1
     6    2    4 1
     7    2   13 1
     8    4    5 1
     9    4   28 1
    10    4   29 1
    11    5   10 ar
    12    5    6 ar
    13    6    7 ar
    14    6   30 1
    15    7    8 ar
    16    7   31 1
    17    8    9 ar
    18    8   12 1
    19    9   10 ar
    20    9   11 1
    21   10   32 1
    22   11   33 1
    23   12   34 1
    24   13   14 1
    25   13   15 1
    26   13   16 1
    27   15   35 1
    28   15   36 1
    29   15   37 1
    30   16   17 1
    31   16   38 1
    32   16   39 1
    33   17   22 ar
    34   17   18 ar
    35   18   19 ar
    36   18   40 1
    37   19   20 ar
    38   19   41 1
    39   20   21 ar
    40   20   24 1
    41   21   22 ar
    42   21   23 1
    43   22   42 1
    44   23   43 1
    45   24   44 1
@<TRIPOS>MOLECULE
ZINC00056474
   44    45     0     0     0
SMALL
USER_CHARGES

@<TRIPOS>ATOM
      1 C1         -0.0187    1.5258    0.0104 C.3       1 <0>        -0.1537
      2 C2          0.0021   -0.0041    0.0020 C.3       1 <0>        -0.0795
      3 H1          0.5293   -0.3651    0.8851 H         1 <0>         0.0731
      4 C3          0.7182   -0.4975   -1.2568 C.3       1 <0>        -0.0826
      5 C4          2.1652   -0.0794   -1.2080 C.ar      1 <0>        -0.0685
      6 C5          2.5498    1.1377   -1.7391 C.ar      1 <0>        -0.1081
      7 C6          3.8760    1.5258   -1.6968 C.ar      1 <0>        -0.1282
      8 C7          4.8231    0.6944   -1.1208 C.ar      1 <0>         0.0741
      9 C8          4.4359   -0.5305   -0.5858 C.ar      1 <0>         0.0831
     10 C9          3.1042   -0.9112   -0.6272 C.ar      1 <0>        -0.1290
     11 O1          5.3617   -1.3499   -0.0194 O.3       1 <0>        -0.4884
     12 O2          6.1281    1.0745   -1.0788 O.3       1 <0>        -0.4888
     13 C10        -1.4333   -0.5336    0.0129 C.3       1 <0>        -0.0794
     14 H2         -1.9605   -0.1726   -0.8702 H         1 <0>         0.0731
     15 C11        -2.1494   -0.0402    1.2717 C.3       1 <0>        -0.1537
     16 C12        -1.4126   -2.0635    0.0045 C.3       1 <0>        -0.0827
     17 C13        -2.8221   -2.5844   -0.1087 C.ar      1 <0>        -0.0685
     18 C14        -3.5623   -2.8252    1.0339 C.ar      1 <0>        -0.1081
     19 C15        -4.8557   -3.3030    0.9354 C.ar      1 <0>        -0.1282
     20 C16        -5.4133   -3.5412   -0.3106 C.ar      1 <0>         0.0741
     21 C17        -4.6685   -3.2984   -1.4606 C.ar      1 <0>         0.0831
     22 C18        -3.3742   -2.8149   -1.3550 C.ar      1 <0>        -0.1289
     23 O3         -5.2113   -3.5306   -2.6858 O.3       1 <0>        -0.4884
     24 O4         -6.6854   -4.0117   -0.4092 O.3       1 <0>        -0.4888
     25 H3          1.0039    1.9031    0.0027 H         1 <0>         0.0588
     26 H4         -0.5459    1.8868   -0.8726 H         1 <0>         0.0549
     27 H5         -0.5289    1.8773    0.9072 H         1 <0>         0.0586
     28 H6          0.6556   -1.5845   -1.3079 H         1 <0>         0.0790
     29 H7          0.2444   -0.0644   -2.1377 H         1 <0>         0.0763
     30 H8          1.8126    1.7866   -2.1884 H         1 <0>         0.1296
     31 H9          4.1739    2.4768   -2.1131 H         1 <0>         0.1329
     32 H10         2.8006   -1.8597   -0.2093 H         1 <0>         0.1321
     33 H11         5.4917   -1.2014    0.9273 H         1 <0>         0.3874
     34 H12         6.3681    1.5701   -0.2838 H         1 <0>         0.3869
     35 H13        -3.1720   -0.4175    1.2794 H         1 <0>         0.0588
     36 H14        -1.6223   -0.4013    2.1547 H         1 <0>         0.0549
     37 H15        -2.1642    1.0497    1.2777 H         1 <0>         0.0586
     38 H16        -0.8263   -2.4142   -0.8449 H         1 <0>         0.0790
     39 H17        -0.9645   -2.4259    0.9297 H         1 <0>         0.0763
     40 H18        -3.1289   -2.6399    2.0056 H         1 <0>         0.1296
     41 H19        -5.4316   -3.4910    1.8295 H         1 <0>         0.1329
     42 H20        -2.7953   -2.6221   -2.2461 H         1 <0>         0.1322
     43 H21        -5.6728   -2.7688   -3.0623 H         1 <0>         0.3874
     44 H22        -7.3582   -3.3189   -0.4598 H         1 <0>         0.3869
@<TRIPOS>BOND
     1    1    2 1
     2    1   25 1
     3    1   26 1
     4    1   27 1
     5    2    3 1
     6    2    4 1
     7    2   13 1
     8    4    5 1
     9    4   28 1
    10    4   29 1
    11    5   10 ar
    12    5    6 ar
    13    6    7 ar
    14    6   30 1
    15    7    8 ar
    16    7   31 1
    17    8    9 ar
    18    8   12 1
    19    9   10 ar
    20    9   11 1
    21   10   32 1
    22   11   33 1
    23   12   34 1
    24   13   14 1
    25   13   15 1
    26   13   16 1
    27   15   35 1
    28   15   36 1
    29   15   37 1
    30   16   17 1
    31   16   38 1
    32   16   39 1
    33   17   22 ar
    34   17   18 ar
    35   18   19 ar
    36   18   40 1
    37   19   20 ar
    38   19   41 1
    39   20   21 ar
    40   20   24 1
    41   21   22 ar
    42   21   23 1
    43   22   42 1
    44   23   43 1
    45   24   44 1
@<TRIPOS>MOLECULE
ZINC04623738
   55    54     0     0     0
SMALL
USER_CHARGES

@<TRIPOS>ATOM
      1 C1         -0.1387    1.7198   -0.3940 C.3       1 <0>        -0.1546
      2 C2         -0.0915    0.1908   -0.4203 C.3       1 <0>        -0.1246
      3 C3         -1.4944   -0.3672   -0.1730 C.3       1 <0>        -0.1231
      4 C4         -1.4472   -1.8963   -0.1994 C.3       1 <0>        -0.1124
      5 C5         -2.8501   -2.4542    0.0480 C.3       1 <0>        -0.1047
      6 C6         -2.8036   -3.9603    0.0220 C.2       1 <0>        -0.1581
      7 C7         -3.3042   -4.6484    1.0180 C.2       1 <0>        -0.1547
      8 C8         -4.0752   -3.9467    2.1063 C.3       1 <0>        -0.1286
      9 C9         -5.4455   -4.6077    2.2679 C.3       1 <0>         0.1438
     10 H1         -5.9602   -4.6166    1.3071 H         1 <0>         0.1027
     11 C10        -6.2627   -3.8317    3.2684 C.2       1 <0>        -0.1946
     12 C11        -7.4236   -3.2883    2.9026 C.2       1 <0>        -0.0985
     13 C12        -8.2178   -2.5340    3.8751 C.2       1 <0>        -0.1327
     14 C13        -9.3927   -1.9841    3.5049 C.2       1 <0>        -0.1072
     15 C14       -10.1870   -1.2298    4.4773 C.2       1 <0>        -0.1310
     16 C15       -11.3013   -0.6095    4.0899 C.2       1 <0>        -0.1590
     17 C16       -11.8249   -0.8051    2.6903 C.3       1 <0>         0.1242
     18 H2        -11.2169   -1.5491    2.1756 H         1 <0>         0.1071
     19 C17       -11.7585    0.5216    1.9310 C.3       1 <0>        -0.1491
     20 C18       -12.1720    0.2971    0.4751 C.3       1 <0>        -0.0894
     21 C19       -12.1057    1.6237   -0.2842 C.3       1 <0>        -0.1838
     22 C20       -12.5129    1.4026   -1.7182 C.2       1 <0>         0.4876
     23 O1        -12.8271    0.2874   -2.0977 O.co2     1 <0>        -0.6976
     24 O2        -12.5282    2.3390   -2.4989 O.co2     1 <0>        -0.7098
     25 O3        -13.1803   -1.2541    2.7472 O.3       1 <0>        -0.5513
     26 O4         -5.2758   -5.9493    2.7297 O.3       1 <0>        -0.5556
     27 H3          0.8608    2.1173   -0.5702 H         1 <0>         0.0522
     28 H4         -0.8138    2.0759   -1.1722 H         1 <0>         0.0548
     29 H5         -0.4969    2.0555    0.5793 H         1 <0>         0.0534
     30 H6          0.2667   -0.1449   -1.3935 H         1 <0>         0.0600
     31 H7          0.5836   -0.1654    0.3579 H         1 <0>         0.0590
     32 H8         -1.8526   -0.0315    0.8002 H         1 <0>         0.0613
     33 H9         -2.1695   -0.0111   -0.9512 H         1 <0>         0.0634
     34 H10        -1.0890   -2.2320   -1.1726 H         1 <0>         0.0612
     35 H11        -0.7721   -2.2524    0.5788 H         1 <0>         0.0601
     36 H12        -3.2083   -2.1186    1.0212 H         1 <0>         0.0752
     37 H13        -3.5252   -2.0981   -0.7302 H         1 <0>         0.0713
     38 H14        -2.3574   -4.4724   -0.8177 H         1 <0>         0.1086
     39 H15        -3.1644   -5.7185    1.0592 H         1 <0>         0.1123
     40 H16        -3.5249   -4.0170    3.0446 H         1 <0>         0.0721
     41 H17        -4.2068   -2.8980    1.8400 H         1 <0>         0.0882
     42 H18        -5.9078   -3.7159    4.2818 H         1 <0>         0.1130
     43 H19        -7.7785   -3.4041    1.8892 H         1 <0>         0.1172
     44 H20        -7.8629   -2.4182    4.8885 H         1 <0>         0.1140
     45 H21        -9.7476   -2.0999    2.4914 H         1 <0>         0.1237
     46 H22        -9.8697   -1.1762    5.5083 H         1 <0>         0.1152
     47 H23       -11.8290    0.0332    4.7789 H         1 <0>         0.1165
     48 H24       -12.4352    1.2396    2.3943 H         1 <0>         0.0611
     49 H25       -10.7401    0.9085    1.9639 H         1 <0>         0.0662
     50 H26       -11.4953   -0.4210    0.0118 H         1 <0>         0.0576
     51 H27       -13.1905   -0.0899    0.4422 H         1 <0>         0.0661
     52 H28       -12.7823    2.3418    0.1791 H         1 <0>         0.0538
     53 H29       -11.0872    2.0107   -0.2513 H         1 <0>         0.0534
     54 H30       -13.7930   -0.6084    3.1249 H         1 <0>         0.3717
     55 H31        -4.8237   -6.0178    3.5817 H         1 <0>         0.3725
@<TRIPOS>BOND
     1    1    2 1
     2    1   27 1
     3    1   28 1
     4    1   29 1
     5    2    3 1
     6    2   30 1
     7    2   31 1
     8    3    4 1
     9    3   32 1
    10    3   33 1
    11    4    5 1
    12    4   34 1
    13    4   35 1
    14    5    6 1
    15    5   36 1
    16    5   37 1
    17    6    7 2
    18    6   38 1
    19    7    8 1
    20    7   39 1
    21    8    9 1
    22    8   40 1
    23    8   41 1
    24    9   10 1
    25    9   11 1
    26    9   26 1
    27   11   12 2
    28   11   42 1
    29   12   13 1
    30   12   43 1
    31   13   14 2
    32   13   44 1
    33   14   15 1
    34   14   45 1
    35   15   16 2
    36   15   46 1
    37   16   17 1
    38   16   47 1
    39   17   18 1
    40   17   19 1
    41   17   25 1
    42   19   20 1
    43   19   48 1
    44   19   49 1
    45   20   21 1
    46   20   50 1
    47   20   51 1
    48   21   22 1
    49   21   52 1
    50   21   53 1
    51   22   23 2
    52   22   24 1
    53   25   54 1
    54   26   55 1
@<TRIPOS>MOLECULE
ZINC03808386
   54    55     0     0     0
SMALL
USER_CHARGES
2-[1-hydroxy-3-(3-hydroxy-7-phenyl-hept-1-enyl)-cyclohexyl]acetic acid
@<TRIPOS>ATOM
      1 C1         12.7869   13.6619   -0.3142 C.ar      1 <0>        -0.1285
      2 C2         11.9888   13.7626   -1.4384 C.ar      1 <0>        -0.1187
      3 C3         10.6459   13.4435   -1.3635 C.ar      1 <0>        -0.1189
      4 C4         10.1011   13.0233   -0.1645 C.ar      1 <0>        -0.0782
      5 C5         10.8981   12.9277    0.9609 C.ar      1 <0>        -0.1192
      6 C6         12.2420   13.2426    0.8850 C.ar      1 <0>        -0.1189
      7 C7          8.6371   12.6754   -0.0828 C.3       1 <0>        -0.0831
      8 C8          8.4478   11.1897   -0.3955 C.3       1 <0>        -0.1122
      9 C9          6.9614   10.8365   -0.3126 C.3       1 <0>        -0.1167
     10 C10         6.7720    9.3508   -0.6254 C.3       1 <0>        -0.1460
     11 C11         5.2857    8.9976   -0.5425 C.3       1 <0>         0.1401
     12 H1          4.8968    9.2894    0.4331 H         1 <0>         0.0959
     13 C12         5.1111    7.5124   -0.7291 C.2       1 <0>        -0.2089
     14 C13         4.5595    6.7938    0.2171 C.2       1 <0>        -0.1133
     15 C14         4.3849    5.3086    0.0305 C.3       1 <0>        -0.0558
     16 H2          4.7738    5.0168   -0.9450 H         1 <0>         0.0820
     17 C15         5.1481    4.5636    1.1275 C.3       1 <0>        -0.1068
     18 C16         4.9709    3.0557    0.9380 C.3       1 <0>        -0.1117
     19 C17         3.4845    2.7025    1.0209 C.3       1 <0>        -0.1476
     20 C18         2.7213    3.4475   -0.0760 C.3       1 <0>         0.1571
     21 C19         2.8985    4.9554    0.1134 C.3       1 <0>        -0.0963
     22 C20         1.2350    3.0943    0.0069 C.3       1 <0>        -0.1892
     23 C21         0.4938    3.7737   -1.1157 C.2       1 <0>         0.4605
     24 O1          1.1054    4.3771   -1.9652 O.co2     1 <0>        -0.6138
     25 O2          3.2312    3.0649   -1.3550 O.3       1 <0>        -0.5335
     26 O3          4.5729    9.6934   -1.5670 O.3       1 <0>        -0.5574
     27 H3         13.8362   13.9106   -0.3729 H         1 <0>         0.1194
     28 H4         12.4145   14.0903   -2.3753 H         1 <0>         0.1205
     29 H5         10.0223   13.5222   -2.2418 H         1 <0>         0.1211
     30 H6         10.4716   12.6036    1.8987 H         1 <0>         0.1207
     31 H7         12.8656   13.1636    1.7632 H         1 <0>         0.1203
     32 H8          8.0809   13.2726   -0.8054 H         1 <0>         0.0727
     33 H9          8.2693   12.8850    0.9216 H         1 <0>         0.0719
     34 H10         9.0040   10.5926    0.3270 H         1 <0>         0.0615
     35 H11         8.8155   10.9801   -1.4000 H         1 <0>         0.0621
     36 H12         6.4052   11.4337   -1.0352 H         1 <0>         0.0695
     37 H13         6.5936   11.0461    0.6918 H         1 <0>         0.0611
     38 H14         7.3283    8.7537    0.0972 H         1 <0>         0.0707
     39 H15         7.1398    9.1412   -1.6298 H         1 <0>         0.0652
     40 H16         5.4409    7.0405   -1.6429 H         1 <0>         0.1109
     41 H17         4.2297    7.2656    1.1309 H         1 <0>         0.1045
     42 H18         6.2070    4.8152    1.0684 H         1 <0>         0.0553
     43 H19         4.7592    4.8554    2.1030 H         1 <0>         0.0570
     44 H20         5.3598    2.7639   -0.0375 H         1 <0>         0.0667
     45 H21         5.5146    2.5249    1.7195 H         1 <0>         0.0533
     46 H22         3.0956    2.9943    1.9965 H         1 <0>         0.0648
     47 H23         3.3583    1.6283    0.8860 H         1 <0>         0.0582
     48 H24         2.3548    5.4861   -0.6681 H         1 <0>         0.0983
     49 H25         2.5096    5.2472    1.0890 H         1 <0>         0.0575
     50 H26         0.8343    3.4310    0.9630 H         1 <0>         0.0670
     51 H27         1.1128    2.0145   -0.0782 H         1 <0>         0.0623
     52 H28         3.1516    2.1198   -1.5435 H         1 <0>         0.3575
     53 H29         4.8668    9.4820   -2.4637 H         1 <0>         0.3740
     54 O4         -0.8457    3.7085   -1.1717 O.co2     1 <0>        -0.7847
@<TRIPOS>BOND
     1    1    6 ar
     2    1    2 ar
     3    1   27 1
     4    2    3 ar
     5    2   28 1
     6    3    4 ar
     7    3   29 1
     8    4    5 ar
     9    4    7 1
    10    5    6 ar
    11    5   30 1
    12    6   31 1
    13    7    8 1
    14    7   32 1
    15    7   33 1
    16    8    9 1
    17    8   34 1
    18    8   35 1
    19    9   10 1
    20    9   36 1
    21    9   37 1
    22   10   11 1
    23   10   38 1
    24   10   39 1
    25   11   12 1
    26   11   13 1
    27   11   26 1
    28   13   14 2
    29   13   40 1
    30   14   15 1
    31   14   41 1
    32   15   16 1
    33   15   21 1
    34   15   17 1
    35   17   18 1
    36   17   42 1
    37   17   43 1
    38   18   19 1
    39   18   44 1
    40   18   45 1
    41   19   20 1
    42   19   46 1
    43   19   47 1
    44   20   21 1
    45   20   22 1
    46   20   25 1
    47   21   48 1
    48   21   49 1
    49   22   23 1
    50   22   50 1
    51   22   51 1
    52   23   24 2
    53   23   54 1
    54   25   52 1
    55   26   53 1
@<TRIPOS>MOLECULE
ZINC13905555
   54    55     0     0     0
SMALL
USER_CHARGES
2-[(1S,3S)-1-hydroxy-3-[(E,3S)-3-hydroxy-7-phenyl-hept-1-enyl]cyclohexyl]acetic acid
@<TRIPOS>ATOM
      1 C1         -4.2292    9.4821   -5.8666 C.ar      1 <0>        -0.1285
      2 C2         -4.8316    9.2844   -4.6382 C.ar      1 <0>        -0.1187
      3 C3         -4.0942    8.7906   -3.5783 C.ar      1 <0>        -0.1189
      4 C4         -2.7546    8.4941   -3.7470 C.ar      1 <0>        -0.0783
      5 C5         -2.1510    8.6968   -4.9740 C.ar      1 <0>        -0.1192
      6 C6         -2.8894    9.1865   -6.0350 C.ar      1 <0>        -0.1190
      7 C7         -1.9507    7.9557   -2.5916 C.3       1 <0>        -0.0831
      8 C8         -2.0252    6.4275   -2.5866 C.3       1 <0>        -0.1123
      9 C9         -1.2090    5.8809   -1.4136 C.3       1 <0>        -0.1169
     10 C10        -1.2835    4.3528   -1.4087 C.3       1 <0>        -0.1437
     11 C11        -0.4674    3.8062   -0.2356 C.3       1 <0>         0.1383
     12 H1         -0.8147    4.2612    0.6920 H         1 <0>         0.1042
     13 C12        -0.6398    2.3111   -0.1571 C.2       1 <0>        -0.2120
     14 C13         0.4111    1.5291   -0.1677 C.2       1 <0>        -0.1234
     15 C14         0.2386    0.0341   -0.0891 C.3       1 <0>        -0.0545
     16 H2         -0.8226   -0.2064   -0.0247 H         1 <0>         0.0806
     17 C15         0.8334   -0.6144   -1.3407 C.3       1 <0>        -0.1063
     18 C16         0.6583   -2.1322   -1.2610 C.3       1 <0>        -0.1118
     19 C17         1.3780   -2.6641   -0.0200 C.3       1 <0>        -0.1474
     20 C18         0.7832   -2.0157    1.2317 C.3       1 <0>         0.1568
     21 C19         0.9583   -0.4978    1.1519 C.3       1 <0>        -0.0956
     22 C20         1.5028   -2.5476    2.4727 C.3       1 <0>        -0.1891
     23 C21         0.8712   -1.9620    3.7092 C.2       1 <0>         0.4606
     24 O1         -0.1280   -1.2890    3.6164 O.co2     1 <0>        -0.6142
     25 O2         -0.6081   -2.3309    1.3161 O.3       1 <0>        -0.5335
     26 O3          0.9138    4.1167   -0.4305 O.3       1 <0>        -0.5585
     27 H3         -4.8055    9.8673   -6.6948 H         1 <0>         0.1194
     28 H4         -5.8783    9.5153   -4.5066 H         1 <0>         0.1205
     29 H5         -4.5648    8.6361   -2.6186 H         1 <0>         0.1211
     30 H6         -1.1033    8.4693   -5.1045 H         1 <0>         0.1207
     31 H7         -2.4189    9.3407   -6.9948 H         1 <0>         0.1202
     32 H8         -2.3553    8.3422   -1.6561 H         1 <0>         0.0723
     33 H9         -0.9117    8.2685   -2.6948 H         1 <0>         0.0723
     34 H10        -1.6206    6.0411   -3.5221 H         1 <0>         0.0615
     35 H11        -3.0642    6.1147   -2.4834 H         1 <0>         0.0620
     36 H12        -1.6136    6.2674   -0.4781 H         1 <0>         0.0623
     37 H13        -0.1700    6.1938   -1.5168 H         1 <0>         0.0687
     38 H14        -0.8789    3.9663   -2.3441 H         1 <0>         0.0644
     39 H15        -2.3225    4.0400   -1.3054 H         1 <0>         0.0718
     40 H16        -1.6298    1.8844   -0.0920 H         1 <0>         0.1143
     41 H17         1.4009    1.9556   -0.2372 H         1 <0>         0.1114
     42 H18         0.3207   -0.2355   -2.2248 H         1 <0>         0.0545
     43 H19         1.8946   -0.3740   -1.4051 H         1 <0>         0.0569
     44 H20         1.0821   -2.5942   -2.1527 H         1 <0>         0.0531
     45 H21        -0.4029   -2.3727   -1.1966 H         1 <0>         0.0665
     46 H22         2.4392   -2.4237   -0.0844 H         1 <0>         0.0648
     47 H23         1.2532   -3.7455    0.0368 H         1 <0>         0.0580
     48 H24         2.0195   -0.2574    1.0875 H         1 <0>         0.0575
     49 H25         0.5345   -0.0358    2.0436 H         1 <0>         0.0972
     50 H26         1.4208   -3.6341    2.5025 H         1 <0>         0.0622
     51 H27         2.5544   -2.2636    2.4325 H         1 <0>         0.0671
     52 H28        -0.7942   -3.2783    1.3697 H         1 <0>         0.3573
     53 H29         1.2906    3.7432   -1.2389 H         1 <0>         0.3712
     54 O4          1.4186   -2.1880    4.9138 O.co2     1 <0>        -0.7848
@<TRIPOS>BOND
     1    1    6 ar
     2    1    2 ar
     3    1   27 1
     4    2    3 ar
     5    2   28 1
     6    3    4 ar
     7    3   29 1
     8    4    5 ar
     9    4    7 1
    10    5    6 ar
    11    5   30 1
    12    6   31 1
    13    7    8 1
    14    7   32 1
    15    7   33 1
    16    8    9 1
    17    8   34 1
    18    8   35 1
    19    9   10 1
    20    9   36 1
    21    9   37 1
    22   10   11 1
    23   10   38 1
    24   10   39 1
    25   11   12 1
    26   11   13 1
    27   11   26 1
    28   13   14 2
    29   13   40 1
    30   14   15 1
    31   14   41 1
    32   15   16 1
    33   15   21 1
    34   15   17 1
    35   17   18 1
    36   17   42 1
    37   17   43 1
    38   18   19 1
    39   18   44 1
    40   18   45 1
    41   19   20 1
    42   19   46 1
    43   19   47 1
    44   20   21 1
    45   20   22 1
    46   20   25 1
    47   21   48 1
    48   21   49 1
    49   22   23 1
    50   22   50 1
    51   22   51 1
    52   23   24 2
    53   23   54 1
    54   25   52 1
    55   26   53 1
@<TRIPOS>MOLECULE
ZINC03786875
   71    72     0     0     0
SMALL
USER_CHARGES
4-[5-(4-amidinophenoxy)pentoxy]-N,N-diisopropyl-3-methoxy-benzamide
@<TRIPOS>ATOM
      1 C1         -0.4729    3.3821    1.4857 C.3       1 <0>        -0.1900
      2 C2         -0.9106    2.0162    2.0184 C.3       1 <0>         0.1330
      3 C3         -2.3750    1.7702    1.6493 C.3       1 <0>        -0.1845
      4 N1         -0.0749    0.9697    1.4246 N.am      1 <0>        -0.6253
      5 C4          0.8848    0.2390    2.2560 C.3       1 <0>         0.1402
      6 C5          1.9595    1.2034    2.7617 C.3       1 <0>        -0.1630
      7 C6          0.1562   -0.3835    3.4486 C.3       1 <0>        -0.1631
      8 C7         -0.1890    0.6792    0.1134 C.2       1 <0>         0.5804
      9 O1         -0.0675   -0.4689   -0.2676 O.2       1 <0>        -0.5140
     10 C8         -0.4614    1.7551   -0.8599 C.ar      1 <0>        -0.1513
     11 C9         -1.2874    2.8252   -0.5074 C.ar      1 <0>        -0.1156
     12 C10        -1.5404    3.8289   -1.4170 C.ar      1 <0>        -0.2019
     13 C11        -0.9765    3.7796   -2.6847 C.ar      1 <0>         0.1325
     14 C12        -0.1557    2.7120   -3.0446 C.ar      1 <0>         0.0831
     15 C13         0.1067    1.7055   -2.1355 C.ar      1 <0>        -0.1129
     16 O2          0.3912    2.6640   -4.2889 O.3       1 <0>        -0.3055
     17 C14         1.2222    1.5410   -4.5895 C.3       1 <0>         0.0237
     18 O3         -1.2296    4.7708   -3.5778 O.3       1 <0>        -0.2999
     19 C15        -2.0838    5.8315   -3.1450 C.3       1 <0>         0.0567
     20 C16        -2.2511    6.8461   -4.2779 C.3       1 <0>        -0.1194
     21 C17        -3.1658    7.9817   -3.8145 C.3       1 <0>        -0.1127
     22 C18        -3.3329    8.9963   -4.9474 C.3       1 <0>        -0.1211
     23 C19        -4.2477   10.1320   -4.4842 C.3       1 <0>         0.0511
     24 O4         -4.4038   11.0796   -5.5422 O.3       1 <0>        -0.2949
     25 C20        -5.1915   12.1571   -5.2934 C.ar      1 <0>         0.2074
     26 C21        -5.8064   12.2949   -4.0552 C.ar      1 <0>        -0.2124
     27 C22        -6.6018   13.3901   -3.7973 C.ar      1 <0>        -0.0094
     28 C23        -6.7984   14.3560   -4.7855 C.ar      1 <0>        -0.2063
     29 C24        -6.1837   14.2114   -6.0301 C.ar      1 <0>        -0.0191
     30 C25        -5.3853   13.1164   -6.2795 C.ar      1 <0>        -0.1495
     31 C26        -7.6559   15.5304   -4.5140 C.cat     1 <0>         0.6032
     32 N2         -8.2620   15.6715   -3.2844 N.pl3     1 <0>        -0.7854
     33 H1          0.2019    3.2434    0.6411 H         1 <0>         0.0839
     34 H2         -1.3493    3.9438    1.1622 H         1 <0>         0.0772
     35 H3          0.0405    3.9322    2.2744 H         1 <0>         0.0586
     36 H4         -0.8011    1.9971    3.1027 H         1 <0>         0.1008
     37 H5         -2.8489    1.1684    2.4246 H         1 <0>         0.0703
     38 H6         -2.8932    2.7252    1.5630 H         1 <0>         0.0775
     39 H7         -2.4258    1.2418    0.6972 H         1 <0>         0.0705
     40 H8          1.3524   -0.5482    1.6645 H         1 <0>         0.0942
     41 H9          1.5047    1.9385    3.4257 H         1 <0>         0.0592
     42 H10         2.7219    0.6453    3.3053 H         1 <0>         0.0699
     43 H11         2.4177    1.7136    1.9144 H         1 <0>         0.0581
     44 H12        -0.5500   -1.1333    3.0918 H         1 <0>         0.0617
     45 H13         0.8816   -0.8544    4.1120 H         1 <0>         0.0693
     46 H14        -0.3819    0.3935    3.9915 H         1 <0>         0.0590
     47 H15        -1.7279    2.8656    0.4778 H         1 <0>         0.1954
     48 H16        -2.1791    4.6556   -1.1432 H         1 <0>         0.1378
     49 H17         0.7457    0.8797   -2.4117 H         1 <0>         0.1430
     50 H18         1.5927    1.6262   -5.6111 H         1 <0>         0.1038
     51 H19         2.0646    1.5170   -3.8983 H         1 <0>         0.0556
     52 H20         0.6431    0.6230   -4.4885 H         1 <0>         0.0578
     53 H21        -1.6418    6.3237   -2.2787 H         1 <0>         0.0636
     54 H22        -3.0584    5.4255   -2.8741 H         1 <0>         0.0638
     55 H23        -2.6932    6.3539   -5.1442 H         1 <0>         0.0792
     56 H24        -1.2765    7.2521   -4.5488 H         1 <0>         0.0790
     57 H25        -4.1403    7.5757   -3.5437 H         1 <0>         0.0714
     58 H26        -2.7236    8.4739   -2.9483 H         1 <0>         0.0713
     59 H27        -2.3584    9.4023   -5.2184 H         1 <0>         0.0821
     60 H28        -3.7751    8.5041   -5.8137 H         1 <0>         0.0821
     61 H29        -5.2222    9.7259   -4.2132 H         1 <0>         0.0743
     62 H30        -3.8055   10.6241   -3.6179 H         1 <0>         0.0742
     63 H31        -5.6571   11.5450   -3.2924 H         1 <0>         0.1520
     64 H32        -7.0758   13.4989   -2.8330 H         1 <0>         0.1401
     65 H33        -6.3334   14.9571   -6.7969 H         1 <0>         0.1427
     66 H34        -4.9093   13.0039   -7.2424 H         1 <0>         0.1571
     67 H35        -8.3823   17.2369   -5.3554 H         1 <0>         0.4432
     68 H36        -8.1264   15.0008   -2.5970 H         1 <0>         0.4412
     69 H37        -8.8243   16.4417   -3.1064 H         1 <0>         0.4305
     70 N3         -7.8008   16.4103   -5.4940 N.pl3     1 <0>        -0.7642
     71 H38        -7.3279   16.2601   -6.3928 H         1 <0>         0.4590
@<TRIPOS>BOND
     1    1    2 1
     2    1   33 1
     3    1   34 1
     4    1   35 1
     5    2    3 1
     6    2    4 1
     7    2   36 1
     8    3   37 1
     9    3   38 1
    10    3   39 1
    11    4    5 1
    12    4    8 am
    13    5    6 1
    14    5    7 1
    15    5   40 1
    16    6   41 1
    17    6   42 1
    18    6   43 1
    19    7   44 1
    20    7   45 1
    21    7   46 1
    22    8    9 2
    23    8   10 1
    24   10   15 ar
    25   10   11 ar
    26   11   12 ar
    27   11   47 1
    28   12   13 ar
    29   12   48 1
    30   13   14 ar
    31   13   18 1
    32   14   15 ar
    33   14   16 1
    34   15   49 1
    35   16   17 1
    36   17   50 1
    37   17   51 1
    38   17   52 1
    39   18   19 1
    40   19   20 1
    41   19   53 1
    42   19   54 1
    43   20   21 1
    44   20   55 1
    45   20   56 1
    46   21   22 1
    47   21   57 1
    48   21   58 1
    49   22   23 1
    50   22   59 1
    51   22   60 1
    52   23   24 1
    53   23   61 1
    54   23   62 1
    55   24   25 1
    56   25   30 ar
    57   25   26 ar
    58   26   27 ar
    59   26   63 1
    60   27   28 ar
    61   27   64 1
    62   28   29 ar
    63   28   31 1
    64   29   30 ar
    65   29   65 1
    66   30   66 1
    67   31   32 1
    68   31   70 2
    69   32   68 1
    70   32   69 1
    71   67   70 1
    72   70   71 1
@<TRIPOS>MOLECULE
ZINC01541366
   48    50     0     0     0
SMALL
USER_CHARGES
3-[6-[(2,6-dichlorophenyl)sulfanylmethyl]-3-phenethyloxy-2-pyridyl]prop-2-enoic acid
@<TRIPOS>ATOM
      1 C1          9.2788    5.2064    4.6101 C.ar      1 <0>        -0.1233
      2 C2          9.3733    3.9701    3.9989 C.ar      1 <0>        -0.1193
      3 C3          8.7324    3.7434    2.7952 C.ar      1 <0>        -0.1131
      4 C4          7.9975    4.7531    2.2026 C.ar      1 <0>        -0.0802
      5 C5          7.9077    5.9911    2.8110 C.ar      1 <0>        -0.1133
      6 C6          8.5439    6.2161    4.0175 C.ar      1 <0>        -0.1195
      7 C7          7.2992    4.5061    0.8902 C.3       1 <0>        -0.0825
      8 C8          5.8863    3.9822    1.1549 C.3       1 <0>         0.0636
      9 O1          5.2241    3.7480   -0.0896 O.3       1 <0>        -0.2937
     10 C9          3.9527    3.2780   -0.0319 C.ar      1 <0>         0.0937
     11 C10         3.3409    3.0414    1.1955 C.ar      1 <0>        -0.1652
     12 C11         2.0407    2.5664    1.2042 C.ar      1 <0>        -0.1268
     13 C12         1.3913    2.3314    0.0013 C.ar      1 <0>         0.1041
     14 N1          1.9867    2.5612   -1.1477 N.ar      1 <0>        -0.4281
     15 C13         3.2333    3.0221   -1.2082 C.ar      1 <0>         0.1638
     16 C14         3.8603    3.2649   -2.5162 C.2       1 <0>        -0.1267
     17 C15         3.1713    3.0204   -3.6506 C.2       1 <0>        -0.1015
     18 C16         3.7948    3.2620   -4.9515 C.2       1 <0>         0.4713
     19 O2          4.9342    3.6832   -5.0109 O.co2     1 <0>        -0.6323
     20 C17        -0.0225    1.8097    0.0120 C.3       1 <0>        -0.0404
     21 S1          0.0021   -0.0041    0.0020 S.3       1 <0>        -0.0965
     22 C18        -1.7016   -0.4536    0.0159 C.ar      1 <0>        -0.1179
     23 C19        -2.3624   -0.6434    1.2241 C.ar      1 <0>         0.0151
     24 C20        -3.6999   -0.9913    1.2309 C.ar      1 <0>        -0.1208
     25 C21        -4.3783   -1.1603    0.0376 C.ar      1 <0>        -0.0722
     26 C22        -3.7230   -0.9779   -1.1664 C.ar      1 <0>        -0.1178
     27 C23        -2.3869   -0.6249   -1.1815 C.ar      1 <0>         0.0134
     28 Cl1        -1.5653   -0.3962   -2.6936 Cl        1 <0>        -0.0176
     29 Cl2        -1.5104   -0.4374    2.7225 Cl        1 <0>        -0.0382
     30 H1          9.7789    5.3833    5.5509 H         1 <0>         0.1205
     31 H2          9.9475    3.1813    4.4619 H         1 <0>         0.1221
     32 H3          8.8063    2.7776    2.3176 H         1 <0>         0.1243
     33 H4          7.3371    6.7813    2.3458 H         1 <0>         0.1241
     34 H5          8.4698    7.1818    4.4952 H         1 <0>         0.1220
     35 H6          7.8582    3.7686    0.3143 H         1 <0>         0.0887
     36 H7          7.2416    5.4383    0.3281 H         1 <0>         0.0885
     37 H8          5.3272    4.7197    1.7308 H         1 <0>         0.0630
     38 H9          5.9438    3.0500    1.7169 H         1 <0>         0.0633
     39 H10         3.8670    3.2284    2.1201 H         1 <0>         0.1390
     40 H11         1.5369    2.3769    2.1405 H         1 <0>         0.1353
     41 H12         4.8720    3.6390   -2.5689 H         1 <0>         0.1398
     42 H13         2.1595    2.6463   -3.5979 H         1 <0>         0.1172
     43 H14        -0.5497    2.1708   -0.8711 H         1 <0>         0.1030
     44 H15        -0.5327    2.1613    0.9088 H         1 <0>         0.0962
     45 H16        -4.2152   -1.1346    2.1691 H         1 <0>         0.1431
     46 H17        -5.4226   -1.4359    0.0461 H         1 <0>         0.1451
     47 H18        -4.2560   -1.1112   -2.0962 H         1 <0>         0.1452
     48 O3          3.1061    3.0175   -6.0855 O.co2     1 <0>        -0.7589
@<TRIPOS>BOND
     1    1    6 ar
     2    1    2 ar
     3    1   30 1
     4    2    3 ar
     5    2   31 1
     6    3    4 ar
     7    3   32 1
     8    4    5 ar
     9    4    7 1
    10    5    6 ar
    11    5   33 1
    12    6   34 1
    13    7    8 1
    14    7   35 1
    15    7   36 1
    16    8    9 1
    17    8   37 1
    18    8   38 1
    19    9   10 1
    20   10   15 ar
    21   10   11 ar
    22   11   12 ar
    23   11   39 1
    24   12   13 ar
    25   12   40 1
    26   13   14 ar
    27   13   20 1
    28   14   15 ar
    29   15   16 1
    30   16   17 2
    31   16   41 1
    32   17   18 1
    33   17   42 1
    34   18   19 2
    35   18   48 1
    36   20   21 1
    37   20   43 1
    38   20   44 1
    39   21   22 1
    40   22   27 ar
    41   22   23 ar
    42   23   24 ar
    43   23   29 1
    44   24   25 ar
    45   24   45 1
    46   25   26 ar
    47   25   46 1
    48   26   27 ar
    49   26   47 1
    50   27   28 1
@<TRIPOS>MOLECULE
ZINC00000850
   28    29     0     0     0
SMALL
USER_CHARGES

@<TRIPOS>ATOM
      1 C1          0.0000    1.4808   -0.0563 C.3       1 <0>        -0.1695
      2 C2          0.0160   -0.0482   -0.0032 C.3       1 <0>         0.2729
      3 H1         -1.0078   -0.4216    0.0218 H         1 <0>         0.1203
      4 C3          0.7171   -0.5859   -1.2240 C.2       1 <0>        -0.1616
      5 C4          0.1711   -1.0748   -2.3467 C.2       1 <0>        -0.1278
      6 C5          1.0398   -1.5461   -3.4153 C.ar      1 <0>        -0.0971
      7 C6          0.6830   -2.0941   -4.6702 C.ar      1 <0>        -0.0766
      8 C7          1.6385   -2.4860   -5.5542 C.ar      1 <0>        -0.1290
      9 C8          2.9908   -2.3649   -5.2627 C.ar      1 <0>        -0.0984
     10 C9          3.3800   -1.8346   -4.0489 C.ar      1 <0>        -0.0799
     11 C10         2.4205   -1.4334   -3.1440 C.ar      1 <0>        -0.1643
     12 S1          2.4698   -0.7160   -1.5221 S.3       1 <0>         0.1509
     13 N1          0.7256   -0.4876    1.2008 N.am      1 <0>        -0.4849
     14 C11         2.0149   -0.1419    1.3870 C.2       1 <0>         0.6945
     15 O1          2.6042    0.4908    0.5322 O.2       1 <0>        -0.5396
     16 N2          2.6509   -0.4975    2.5208 N.am      1 <0>        -0.8612
     17 O2          0.0570   -1.2757    2.1687 O.3       1 <0>        -0.3232
     18 H2          1.0237    1.8542   -0.0813 H         1 <0>         0.0856
     19 H3         -0.5280    1.8078   -0.9520 H         1 <0>         0.0811
     20 H4         -0.5071    1.8697    0.8267 H         1 <0>         0.0695
     21 H5         -0.9024   -1.1187   -2.4569 H         1 <0>         0.1335
     22 H6         -0.3600   -2.2026   -4.9285 H         1 <0>         0.1215
     23 H7          1.3390   -2.9015   -6.5050 H         1 <0>         0.1244
     24 H8          3.7326   -2.6836   -5.9800 H         1 <0>         0.1307
     25 H9          4.4285   -1.7353   -3.8098 H         1 <0>         0.1271
     26 H10         2.2051   -1.0642    3.1697 H         1 <0>         0.3945
     27 H11         3.5545   -0.1868    2.6879 H         1 <0>         0.4243
     28 H12         0.5803   -1.4510    2.9628 H         1 <0>         0.3824
@<TRIPOS>BOND
     1    1    2 1
     2    1   18 1
     3    1   19 1
     4    1   20 1
     5    2    3 1
     6    2    4 1
     7    2   13 1
     8    4   12 1
     9    4    5 2
    10    5    6 1
    11    5   21 1
    12    6   11 ar
    13    6    7 ar
    14    7    8 ar
    15    7   22 1
    16    8    9 ar
    17    8   23 1
    18    9   10 ar
    19    9   24 1
    20   10   11 ar
    21   10   25 1
    22   11   12 1
    23   13   14 am
    24   13   17 1
    25   14   15 2
    26   14   16 am
    27   16   26 1
    28   16   27 1
    29   17   28 1
@<TRIPOS>MOLECULE
ZINC00896731
   28    29     0     0     0
SMALL
USER_CHARGES
1-(1-benzothiophen-2-ylethyl)-1-hydroxy-urea
@<TRIPOS>ATOM
      1 C1          2.0475    7.7134    1.4352 C.3       1 <0>        -0.1710
      2 C2          1.6787    7.3068    0.0071 C.3       1 <0>         0.2735
      3 H1          0.8381    7.9096   -0.3367 H         1 <0>         0.1201
      4 C3          1.2950    5.8496   -0.0171 C.2       1 <0>        -0.1565
      5 C4          0.0653    5.3153   -0.0285 C.2       1 <0>        -0.1275
      6 C5         -0.0827    3.8675   -0.0525 C.ar      1 <0>        -0.0957
      7 C6         -1.2705    3.0985   -0.0677 C.ar      1 <0>        -0.0757
      8 C7         -1.2186    1.7403   -0.0951 C.ar      1 <0>        -0.1272
      9 C8         -0.0081    1.0599   -0.0982 C.ar      1 <0>        -0.0969
     10 C9          1.1733    1.7740   -0.0839 C.ar      1 <0>        -0.0796
     11 C10         1.1340    3.1518   -0.0615 C.ar      1 <0>        -0.1506
     12 S1          2.3680    4.4263   -0.0380 S.3       1 <0>         0.1241
     13 N1          2.8283    7.5237   -0.8747 N.am      1 <0>        -0.4863
     14 C11         3.9879    6.8778   -0.6414 C.2       1 <0>         0.6952
     15 O1          4.1148    6.1985    0.3590 O.2       1 <0>        -0.5430
     16 N2          5.0068    6.9847   -1.5171 N.am      1 <0>        -0.8624
     17 O2          2.7211    8.4121   -1.9721 O.3       1 <0>        -0.3240
     18 H2          1.1921    7.5520    2.0913 H         1 <0>         0.0788
     19 H3          2.8880    7.1106    1.7791 H         1 <0>         0.0910
     20 H4          2.3250    8.7673    1.4527 H         1 <0>         0.0692
     21 H5         -0.8065    5.9527   -0.0204 H         1 <0>         0.1354
     22 H6         -2.2290    3.5962   -0.0613 H         1 <0>         0.1229
     23 H7         -2.1402    1.1774   -0.1108 H         1 <0>         0.1257
     24 H8          0.0090   -0.0198   -0.1162 H         1 <0>         0.1321
     25 H9          2.1215    1.2569   -0.0907 H         1 <0>         0.1284
     26 H10         4.9327    7.5833   -2.2768 H         1 <0>         0.3940
     27 H11         5.8144    6.4632   -1.3876 H         1 <0>         0.4239
     28 H12         3.5032    8.4313   -2.5405 H         1 <0>         0.3820
@<TRIPOS>BOND
     1    1    2 1
     2    1   18 1
     3    1   19 1
     4    1   20 1
     5    2    3 1
     6    2    4 1
     7    2   13 1
     8    4   12 1
     9    4    5 2
    10    5    6 1
    11    5   21 1
    12    6   11 ar
    13    6    7 ar
    14    7    8 ar
    15    7   22 1
    16    8    9 ar
    17    8   23 1
    18    9   10 ar
    19    9   24 1
    20   10   11 ar
    21   10   25 1
    22   11   12 1
    23   13   14 am
    24   13   17 1
    25   14   15 2
    26   14   16 am
    27   16   26 1
    28   16   27 1
    29   17   28 1
