@<TRIPOS>MOLECULE
ZINC03671450
   35    37     0     0     0
SMALL
USER_CHARGES

@<TRIPOS>ATOM
      1 C1         -0.0168    1.3897    0.0097 C.ar      1 <0>        -0.1007
      2 C2          1.1701    2.0934    0.0021 C.ar      1 <0>        -0.0927
      3 C3          2.3781    1.4177   -0.0135 C.ar      1 <0>        -0.0905
      4 C4          2.4024    0.0337   -0.0216 C.ar      1 <0>        -0.0935
      5 C5          1.2213   -0.6796   -0.0142 C.ar      1 <0>        -0.0793
      6 C6          0.0021   -0.0041    0.0020 C.ar      1 <0>         0.0009
      7 C7         -1.2705   -0.7656    0.0106 C.2       1 <0>         0.1413
      8 C8         -2.4664   -0.1122   -0.0824 C.2       1 <0>        -0.2510
      9 S1         -3.6048   -1.4895   -0.0233 S.3       1 <0>        -0.0327
     10 C9         -2.3831   -2.7863    0.1181 C.2       1 <0>         0.4089
     11 N1         -1.2592   -2.0935    0.1035 N.2       1 <0>        -0.5854
     12 N2         -2.5666   -4.1562    0.2128 N.pl3     1 <0>        -0.5485
     13 C10        -1.4138   -5.0596    0.3292 C.3       1 <0>         0.1247
     14 C11        -1.6085   -5.9515    1.5595 C.3       1 <0>        -0.1081
     15 C12        -2.9586   -6.6650    1.4588 C.3       1 <0>        -0.1565
     16 C13        -4.0844   -5.6287    1.4304 C.3       1 <0>        -0.1085
     17 C14        -3.9180   -4.7328    0.2048 C.3       1 <0>         0.1214
     18 C15        -3.1386   -7.5694    2.6508 C.2       1 <0>         0.4962
     19 O1         -4.2570   -7.7984    3.0788 O.co2     1 <0>        -0.6980
     20 O2         -2.1659   -8.0720    3.1871 O.co2     1 <0>        -0.6968
     21 Br1         4.0007    2.3887   -0.0244 Br        1 <0>        -0.0575
     22 H1         -0.9587    1.9179    0.0260 H         1 <0>         0.1343
     23 H2          1.1566    3.1733    0.0081 H         1 <0>         0.1339
     24 H3          3.3476   -0.4887   -0.0342 H         1 <0>         0.1338
     25 H4          1.2414   -1.7594   -0.0212 H         1 <0>         0.1429
     26 H5         -2.6686    0.9452   -0.1681 H         1 <0>         0.1914
     27 H6         -1.3439   -5.6799   -0.5643 H         1 <0>         0.0693
     28 H7         -0.5011   -4.4746    0.4428 H         1 <0>         0.0894
     29 H8         -0.8086   -6.6907    1.6033 H         1 <0>         0.0847
     30 H9         -1.5874   -5.3382    2.4604 H         1 <0>         0.0598
     31 H10        -2.9883   -7.2587    0.5451 H         1 <0>         0.0662
     32 H11        -5.0467   -6.1383    1.3822 H         1 <0>         0.0871
     33 H12        -4.0400   -5.0185    2.3325 H         1 <0>         0.0612
     34 H13        -4.6570   -3.9322    0.2362 H         1 <0>         0.0756
     35 H14        -4.0568   -5.3258   -0.6992 H         1 <0>         0.0767
@<TRIPOS>BOND
     1    1    6 ar
     2    1    2 ar
     3    1   22 1
     4    2    3 ar
     5    2   23 1
     6    3    4 ar
     7    3   21 1
     8    4    5 ar
     9    4   24 1
    10    5    6 ar
    11    5   25 1
    12    6    7 1
    13    7   11 1
    14    7    8 2
    15    8    9 1
    16    8   26 1
    17    9   10 1
    18   10   11 2
    19   10   12 1
    20   12   17 1
    21   12   13 1
    22   13   14 1
    23   13   27 1
    24   13   28 1
    25   14   15 1
    26   14   29 1
    27   14   30 1
    28   15   16 1
    29   15   18 1
    30   15   31 1
    31   16   17 1
    32   16   32 1
    33   16   33 1
    34   17   34 1
    35   17   35 1
    36   18   19 2
    37   18   20 1
@<TRIPOS>MOLECULE
ZINC00030283
   36    37     0     0     0
SMALL
USER_CHARGES

@<TRIPOS>ATOM
      1 C1         -0.0243    1.4955   -0.1845 C.3       1 <0>        -0.1059
      2 C2         -0.0023   -0.0066   -0.0646 C.ar      1 <0>        -0.1724
      3 C3          0.0118   -0.6103    1.1857 C.ar      1 <0>        -0.0486
      4 C4          0.0319   -1.9920    1.2514 C.ar      1 <0>        -0.2057
      5 C5          0.0373   -2.7252    0.0697 C.ar      1 <0>         0.3580
      6 N1          0.0234   -2.1126   -1.1035 N.ar      1 <0>        -0.4727
      7 C6         -0.0016   -0.7968   -1.1968 C.ar      1 <0>         0.1332
      8 N2          0.0579   -4.1173    0.1213 N.am      1 <0>        -0.6634
      9 C7         -0.0398   -4.8353   -1.0151 C.2       1 <0>         0.5536
     10 O1         -0.0527   -4.2704   -2.0921 O.2       1 <0>        -0.4494
     11 C8         -0.1311   -6.3037   -0.9528 C.ar      1 <0>        -0.2149
     12 C9         -0.1223   -6.9559    0.2844 C.ar      1 <0>        -0.0075
     13 C10        -0.2065   -8.3176    0.3409 C.ar      1 <0>        -0.2516
     14 C11        -0.3014   -9.0660   -0.8286 C.ar      1 <0>         0.1983
     15 C12        -0.3119   -8.4349   -2.0637 C.ar      1 <0>        -0.2570
     16 C13        -0.2329   -7.0541   -2.1343 C.ar      1 <0>         0.2295
     17 O2         -0.2484   -6.4307   -3.3390 O.3       1 <0>        -0.2747
     18 C14        -0.3543   -7.2605   -4.4976 C.3       1 <0>         0.0182
     19 O3         -0.3836  -10.4189   -0.7603 O.3       1 <0>        -0.3104
     20 C15        -0.3671  -11.0049    0.5429 C.3       1 <0>         0.0236
     21 H1         -1.0571    1.8433   -0.2040 H         1 <0>         0.0707
     22 H2          0.4913    1.9357    0.6690 H         1 <0>         0.0666
     23 H3          0.4770    1.7938   -1.1052 H         1 <0>         0.0689
     24 H4          0.0075   -0.0146    2.0866 H         1 <0>         0.1373
     25 H5          0.0436   -2.4945    2.2073 H         1 <0>         0.1352
     26 H6         -0.0171   -0.3317   -2.1714 H         1 <0>         0.1579
     27 H7          0.1426   -4.5698    0.9751 H         1 <0>         0.4128
     28 H8         -0.0486   -6.3818    1.1962 H         1 <0>         0.1342
     29 H9         -0.1990   -8.8167    1.2987 H         1 <0>         0.1380
     30 H10        -0.3853   -9.0192   -2.9690 H         1 <0>         0.1459
     31 H11        -0.3555   -6.6374   -5.3919 H         1 <0>         0.1063
     32 H12         0.4932   -7.9451   -4.5329 H         1 <0>         0.0596
     33 H13        -1.2813   -7.8321   -4.4516 H         1 <0>         0.0595
     34 H14        -0.4388  -12.0890    0.4547 H         1 <0>         0.1049
     35 H15         0.5626  -10.7422    1.0476 H         1 <0>         0.0609
     36 H16        -1.2124  -10.6306    1.1203 H         1 <0>         0.0609
@<TRIPOS>BOND
     1    1    2 1
     2    1   21 1
     3    1   22 1
     4    1   23 1
     5    2    7 ar
     6    2    3 ar
     7    3    4 ar
     8    3   24 1
     9    4    5 ar
    10    4   25 1
    11    5    6 ar
    12    5    8 1
    13    6    7 ar
    14    7   26 1
    15    8    9 am
    16    8   27 1
    17    9   10 2
    18    9   11 1
    19   11   16 ar
    20   11   12 ar
    21   12   13 ar
    22   12   28 1
    23   13   14 ar
    24   13   29 1
    25   14   15 ar
    26   14   19 1
    27   15   16 ar
    28   15   30 1
    29   16   17 1
    30   17   18 1
    31   18   31 1
    32   18   32 1
    33   18   33 1
    34   19   20 1
    35   20   34 1
    36   20   35 1
    37   20   36 1
@<TRIPOS>MOLECULE
ZINC00362494
   28    29     0     0     0
SMALL
USER_CHARGES
N-(5-methyl-2-pyridyl)benzamide
@<TRIPOS>ATOM
      1 C1          9.7110   -2.7951    0.3113 C.3       1 <0>        -0.1068
      2 C2          8.4277   -2.0109    0.2169 C.ar      1 <0>        -0.1688
      3 C3          8.4515   -0.6227    0.2288 C.ar      1 <0>        -0.0485
      4 C4          7.2508    0.0589    0.1406 C.ar      1 <0>        -0.2024
      5 C5          6.0676   -0.6653    0.0435 C.ar      1 <0>         0.3530
      6 N1          6.0859   -1.9888    0.0404 N.ar      1 <0>        -0.4738
      7 C6          7.2159   -2.6653    0.1181 C.ar      1 <0>         0.1324
      8 N2          4.8513    0.0083   -0.0456 N.am      1 <0>        -0.6594
      9 C7          3.6952   -0.6843   -0.0371 C.2       1 <0>         0.5496
     10 O1          3.7147   -1.8996   -0.0452 O.2       1 <0>        -0.4646
     11 C8          2.4035    0.0340   -0.0179 C.ar      1 <0>        -0.1373
     12 C9          1.2042   -0.6803   -0.0091 C.ar      1 <0>        -0.0574
     13 C10         0.0021   -0.0037    0.0084 C.ar      1 <0>        -0.1254
     14 C11        -0.0165    1.3797    0.0167 C.ar      1 <0>        -0.0913
     15 C12         1.1686    2.0938    0.0080 C.ar      1 <0>        -0.1261
     16 C13         2.3776    1.4297   -0.0090 C.ar      1 <0>        -0.0886
     17 H1          9.9405   -2.9916    1.3586 H         1 <0>         0.0717
     18 H2          9.5991   -3.7404   -0.2197 H         1 <0>         0.0697
     19 H3         10.5217   -2.2206   -0.1367 H         1 <0>         0.0674
     20 H4          9.3862   -0.0870    0.3049 H         1 <0>         0.1388
     21 H5          7.2326    1.1387    0.1466 H         1 <0>         0.1364
     22 H6          7.1925   -3.7450    0.1084 H         1 <0>         0.1591
     23 H7          4.8366    0.9758   -0.1136 H         1 <0>         0.4161
     24 H8          1.2174   -1.7602   -0.0163 H         1 <0>         0.1381
     25 H9         -0.9265   -0.5551    0.0152 H         1 <0>         0.1326
     26 H10        -0.9604    1.9046    0.0255 H         1 <0>         0.1297
     27 H11         1.1470    3.1736    0.0141 H         1 <0>         0.1311
     28 H12         3.3019    1.9882   -0.0154 H         1 <0>         0.1246
@<TRIPOS>BOND
     1    1    2 1
     2    1   17 1
     3    1   18 1
     4    1   19 1
     5    2    7 ar
     6    2    3 ar
     7    3    4 ar
     8    3   20 1
     9    4    5 ar
    10    4   21 1
    11    5    6 ar
    12    5    8 1
    13    6    7 ar
    14    7   22 1
    15    8    9 am
    16    8   23 1
    17    9   10 2
    18    9   11 1
    19   11   16 ar
    20   11   12 ar
    21   12   13 ar
    22   12   24 1
    23   13   14 ar
    24   13   25 1
    25   14   15 ar
    26   14   26 1
    27   15   16 ar
    28   15   27 1
    29   16   28 1
@<TRIPOS>MOLECULE
ZINC40157567
   35    37     0     0     0
SMALL
USER_CHARGES

@<TRIPOS>ATOM
      1 C1         -0.0173    1.3782   -0.0025 C.ar      1 <0>        -0.1188
      2 C2          1.1680    2.0913   -0.0085 C.ar      1 <0>        -0.1140
      3 C3          2.3768    1.4255   -0.0220 C.ar      1 <0>        -0.1124
      4 C4          2.4019    0.0322   -0.0292 C.ar      1 <0>        -0.0374
      5 C5          1.2047   -0.6811   -0.0227 C.ar      1 <0>        -0.1132
      6 C6          0.0017   -0.0049   -0.0096 C.ar      1 <0>        -0.1156
      7 C7          3.6982   -0.6890   -0.0442 C.ar      1 <0>        -0.1262
      8 C8          3.7316   -2.0880   -0.0574 C.ar      1 <0>        -0.0385
      9 C9          4.9619   -2.7154   -0.0717 C.ar      1 <0>        -0.2003
     10 C10         6.1189   -1.9422   -0.0724 C.ar      1 <0>         0.3597
     11 N1          6.0523   -0.6199   -0.0597 N.ar      1 <0>        -0.4720
     12 C11         4.8983    0.0164   -0.0513 C.ar      1 <0>         0.1457
     13 N2          7.3630   -2.5673   -0.0863 N.am      1 <0>        -0.6569
     14 C12         8.4865   -1.8301   -0.1903 C.2       1 <0>         0.5511
     15 O1          8.4203   -0.6164   -0.1787 O.2       1 <0>        -0.4576
     16 C13         9.7991   -2.4974   -0.3185 C.ar      1 <0>        -0.1235
     17 C14         9.8780   -3.8913   -0.3379 C.ar      1 <0>        -0.0845
     18 C15        11.1057   -4.5084   -0.4576 C.ar      1 <0>        -0.1108
     19 C16        12.2584   -3.7496   -0.5581 C.ar      1 <0>        -0.0821
     20 C17        12.1880   -2.3670   -0.5391 C.ar      1 <0>        -0.0421
     21 C18        10.9643   -1.7369   -0.4264 C.ar      1 <0>        -0.0493
     22 Cl1        13.6399   -1.4237   -0.6646 Cl        1 <0>        -0.0552
     23 H1         -0.9609    1.9032    0.0123 H         1 <0>         0.1237
     24 H2          1.1474    3.1711   -0.0029 H         1 <0>         0.1260
     25 H3          3.3016    1.9833   -0.0274 H         1 <0>         0.1265
     26 H4          1.2184   -1.7610   -0.0286 H         1 <0>         0.1241
     27 H5         -0.9267   -0.5567   -0.0050 H         1 <0>         0.1249
     28 H6          2.8175   -2.6631   -0.0561 H         1 <0>         0.1425
     29 H7          5.0253   -3.7935   -0.0817 H         1 <0>         0.1402
     30 H8          4.8835    1.0963   -0.0457 H         1 <0>         0.1626
     31 H9          7.4211   -3.5334   -0.0210 H         1 <0>         0.4174
     32 H10         8.9794   -4.4851   -0.2588 H         1 <0>         0.1325
     33 H11        11.1675   -5.5865   -0.4727 H         1 <0>         0.1425
     34 H12        13.2171   -4.2379   -0.6513 H         1 <0>         0.1415
     35 H13        10.9096   -0.6584   -0.4165 H         1 <0>         0.1495
@<TRIPOS>BOND
     1    1    6 ar
     2    1    2 ar
     3    1   23 1
     4    2    3 ar
     5    2   24 1
     6    3    4 ar
     7    3   25 1
     8    4    5 ar
     9    4    7 1
    10    5    6 ar
    11    5   26 1
    12    6   27 1
    13    7   12 ar
    14    7    8 ar
    15    8    9 ar
    16    8   28 1
    17    9   10 ar
    18    9   29 1
    19   10   11 ar
    20   10   13 1
    21   11   12 ar
    22   12   30 1
    23   13   14 am
    24   13   31 1
    25   14   15 2
    26   14   16 1
    27   16   21 ar
    28   16   17 ar
    29   17   18 ar
    30   17   32 1
    31   18   19 ar
    32   18   33 1
    33   19   20 ar
    34   19   34 1
    35   20   21 ar
    36   20   22 1
    37   21   35 1
@<TRIPOS>MOLECULE
ZINC00152092
   31    33     0     0     0
SMALL
USER_CHARGES

@<TRIPOS>ATOM
      1 C1         -1.1509   -0.6605    0.0151 C.ar      1 <0>        -0.0910
      2 C2         -1.1323   -2.0439    0.0003 C.ar      1 <0>        -0.1253
      3 C3          0.0698   -2.7205   -0.0182 C.ar      1 <0>        -0.0571
      4 C4          1.2692   -2.0062   -0.0223 C.ar      1 <0>        -0.1371
      5 C5          1.2432   -0.6105   -0.0078 C.ar      1 <0>        -0.0885
      6 C6          0.0343    0.0536    0.0112 C.ar      1 <0>        -0.1260
      7 C7          2.5608   -2.7244   -0.0416 C.2       1 <0>         0.5489
      8 O1          2.5802   -3.9397   -0.0539 O.2       1 <0>        -0.4608
      9 N1          3.7170   -2.0319   -0.0456 N.am      1 <0>        -0.6569
     10 C8          4.9307   -2.7046    0.0433 C.ar      1 <0>         0.3830
     11 C9          6.1170   -1.9651    0.1456 C.ar      1 <0>        -0.1964
     12 C10         7.3138   -2.6105    0.2340 C.ar      1 <0>        -0.0297
     13 C11         7.3150   -4.0202    0.2190 C.ar      1 <0>        -0.1300
     14 C12         8.5115   -4.7485    0.3070 C.ar      1 <0>        -0.0882
     15 C13         8.4742   -6.1099    0.2899 C.ar      1 <0>        -0.1256
     16 C14         7.2629   -6.7900    0.1861 C.ar      1 <0>        -0.0938
     17 C15         6.0840   -6.1149    0.0990 C.ar      1 <0>        -0.0970
     18 C16         6.0823   -4.7094    0.1135 C.ar      1 <0>         0.1588
     19 N2          4.9380   -4.0211    0.0349 N.ar      1 <0>        -0.4708
     20 H1         -2.0947   -0.1356    0.0254 H         1 <0>         0.1297
     21 H2         -2.0609   -2.5953    0.0035 H         1 <0>         0.1326
     22 H3          0.0829   -3.8004   -0.0290 H         1 <0>         0.1380
     23 H4          2.1676   -0.0520   -0.0105 H         1 <0>         0.1250
     24 H5          0.0128    1.1333    0.0225 H         1 <0>         0.1312
     25 H6          3.7024   -1.0642   -0.1105 H         1 <0>         0.4171
     26 H7          6.0826   -0.8857    0.1540 H         1 <0>         0.1402
     27 H8          8.2376   -2.0566    0.3130 H         1 <0>         0.1454
     28 H9          9.4567   -4.2323    0.3875 H         1 <0>         0.1298
     29 H10         9.3955   -6.6693    0.3573 H         1 <0>         0.1277
     30 H11         7.2590   -7.8699    0.1742 H         1 <0>         0.1304
     31 H12         5.1536   -6.6572    0.0187 H         1 <0>         0.1364
@<TRIPOS>BOND
     1    1    6 ar
     2    1    2 ar
     3    1   20 1
     4    2    3 ar
     5    2   21 1
     6    3    4 ar
     7    3   22 1
     8    4    5 ar
     9    4    7 1
    10    5    6 ar
    11    5   23 1
    12    6   24 1
    13    7    8 2
    14    7    9 am
    15    9   10 1
    16    9   25 1
    17   10   19 ar
    18   10   11 ar
    19   11   12 ar
    20   11   26 1
    21   12   13 ar
    22   12   27 1
    23   13   18 ar
    24   13   14 ar
    25   14   15 ar
    26   14   28 1
    27   15   16 ar
    28   15   29 1
    29   16   17 ar
    30   16   30 1
    31   17   18 ar
    32   17   31 1
    33   18   19 ar
