@<TRIPOS>MOLECULE
ZINC01467822
   31    33     0     0     0
SMALL
USER_CHARGES

@<TRIPOS>ATOM
      1 C1          0.5577    1.5116   -0.1484 C.3       1 <0>        -0.1720
      2 C2          0.5859    0.0049   -0.1610 C.2       1 <0>         0.5109
      3 O1          1.1356   -0.5989    0.7357 O.2       1 <0>        -0.5204
      4 N1          0.0001   -0.6716   -1.1688 N.am      1 <0>        -0.6758
      5 C3          0.1086   -2.0628   -1.2320 C.ar      1 <0>         0.1679
      6 C4          0.1180   -2.8118   -0.0606 C.ar      1 <0>        -0.1244
      7 C5          0.2254   -4.1840   -0.1195 C.ar      1 <0>        -0.0439
      8 C6          0.3243   -4.8226   -1.3574 C.ar      1 <0>        -0.0438
      9 C7          0.3140   -4.0675   -2.5320 C.ar      1 <0>        -0.0642
     10 C8          0.2012   -2.6960   -2.4665 C.ar      1 <0>        -0.1446
     11 C9          0.4401   -6.2942   -1.4243 C.2       1 <0>         0.2100
     12 N2          0.4615   -7.1659   -0.4393 N.2       1 <0>        -0.5005
     13 C10         0.5720   -8.4924   -0.6483 C.ar      1 <0>         0.0791
     14 C11         0.6075   -9.5294    0.3144 C.ar      1 <0>        -0.0600
     15 C12         0.7246  -10.8295   -0.0659 C.ar      1 <0>        -0.1112
     16 C13         0.8137  -11.1929   -1.4025 C.ar      1 <0>        -0.0925
     17 C14         0.7824  -10.2110   -2.3752 C.ar      1 <0>        -0.0682
     18 C15         0.6643   -8.8946   -2.0018 C.ar      1 <0>        -0.1413
     19 S1          0.5787   -7.3439   -2.8643 S.3       1 <0>        -0.0088
     20 H1          1.4331    1.8957   -0.6721 H         1 <0>         0.1000
     21 H2         -0.3464    1.8623   -0.6461 H         1 <0>         0.0844
     22 H3          0.5661    1.8665    0.8822 H         1 <0>         0.0995
     23 H4         -0.4969   -0.1924   -1.8502 H         1 <0>         0.4150
     24 H5          0.0415   -2.3173    0.8965 H         1 <0>         0.1480
     25 H6          0.2334   -4.7652    0.7907 H         1 <0>         0.1409
     26 H7          0.3907   -4.5584   -3.4909 H         1 <0>         0.1335
     27 H8          0.1891   -2.1117   -3.3747 H         1 <0>         0.1370
     28 H9          0.5410   -9.2849    1.3643 H         1 <0>         0.1340
     29 H10         0.7493  -11.5991    0.6914 H         1 <0>         0.1357
     30 H11         0.9069  -12.2325   -1.6800 H         1 <0>         0.1405
     31 H12         0.8503  -10.4768   -3.4197 H         1 <0>         0.1352
@<TRIPOS>BOND
     1    1    2 1
     2    1   20 1
     3    1   21 1
     4    1   22 1
     5    2    3 2
     6    2    4 am
     7    4    5 1
     8    4   23 1
     9    5   10 ar
    10    5    6 ar
    11    6    7 ar
    12    6   24 1
    13    7    8 ar
    14    7   25 1
    15    8    9 ar
    16    8   11 1
    17    9   10 ar
    18    9   26 1
    19   10   27 1
    20   11   19 1
    21   11   12 2
    22   12   13 1
    23   13   18 ar
    24   13   14 ar
    25   14   15 ar
    26   14   28 1
    27   15   16 ar
    28   15   29 1
    29   16   17 ar
    30   16   30 1
    31   17   18 ar
    32   17   31 1
    33   18   19 1
@<TRIPOS>MOLECULE
ZINC01508712
   32    34     0     0     0
SMALL
USER_CHARGES

@<TRIPOS>ATOM
      1 C1         -0.0173    1.4248    0.0099 C.3       1 <0>         0.0222
      2 O1          0.0021   -0.0041    0.0020 O.3       1 <0>        -0.3003
      3 C2          0.6058   -0.6071   -1.0557 C.ar      1 <0>         0.1275
      4 C3          1.1722    0.1632   -2.0611 C.ar      1 <0>        -0.1741
      5 C4          1.7863   -0.4441   -3.1361 C.ar      1 <0>        -0.0766
      6 C5          1.8387   -1.8369   -3.2148 C.ar      1 <0>        -0.0271
      7 C6          1.2688   -2.6123   -2.2034 C.ar      1 <0>        -0.1212
      8 C7          0.6597   -1.9975   -1.1254 C.ar      1 <0>         0.0984
      9 O2          0.1081   -2.7499   -0.1359 O.3       1 <0>        -0.3020
     10 C8          0.2001   -4.1694   -0.2723 C.3       1 <0>         0.0231
     11 C9          2.4956   -2.4892   -4.3668 C.2       1 <0>         0.2102
     12 N1          2.6382   -3.7726   -4.6175 N.2       1 <0>        -0.5018
     13 C10         3.2660   -4.2302   -5.7183 C.ar      1 <0>         0.0789
     14 C11         3.4863   -5.5741   -6.1044 C.ar      1 <0>        -0.0603
     15 C12         4.1443   -5.8689   -7.2571 C.ar      1 <0>        -0.1110
     16 C13         4.6241   -4.8740   -8.0977 C.ar      1 <0>        -0.0921
     17 C14         4.4301   -3.5481   -7.7577 C.ar      1 <0>        -0.0678
     18 C15         3.7667   -3.2393   -6.5955 C.ar      1 <0>        -0.1416
     19 S1          3.2919   -1.7351   -5.7782 S.3       1 <0>        -0.0033
     20 H1          1.0053    1.8021    0.0021 H         1 <0>         0.0588
     21 H2         -0.5445    1.7859   -0.8732 H         1 <0>         0.0588
     22 H3         -0.5275    1.7763    0.9067 H         1 <0>         0.1045
     23 H4          1.1318    1.2408   -2.0017 H         1 <0>         0.1470
     24 H5          2.2264    0.1578   -3.9173 H         1 <0>         0.1348
     25 H6          1.3071   -3.6901   -2.2611 H         1 <0>         0.1502
     26 H7          1.2489   -4.4633   -0.3137 H         1 <0>         0.0576
     27 H8         -0.2780   -4.6483    0.5822 H         1 <0>         0.1042
     28 H9         -0.3005   -4.4794   -1.1896 H         1 <0>         0.0576
     29 H10         3.1276   -6.3753   -5.4753 H         1 <0>         0.1335
     30 H11         4.2978   -6.9038   -7.5254 H         1 <0>         0.1358
     31 H12         5.1442   -5.1332   -9.0080 H         1 <0>         0.1407
     32 H13         4.7975   -2.7618   -8.4005 H         1 <0>         0.1355
@<TRIPOS>BOND
     1    1    2 1
     2    1   20 1
     3    1   21 1
     4    1   22 1
     5    2    3 1
     6    3    8 ar
     7    3    4 ar
     8    4    5 ar
     9    4   23 1
    10    5    6 ar
    11    5   24 1
    12    6    7 ar
    13    6   11 1
    14    7    8 ar
    15    7   25 1
    16    8    9 1
    17    9   10 1
    18   10   26 1
    19   10   27 1
    20   10   28 1
    21   11   19 1
    22   11   12 2
    23   12   13 1
    24   13   18 ar
    25   13   14 ar
    26   14   15 ar
    27   14   29 1
    28   15   16 ar
    29   15   30 1
    30   16   17 ar
    31   16   31 1
    32   17   18 ar
    33   17   32 1
    34   18   19 1
@<TRIPOS>MOLECULE
ZINC13522719
   36    38     0     0     0
SMALL
USER_CHARGES

@<TRIPOS>ATOM
      1 C1         -0.0178    1.4608    0.0101 C.3       1 <0>         0.0872
      2 N1          0.0021   -0.0041    0.0020 N.pl3     1 <0>        -0.6303
      3 C2          0.0241   -0.7433    1.2666 C.3       1 <0>         0.0873
      4 C3          0.0000   -0.6945   -1.2089 C.ar      1 <0>         0.2395
      5 C4          0.0131   -2.0854   -1.2149 C.ar      1 <0>        -0.2031
      6 C5          0.0111   -2.7704   -2.4099 C.ar      1 <0>        -0.0127
      7 C6         -0.0041   -2.0670   -3.6163 C.ar      1 <0>        -0.0909
      8 C7         -0.0173   -0.6706   -3.6071 C.ar      1 <0>        -0.0326
      9 C8         -0.0209    0.0088   -2.4088 C.ar      1 <0>        -0.1994
     10 C9         -0.0058   -2.7988   -4.8998 C.2       1 <0>         0.2158
     11 N2         -0.0003   -4.0971   -5.1092 N.2       1 <0>        -0.5032
     12 C10        -0.0028   -4.6316   -6.3470 C.ar      1 <0>         0.0479
     13 C11         0.0028   -6.0005   -6.7073 C.ar      1 <0>        -0.0207
     14 C12        -0.0003   -6.3789   -8.0127 C.ar      1 <0>        -0.1909
     15 C13        -0.0086   -5.4434   -9.0441 C.ar      1 <0>         0.1500
     16 C14        -0.0144   -4.0919   -8.7325 C.ar      1 <0>        -0.1046
     17 C15        -0.0117   -3.7038   -7.4153 C.ar      1 <0>        -0.1069
     18 S1         -0.0238   -2.1450   -6.5631 S.3       1 <0>        -0.0098
     19 O1         -0.0106   -5.8500  -10.3414 O.3       1 <0>        -0.3083
     20 C16        -0.0038   -7.2590  -10.5796 C.3       1 <0>         0.0243
     21 H1          1.0048    1.8381    0.0023 H         1 <0>         0.0532
     22 H2         -0.5450    1.8219   -0.8730 H         1 <0>         0.0723
     23 H3         -0.5280    1.8123    0.9069 H         1 <0>         0.0701
     24 H4         -0.9979   -0.9406    1.5900 H         1 <0>         0.0531
     25 H5          0.5496   -1.6879    1.1262 H         1 <0>         0.0724
     26 H6          0.5371   -0.1514    2.0246 H         1 <0>         0.0701
     27 H7          0.0253   -2.6288   -0.2816 H         1 <0>         0.1316
     28 H8          0.0217   -3.8504   -2.4139 H         1 <0>         0.1356
     29 H9         -0.0291   -0.1239   -4.5384 H         1 <0>         0.1276
     30 H10        -0.0356    1.0887   -2.4010 H         1 <0>         0.1322
     31 H11         0.0100   -6.7546   -5.9343 H         1 <0>         0.1373
     32 H12         0.0042   -7.4311   -8.2561 H         1 <0>         0.1399
     33 H13        -0.0208   -3.3515   -9.5187 H         1 <0>         0.1423
     34 H14         0.8899   -7.6981  -10.1364 H         1 <0>         0.0593
     35 H15        -0.8900   -7.7077  -10.1307 H         1 <0>         0.0593
     36 H16        -0.0063   -7.4459  -11.6535 H         1 <0>         0.1049
@<TRIPOS>BOND
     1    1    2 1
     2    1   21 1
     3    1   22 1
     4    1   23 1
     5    2    3 1
     6    2    4 1
     7    3   24 1
     8    3   25 1
     9    3   26 1
    10    4    9 ar
    11    4    5 ar
    12    5    6 ar
    13    5   27 1
    14    6    7 ar
    15    6   28 1
    16    7    8 ar
    17    7   10 1
    18    8    9 ar
    19    8   29 1
    20    9   30 1
    21   10   18 1
    22   10   11 2
    23   11   12 1
    24   12   17 ar
    25   12   13 ar
    26   13   14 ar
    27   13   31 1
    28   14   15 ar
    29   14   32 1
    30   15   16 ar
    31   15   19 1
    32   16   17 ar
    33   16   33 1
    34   17   18 1
    35   19   20 1
    36   20   34 1
    37   20   35 1
    38   20   36 1
@<TRIPOS>MOLECULE
ZINC00366941
   36    39     0     0     0
SMALL
USER_CHARGES

@<TRIPOS>ATOM
      1 C1         -0.0167    1.3791    0.0096 C.ar      1 <0>        -0.1108
      2 C2          1.1686    2.0923    0.0021 C.ar      1 <0>        -0.1191
      3 C3          2.3774    1.4267   -0.0134 C.ar      1 <0>        -0.1034
      4 C4          2.4025    0.0330   -0.0211 C.ar      1 <0>        -0.0606
      5 C5          1.2049   -0.6804   -0.0130 C.ar      1 <0>        -0.1030
      6 C6          0.0021   -0.0041    0.0020 C.ar      1 <0>        -0.1189
      7 C7          3.6981   -0.6880   -0.0382 C.ar      1 <0>        -0.0030
      8 C8          4.8947    0.0290   -0.0410 C.ar      1 <0>        -0.1193
      9 C9          6.0982   -0.6394   -0.0569 C.ar      1 <0>        -0.0633
     10 C10         6.1208   -2.0361   -0.0704 C.ar      1 <0>        -0.0547
     11 C11         4.9219   -2.7531   -0.0676 C.ar      1 <0>        -0.0446
     12 C12         3.7196   -2.0828   -0.0459 C.ar      1 <0>        -0.1202
     13 C13         7.4116   -2.7543   -0.0880 C.2       1 <0>         0.3398
     14 N1          7.5669   -4.0579   -0.1069 N.2       1 <0>        -0.5089
     15 C14         8.8736   -4.3628   -0.1188 C.2       1 <0>         0.3078
     16 N2          9.5681   -3.2513   -0.1076 N.2       1 <0>        -0.3268
     17 O1          8.6302   -2.1857   -0.0932 O.3       1 <0>        -0.0925
     18 C15         9.4403   -5.7353   -0.1412 C.ar      1 <0>         0.1788
     19 C16        10.8215   -5.9118   -0.1461 C.ar      1 <0>        -0.1262
     20 C17        11.3354   -7.1974   -0.1669 C.ar      1 <0>        -0.0750
     21 C18        10.4490   -8.2644   -0.1822 C.ar      1 <0>        -0.1479
     22 C19         9.0884   -8.0156   -0.1762 C.ar      1 <0>         0.1041
     23 N3          8.6267   -6.7823   -0.1508 N.ar      1 <0>        -0.4392
     24 H1         -0.9603    1.9042    0.0260 H         1 <0>         0.1250
     25 H2          1.1479    3.1721    0.0081 H         1 <0>         0.1267
     26 H3          3.3022    1.9845   -0.0199 H         1 <0>         0.1278
     27 H4          1.2183   -1.7603   -0.0192 H         1 <0>         0.1283
     28 H5         -0.9264   -0.5557    0.0079 H         1 <0>         0.1269
     29 H6          4.8770    1.1088   -0.0310 H         1 <0>         0.1388
     30 H7          7.0245   -0.0841   -0.0594 H         1 <0>         0.1399
     31 H8          4.9383   -3.8329   -0.0780 H         1 <0>         0.1469
     32 H9          2.7926   -2.6369   -0.0389 H         1 <0>         0.1394
     33 H10        11.4827   -5.0579   -0.1341 H         1 <0>         0.1457
     34 H11        12.4022   -7.3656   -0.1716 H         1 <0>         0.1471
     35 H12        10.8177   -9.2794   -0.1990 H         1 <0>         0.1458
     36 H13         8.3953   -8.8438   -0.1884 H         1 <0>         0.1686
@<TRIPOS>BOND
     1    1    6 ar
     2    1    2 ar
     3    1   24 1
     4    2    3 ar
     5    2   25 1
     6    3    4 ar
     7    3   26 1
     8    4    5 ar
     9    4    7 1
    10    5    6 ar
    11    5   27 1
    12    6   28 1
    13    7   12 ar
    14    7    8 ar
    15    8    9 ar
    16    8   29 1
    17    9   10 ar
    18    9   30 1
    19   10   11 ar
    20   10   13 1
    21   11   12 ar
    22   11   31 1
    23   12   32 1
    24   13   17 1
    25   13   14 2
    26   14   15 1
    27   15   16 2
    28   15   18 1
    29   16   17 1
    30   18   23 ar
    31   18   19 ar
    32   19   20 ar
    33   19   33 1
    34   20   21 ar
    35   20   34 1
    36   21   22 ar
    37   21   35 1
    38   22   23 ar
    39   22   36 1
@<TRIPOS>MOLECULE
ZINC00163337
   24    26     0     0     0
SMALL
USER_CHARGES

@<TRIPOS>ATOM
      1 C1         -0.0164    1.3553    0.0095 C.ar      1 <0>        -0.1117
      2 C2          1.1548    2.1005    0.0023 C.ar      1 <0>        -0.0885
      3 C3          2.3732    1.4476   -0.0128 C.ar      1 <0>        -0.0692
      4 C4          2.4032    0.0744   -0.0204 C.ar      1 <0>        -0.1386
      5 C5          1.2273   -0.7129   -0.0134 C.ar      1 <0>         0.0754
      6 C6          0.0021   -0.0041    0.0020 C.ar      1 <0>        -0.0571
      7 N1          1.4174   -2.0465   -0.0223 N.2       1 <0>        -0.4937
      8 C7          2.6147   -2.5902   -0.0366 C.2       1 <0>         0.1977
      9 S1          3.6832   -1.1573   -0.0391 S.3       1 <0>         0.0007
     10 C8          2.9832   -4.0221   -0.0474 C.ar      1 <0>        -0.0206
     11 C9          1.9888   -5.0013   -0.0485 C.ar      1 <0>        -0.0540
     12 C10         2.3385   -6.3355   -0.0590 C.ar      1 <0>        -0.1110
     13 C11         3.6733   -6.7041   -0.0684 C.ar      1 <0>        -0.0149
     14 C12         4.6644   -5.7369   -0.0674 C.ar      1 <0>        -0.1084
     15 C13         4.3266   -4.3996   -0.0622 C.ar      1 <0>        -0.0738
     16 Cl1         4.1060   -8.3853   -0.0811 Cl        1 <0>        -0.0573
     17 H1         -0.9665    1.8685    0.0259 H         1 <0>         0.1368
     18 H2          1.1145    3.1797    0.0081 H         1 <0>         0.1416
     19 H3          3.2937    2.0125   -0.0189 H         1 <0>         0.1364
     20 H4         -0.9297   -0.5500    0.0083 H         1 <0>         0.1348
     21 H5          0.9475   -4.7150   -0.0408 H         1 <0>         0.1469
     22 H6          1.5699   -7.0942   -0.0595 H         1 <0>         0.1445
     23 H7          5.7038   -6.0303   -0.0748 H         1 <0>         0.1450
     24 H8          5.1004   -3.6461   -0.0659 H         1 <0>         0.1388
@<TRIPOS>BOND
     1    1    6 ar
     2    1    2 ar
     3    1   17 1
     4    2    3 ar
     5    2   18 1
     6    3    4 ar
     7    3   19 1
     8    4    9 1
     9    4    5 ar
    10    5    6 ar
    11    5    7 1
    12    6   20 1
    13    7    8 2
    14    8    9 1
    15    8   10 1
    16   10   15 ar
    17   10   11 ar
    18   11   12 ar
    19   11   21 1
    20   12   13 ar
    21   12   22 1
    22   13   14 ar
    23   13   16 1
    24   14   15 ar
    25   14   23 1
    26   15   24 1
@<TRIPOS>MOLECULE
ZINC00163299
   28    30     0     0     0
SMALL
USER_CHARGES

@<TRIPOS>ATOM
      1 C1         -0.0173    1.4248    0.0099 C.3       1 <0>         0.0232
      2 O1          0.0021   -0.0041    0.0020 O.3       1 <0>        -0.3117
      3 C2          0.6254   -0.6180    1.0408 C.ar      1 <0>         0.1546
      4 C3          1.2016    0.1426    2.0503 C.ar      1 <0>        -0.2122
      5 C4          1.8349   -0.4766    3.1059 C.ar      1 <0>        -0.0216
      6 C5          1.8967   -1.8704    3.1603 C.ar      1 <0>        -0.0687
      7 C6          1.3159   -2.6314    2.1439 C.ar      1 <0>        -0.0434
      8 C7          0.6801   -2.0049    1.0940 C.ar      1 <0>        -0.1510
      9 C8          2.5753   -2.5384    4.2904 C.2       1 <0>         0.2145
     10 N1          3.1695   -1.9980    5.3321 N.2       1 <0>        -0.5050
     11 C9          3.7533   -2.7359    6.2965 C.ar      1 <0>         0.0802
     12 C10         4.4214   -2.2840    7.4597 C.ar      1 <0>        -0.0616
     13 C11         4.9610   -3.1676    8.3409 C.ar      1 <0>        -0.1108
     14 C12         4.8813   -4.5386    8.1399 C.ar      1 <0>        -0.0937
     15 C13         4.2372   -5.0223    7.0163 C.ar      1 <0>        -0.0674
     16 C14         3.6883   -4.1383    6.1199 C.ar      1 <0>        -0.1424
     17 S1          2.7911   -4.2865    4.5938 S.3       1 <0>        -0.0092
     18 H1          1.0053    1.8021    0.0021 H         1 <0>         0.0597
     19 H2         -0.5445    1.7859   -0.8732 H         1 <0>         0.1044
     20 H3         -0.5275    1.7763    0.9067 H         1 <0>         0.0597
     21 H4          1.1534    1.2207    2.0075 H         1 <0>         0.1386
     22 H5          2.2833    0.1155    3.8900 H         1 <0>         0.1403
     23 H6          1.3619   -3.7098    2.1823 H         1 <0>         0.1365
     24 H7          0.2271   -2.5930    0.3096 H         1 <0>         0.1426
     25 H8          4.5038   -1.2239    7.6494 H         1 <0>         0.1334
     26 H9          5.4649   -2.7930    9.2197 H         1 <0>         0.1355
     27 H10         5.3185   -5.2209    8.8539 H         1 <0>         0.1404
     28 H11         4.1661   -6.0862    6.8450 H         1 <0>         0.1352
@<TRIPOS>BOND
     1    1    2 1
     2    1   18 1
     3    1   19 1
     4    1   20 1
     5    2    3 1
     6    3    8 ar
     7    3    4 ar
     8    4    5 ar
     9    4   21 1
    10    5    6 ar
    11    5   22 1
    12    6    7 ar
    13    6    9 1
    14    7    8 ar
    15    7   23 1
    16    8   24 1
    17    9   17 1
    18    9   10 2
    19   10   11 1
    20   11   16 ar
    21   11   12 ar
    22   12   13 ar
    23   12   25 1
    24   13   14 ar
    25   13   26 1
    26   14   15 ar
    27   14   27 1
    28   15   16 ar
    29   15   28 1
    30   16   17 1
@<TRIPOS>MOLECULE
ZINC00318958
   25    27     0     0     0
SMALL
USER_CHARGES

@<TRIPOS>ATOM
      1 C1         -0.0167    1.3805    0.0096 C.ar      1 <0>        -0.0746
      2 C2          1.1934    2.0589    0.0017 C.ar      1 <0>        -0.1461
      3 C3          2.3742    1.3388   -0.0134 C.ar      1 <0>         0.1048
      4 N1          2.3630    0.0218   -0.0204 N.ar      1 <0>        -0.4391
      5 C4          1.2281   -0.6640   -0.0132 C.ar      1 <0>         0.1761
      6 C5          0.0021   -0.0041    0.0020 C.ar      1 <0>        -0.1251
      7 C6          1.2649   -2.1486   -0.0216 C.2       1 <0>         0.3086
      8 N2          2.3755   -2.9021   -0.0308 N.2       1 <0>        -0.4974
      9 C7          2.0535   -4.1735   -0.0358 C.2       1 <0>         0.3327
     10 O1          0.7127   -4.2682   -0.0299 O.3       1 <0>        -0.0875
     11 N3          0.2184   -2.9374   -0.0153 N.2       1 <0>        -0.3186
     12 C8          3.0031   -5.3086   -0.0470 C.ar      1 <0>        -0.0011
     13 C9          4.3849   -5.0900   -0.0475 C.ar      1 <0>        -0.1082
     14 C10         5.2345   -6.1780   -0.0576 C.ar      1 <0>         0.1026
     15 N4          4.7594   -7.4082   -0.0668 N.ar      1 <0>        -0.4617
     16 C11         3.4647   -7.6584   -0.0668 C.ar      1 <0>         0.1030
     17 C12         2.5439   -6.6301   -0.0516 C.ar      1 <0>        -0.1270
     18 H1         -0.9522    1.9200    0.0259 H         1 <0>         0.1480
     19 H2          1.2132    3.1388    0.0070 H         1 <0>         0.1467
     20 H3          3.3181    1.8636   -0.0200 H         1 <0>         0.1694
     21 H4         -0.9213   -0.5642    0.0082 H         1 <0>         0.1460
     22 H5          4.7809   -4.0853   -0.0403 H         1 <0>         0.1567
     23 H6          6.3028   -6.0195   -0.0584 H         1 <0>         0.1711
     24 H7          3.1200   -8.6819   -0.0745 H         1 <0>         0.1701
     25 H8          1.4850   -6.8424   -0.0469 H         1 <0>         0.1505
@<TRIPOS>BOND
     1    1    6 ar
     2    1    2 ar
     3    1   18 1
     4    2    3 ar
     5    2   19 1
     6    3    4 ar
     7    3   20 1
     8    4    5 ar
     9    5    6 ar
    10    5    7 1
    11    6   21 1
    12    7   11 2
    13    7    8 1
    14    8    9 2
    15    9   10 1
    16    9   12 1
    17   10   11 1
    18   12   17 ar
    19   12   13 ar
    20   13   14 ar
    21   13   22 1
    22   14   15 ar
    23   14   23 1
    24   15   16 ar
    25   16   17 ar
    26   16   24 1
    27   17   25 1
@<TRIPOS>MOLECULE
ZINC00352196
   23    25     0     0     0
SMALL
USER_CHARGES

@<TRIPOS>ATOM
      1 C1         -0.0167    1.3805    0.0096 C.ar      1 <0>        -0.0750
      2 C2          1.1933    2.0589    0.0017 C.ar      1 <0>        -0.1464
      3 C3          2.3742    1.3388   -0.0134 C.ar      1 <0>         0.1048
      4 N1          2.3629    0.0218   -0.0204 N.ar      1 <0>        -0.4385
      5 C4          1.2280   -0.6640   -0.0132 C.ar      1 <0>         0.1765
      6 C5          0.0021   -0.0041    0.0020 C.ar      1 <0>        -0.1248
      7 C6          1.2649   -2.1486   -0.0221 C.2       1 <0>         0.3108
      8 N2          2.3751   -2.9007   -0.0318 N.2       1 <0>        -0.4959
      9 C7          2.0517   -4.1768   -0.0377 C.2       1 <0>         0.3709
     10 O1          0.7085   -4.2687   -0.0317 O.3       1 <0>        -0.0810
     11 N3          0.2174   -2.9369   -0.0159 N.2       1 <0>        -0.3183
     12 C8          2.9926   -5.3042   -0.0492 C.2       1 <0>         0.0122
     13 C9          2.6584   -6.6268   -0.0608 C.2       1 <0>        -0.1124
     14 C10         3.8645   -7.3484   -0.0699 C.2       1 <0>        -0.2222
     15 C11         4.8676   -6.4450   -0.0635 C.2       1 <0>         0.0170
     16 O2          4.3379   -5.2131   -0.0562 O.3       1 <0>        -0.1415
     17 H1         -0.9522    1.9200    0.0259 H         1 <0>         0.1479
     18 H2          1.2132    3.1388    0.0070 H         1 <0>         0.1465
     19 H3          3.3181    1.8635   -0.0200 H         1 <0>         0.1692
     20 H4         -0.9213   -0.5642    0.0082 H         1 <0>         0.1465
     21 H5          1.6604   -7.0395   -0.0624 H         1 <0>         0.1677
     22 H6          3.9691   -8.4233   -0.0798 H         1 <0>         0.1656
     23 H7          5.9225   -6.6762   -0.0672 H         1 <0>         0.2205
@<TRIPOS>BOND
     1    1    6 ar
     2    1    2 ar
     3    1   17 1
     4    2    3 ar
     5    2   18 1
     6    3    4 ar
     7    3   19 1
     8    4    5 ar
     9    5    6 ar
    10    5    7 1
    11    6   20 1
    12    7   11 2
    13    7    8 1
    14    8    9 2
    15    9   10 1
    16    9   12 1
    17   10   11 1
    18   12   16 1
    19   12   13 2
    20   13   14 1
    21   13   21 1
    22   14   15 2
    23   14   22 1
    24   15   16 1
    25   15   23 1
@<TRIPOS>MOLECULE
ZINC01433321
   25    27     0     0     0
SMALL
USER_CHARGES

@<TRIPOS>ATOM
      1 C1         -0.0164    1.3550    0.0095 C.ar      1 <0>        -0.1123
      2 C2          1.1548    2.1007    0.0023 C.ar      1 <0>        -0.0865
      3 C3          2.3733    1.4483   -0.0128 C.ar      1 <0>        -0.0701
      4 C4          2.4038    0.0751   -0.0204 C.ar      1 <0>        -0.1383
      5 C5          1.2278   -0.7131   -0.0134 C.ar      1 <0>         0.0755
      6 C6          0.0021   -0.0041    0.0020 C.ar      1 <0>        -0.0555
      7 N1          1.4162   -2.0409   -0.0227 N.2       1 <0>        -0.4894
      8 C7          2.6121   -2.5883   -0.0374 C.2       1 <0>         0.1883
      9 S1          3.6833   -1.1572   -0.0397 S.3       1 <0>         0.0071
     10 C8          2.9770   -4.0206   -0.0489 C.ar      1 <0>         0.0067
     11 C9          1.9771   -4.9959   -0.0505 C.ar      1 <0>        -0.0683
     12 C10         2.3164   -6.3297   -0.0618 C.ar      1 <0>        -0.0698
     13 C11         3.6617   -6.7082   -0.0716 C.ar      1 <0>        -0.0050
     14 C12         4.6619   -5.7320   -0.0700 C.ar      1 <0>        -0.0675
     15 C13         4.3217   -4.3984   -0.0641 C.ar      1 <0>        -0.0882
     16 C14         4.0153   -8.0958   -0.0828 C.1       1 <0>         0.2470
     17 N2          4.2957   -9.1966   -0.0917 N.1       1 <0>        -0.4017
     18 H1         -0.9665    1.8681    0.0259 H         1 <0>         0.1369
     19 H2          1.1141    3.1799    0.0081 H         1 <0>         0.1418
     20 H3          3.2936    2.0136   -0.0189 H         1 <0>         0.1366
     21 H4         -0.9297   -0.5500    0.0079 H         1 <0>         0.1353
     22 H5          0.9375   -4.7033   -0.0426 H         1 <0>         0.1485
     23 H6          1.5432   -7.0837   -0.0627 H         1 <0>         0.1441
     24 H7          5.7017   -6.0241   -0.0775 H         1 <0>         0.1445
     25 H8          5.0945   -3.6440   -0.0670 H         1 <0>         0.1402
@<TRIPOS>BOND
     1    1    6 ar
     2    1    2 ar
     3    1   18 1
     4    2    3 ar
     5    2   19 1
     6    3    4 ar
     7    3   20 1
     8    4    9 1
     9    4    5 ar
    10    5    6 ar
    11    5    7 1
    12    6   21 1
    13    7    8 2
    14    8    9 1
    15    8   10 1
    16   10   15 ar
    17   10   11 ar
    18   11   12 ar
    19   11   22 1
    20   12   13 ar
    21   12   23 1
    22   13   14 ar
    23   13   16 1
    24   14   15 ar
    25   14   24 1
    26   15   25 1
    27   16   17 3
@<TRIPOS>MOLECULE
ZINC00461872
   30    32     0     0     0
SMALL
USER_CHARGES

@<TRIPOS>ATOM
      1 C1         -0.0184    1.5028    0.0103 C.3       1 <0>        -0.1167
      2 C2          0.0021   -0.0041    0.0020 C.ar      1 <0>        -0.0897
      3 C3          0.0058   -0.6879   -1.2005 C.ar      1 <0>        -0.0922
      4 C4          0.0245   -2.0707   -1.2154 C.ar      1 <0>        -0.1206
      5 C5          0.0401   -2.7760   -0.0288 C.ar      1 <0>        -0.0705
      6 C6          0.0369   -2.0925    1.1849 C.ar      1 <0>        -0.0376
      7 C7          0.0228   -0.6992    1.1940 C.ar      1 <0>        -0.0773
      8 C8          0.0536   -2.8456    2.4640 C.2       1 <0>         0.3034
      9 N1          0.0778   -4.1822    2.5829 N.2       1 <0>        -0.5306
     10 C9          0.0875   -4.5185    3.8519 C.2       1 <0>         0.3435
     11 O1          0.0696   -3.3919    4.5857 O.3       1 <0>        -0.0976
     12 N2          0.0529   -2.3138    3.6622 N.2       1 <0>        -0.3327
     13 C10         0.1129   -5.8974    4.3824 C.ar      1 <0>        -0.0640
     14 C11         0.1348   -6.9846    3.5067 C.ar      1 <0>        -0.0226
     15 C12         0.1590   -8.2691    4.0071 C.ar      1 <0>        -0.1601
     16 C13         0.1616   -8.4822    5.3768 C.ar      1 <0>         0.1386
     17 C14         0.1394   -7.4063    6.2507 C.ar      1 <0>        -0.1585
     18 C15         0.1210   -6.1176    5.7611 C.ar      1 <0>        -0.0389
     19 F1          0.1853   -9.7429    5.8619 F         1 <0>        -0.1280
     20 H1          1.0042    1.8801    0.0026 H         1 <0>         0.0744
     21 H2         -0.5455    1.8639   -0.8728 H         1 <0>         0.0710
     22 H3         -0.5286    1.8543    0.9071 H         1 <0>         0.0693
     23 H4         -0.0064   -0.1400   -2.1311 H         1 <0>         0.1304
     24 H5          0.0266   -2.5997   -2.1569 H         1 <0>         0.1341
     25 H6          0.0543   -3.8558   -0.0415 H         1 <0>         0.1385
     26 H7          0.0245   -0.1643    2.1322 H         1 <0>         0.1320
     27 H8          0.1325   -6.8197    2.4394 H         1 <0>         0.1534
     28 H9          0.1756   -9.1109    3.3306 H         1 <0>         0.1506
     29 H10         0.1412   -7.5778    7.3170 H         1 <0>         0.1501
     30 H11         0.1083   -5.2800    6.4427 H         1 <0>         0.1483
@<TRIPOS>BOND
     1    1    2 1
     2    1   20 1
     3    1   21 1
     4    1   22 1
     5    2    7 ar
     6    2    3 ar
     7    3    4 ar
     8    3   23 1
     9    4    5 ar
    10    4   24 1
    11    5    6 ar
    12    5   25 1
    13    6    7 ar
    14    6    8 1
    15    7   26 1
    16    8   12 2
    17    8    9 1
    18    9   10 2
    19   10   11 1
    20   10   13 1
    21   11   12 1
    22   13   18 ar
    23   13   14 ar
    24   14   15 ar
    25   14   27 1
    26   15   16 ar
    27   15   28 1
    28   16   17 ar
    29   16   19 1
    30   17   18 ar
    31   17   29 1
    32   18   30 1
@<TRIPOS>MOLECULE
ZINC00515041
   31    33     0     0     0
SMALL
USER_CHARGES

@<TRIPOS>ATOM
      1 C1         -0.0173    1.4248    0.0099 C.3       1 <0>         0.0230
      2 O1          0.0021   -0.0041    0.0020 O.3       1 <0>        -0.3115
      3 C2          0.6055   -0.6068   -1.0552 C.ar      1 <0>         0.1575
      4 C3          1.1724    0.1641   -2.0615 C.ar      1 <0>        -0.2140
      5 C4          1.7855   -0.4450   -3.1357 C.ar      1 <0>        -0.0319
      6 C5          1.8360   -1.8359   -3.2111 C.ar      1 <0>        -0.0812
      7 C6          1.2661   -2.6072   -2.1995 C.ar      1 <0>        -0.0229
      8 C7          0.6593   -1.9926   -1.1247 C.ar      1 <0>        -0.1577
      9 C8          2.4946   -2.4943   -4.3660 C.2       1 <0>         0.3074
     10 N1          2.6019   -3.8192   -4.5530 N.2       1 <0>        -0.5290
     11 C9          3.2402   -4.0627   -5.6742 C.2       1 <0>         0.3396
     12 O2          3.5613   -2.8858   -6.2397 O.3       1 <0>        -0.0900
     13 N2          3.0624   -1.8771   -5.3742 N.2       1 <0>        -0.3373
     14 C10         3.5519   -5.3995   -6.2204 C.ar      1 <0>        -0.0868
     15 C11         3.1548   -6.5481   -5.5332 C.ar      1 <0>        -0.0258
     16 C12         3.4484   -7.7929   -6.0487 C.ar      1 <0>        -0.1358
     17 C13         4.1355   -7.9071   -7.2450 C.ar      1 <0>        -0.0528
     18 C14         4.5332   -6.7756   -7.9323 C.ar      1 <0>        -0.1591
     19 C15         4.2408   -5.5205   -7.4308 C.ar      1 <0>         0.1476
     20 F1          4.6243   -4.4148   -8.1057 F         1 <0>        -0.1186
     21 H1          1.0053    1.8021    0.0021 H         1 <0>         0.0595
     22 H2         -0.5445    1.7859   -0.8732 H         1 <0>         0.0595
     23 H3         -0.5275    1.7763    0.9067 H         1 <0>         0.1047
     24 H4          1.1326    1.2417   -2.0028 H         1 <0>         0.1388
     25 H5          2.2259    0.1550   -3.9183 H         1 <0>         0.1359
     26 H6          1.3038   -3.6851   -2.2553 H         1 <0>         0.1466
     27 H7          0.2214   -2.5897   -0.3385 H         1 <0>         0.1426
     28 H8          2.6189   -6.4618   -4.5995 H         1 <0>         0.1528
     29 H9          3.1416   -8.6816   -5.5172 H         1 <0>         0.1449
     30 H10         4.3622   -8.8851   -7.6431 H         1 <0>         0.1446
     31 H11         5.0695   -6.8720   -8.8647 H         1 <0>         0.1494
@<TRIPOS>BOND
     1    1    2 1
     2    1   21 1
     3    1   22 1
     4    1   23 1
     5    2    3 1
     6    3    8 ar
     7    3    4 ar
     8    4    5 ar
     9    4   24 1
    10    5    6 ar
    11    5   25 1
    12    6    7 ar
    13    6    9 1
    14    7    8 ar
    15    7   26 1
    16    8   27 1
    17    9   13 2
    18    9   10 1
    19   10   11 2
    20   11   12 1
    21   11   14 1
    22   12   13 1
    23   14   19 ar
    24   14   15 ar
    25   15   16 ar
    26   15   28 1
    27   16   17 ar
    28   16   29 1
    29   17   18 ar
    30   17   30 1
    31   18   19 ar
    32   18   31 1
    33   19   20 1
@<TRIPOS>MOLECULE
ZINC02242011
   30    32     0     0     0
SMALL
USER_CHARGES

@<TRIPOS>ATOM
      1 C1         -0.0173    1.4248    0.0099 C.3       1 <0>         0.0239
      2 O1          0.0021   -0.0041    0.0020 O.3       1 <0>        -0.2969
      3 C2          0.6253   -0.6179    1.0407 C.ar      1 <0>         0.1692
      4 C3          1.2018    0.1370    2.0505 C.ar      1 <0>        -0.2156
      5 C4          1.8355   -0.4887    3.1065 C.ar      1 <0>        -0.0488
      6 C5          1.8990   -1.8703    3.1635 C.ar      1 <0>        -0.1635
      7 C6          1.3296   -2.6339    2.1654 C.ar      1 <0>        -0.0258
      8 C7          0.6830   -2.0136    1.0986 C.ar      1 <0>        -0.0788
      9 C8          0.0638   -2.8299    0.0261 C.2       1 <0>         0.3021
     10 N1          0.0498   -4.1714   -0.0253 N.2       1 <0>        -0.5215
     11 C9         -0.5792   -4.5712   -1.1045 C.2       1 <0>         0.3310
     12 O2         -0.9892   -3.4840   -1.7804 O.3       1 <0>        -0.1006
     13 N2         -0.5646   -2.3598   -1.0246 N.2       1 <0>        -0.3011
     14 C10        -0.7997   -5.9777   -1.5087 C.ar      1 <0>         0.0016
     15 C11        -0.3309   -7.0342   -0.7205 C.ar      1 <0>        -0.1115
     16 C12        -0.5586   -8.3309   -1.1354 C.ar      1 <0>         0.1020
     17 N3         -1.2070   -8.5793   -2.2566 N.ar      1 <0>        -0.4632
     18 C13        -1.6655   -7.6134   -3.0286 C.ar      1 <0>         0.1034
     19 C14        -1.4877   -6.2878   -2.6866 C.ar      1 <0>        -0.1279
     20 H1          1.0053    1.8021    0.0021 H         1 <0>         0.0592
     21 H2         -0.5445    1.7859   -0.8732 H         1 <0>         0.1050
     22 H3         -0.5275    1.7763    0.9067 H         1 <0>         0.0592
     23 H4          1.1558    1.2153    2.0113 H         1 <0>         0.1385
     24 H5          2.2837    0.1027    3.8911 H         1 <0>         0.1341
     25 H6          2.3965   -2.3522    3.9921 H         1 <0>         0.1362
     26 H7          1.3815   -3.7116    2.2132 H         1 <0>         0.1454
     27 H8          0.2015   -6.8382    0.1985 H         1 <0>         0.1547
     28 H9         -0.2006   -9.1533   -0.5338 H         1 <0>         0.1702
     29 H10        -2.1909   -7.8629   -3.9386 H         1 <0>         0.1696
     30 H11        -1.8700   -5.5020   -3.3212 H         1 <0>         0.1501
@<TRIPOS>BOND
     1    1    2 1
     2    1   20 1
     3    1   21 1
     4    1   22 1
     5    2    3 1
     6    3    8 ar
     7    3    4 ar
     8    4    5 ar
     9    4   23 1
    10    5    6 ar
    11    5   24 1
    12    6    7 ar
    13    6   25 1
    14    7    8 ar
    15    7   26 1
    16    8    9 1
    17    9   13 2
    18    9   10 1
    19   10   11 2
    20   11   12 1
    21   11   14 1
    22   12   13 1
    23   14   19 ar
    24   14   15 ar
    25   15   16 ar
    26   15   27 1
    27   16   17 ar
    28   16   28 1
    29   17   18 ar
    30   18   19 ar
    31   18   29 1
    32   19   30 1
@<TRIPOS>MOLECULE
ZINC00078856
   23    25     0     0     0
SMALL
USER_CHARGES

@<TRIPOS>ATOM
      1 C1         -0.0162    1.3457    0.0094 C.2       1 <0>        -0.2218
      2 C2          1.3214    1.7772   -0.0010 C.2       1 <0>        -0.1089
      3 C3          2.0958    0.6541   -0.0144 C.2       1 <0>         0.0075
      4 O1          1.2775   -0.4177   -0.0124 O.3       1 <0>        -0.1430
      5 C4          0.0021   -0.0041    0.0020 C.2       1 <0>         0.0192
      6 C5          3.5638    0.6186   -0.0286 C.2       1 <0>         0.3801
      7 N1          4.3102   -0.4656   -0.0469 N.2       1 <0>        -0.5182
      8 C6          5.6075   -0.1264   -0.0564 C.2       1 <0>         0.2993
      9 N2          5.7053    1.1808   -0.0443 N.2       1 <0>        -0.3169
     10 O2          4.3800    1.6893   -0.0312 O.3       1 <0>        -0.0816
     11 C7          6.7482   -1.0773   -0.0765 C.ar      1 <0>         0.0067
     12 C8          6.5318   -2.4572   -0.0932 C.ar      1 <0>        -0.1192
     13 C9          7.6204   -3.3058   -0.1121 C.ar      1 <0>         0.1012
     14 N3          8.8501   -2.8292   -0.1145 N.ar      1 <0>        -0.4665
     15 C10         9.0976   -1.5338   -0.0991 C.ar      1 <0>         0.1027
     16 C11         8.0667   -0.6158   -0.0851 C.ar      1 <0>        -0.1313
     17 H1         -0.8935    1.9755    0.0252 H         1 <0>         0.1664
     18 H2          1.6689    2.7997    0.0006 H         1 <0>         0.1682
     19 H3         -0.8671   -0.6450    0.0069 H         1 <0>         0.2214
     20 H4          5.5274   -2.8543   -0.0911 H         1 <0>         0.1522
     21 H5          7.4630   -4.3742   -0.1248 H         1 <0>         0.1684
     22 H6         10.1202   -1.1867   -0.1014 H         1 <0>         0.1681
     23 H7          8.2765    0.4436   -0.0772 H         1 <0>         0.1462
@<TRIPOS>BOND
     1    1    5 2
     2    1    2 1
     3    1   17 1
     4    2    3 2
     5    2   18 1
     6    3    4 1
     7    3    6 1
     8    4    5 1
     9    5   19 1
    10    6   10 1
    11    6    7 2
    12    7    8 1
    13    8    9 2
    14    8   11 1
    15    9   10 1
    16   11   16 ar
    17   11   12 ar
    18   12   13 ar
    19   12   20 1
    20   13   14 ar
    21   13   21 1
    22   14   15 ar
    23   15   16 ar
    24   15   22 1
    25   16   23 1
@<TRIPOS>MOLECULE
ZINC00469642
   35    37     0     0     0
SMALL
USER_CHARGES

@<TRIPOS>ATOM
      1 C1         -0.0173    1.4248    0.0099 C.3       1 <0>         0.0220
      2 O1          0.0021   -0.0041    0.0020 O.3       1 <0>        -0.3083
      3 C2         -1.1992   -0.6369    0.0101 C.ar      1 <0>         0.2072
      4 C3         -2.3741    0.1074    0.0195 C.ar      1 <0>        -0.2521
      5 C4         -3.5960   -0.5266    0.0273 C.ar      1 <0>         0.0283
      6 C5         -3.6580   -1.9227    0.0257 C.ar      1 <0>        -0.1281
      7 C6         -2.4727   -2.6715    0.0162 C.ar      1 <0>         0.2180
      8 C7         -1.2498   -2.0229    0.0031 C.ar      1 <0>        -0.2545
      9 O2         -2.5241   -4.0278    0.0151 O.3       1 <0>        -0.2949
     10 C8         -1.2764   -4.7244    0.0052 C.3       1 <0>         0.0215
     11 C9         -4.9650   -2.6056    0.0345 C.2       1 <0>         0.3580
     12 N1         -6.1410   -2.0190    0.0389 N.2       1 <0>        -0.5441
     13 C10        -7.1131   -2.9440    0.0466 C.2       1 <0>         0.2990
     14 N2         -6.5651   -4.1350    0.0473 N.2       1 <0>        -0.3450
     15 O3         -5.1595   -3.9366    0.0335 O.3       1 <0>        -0.0811
     16 C11        -8.5710   -2.6645    0.0534 C.ar      1 <0>        -0.0374
     17 C12        -9.0307   -1.3494    0.0462 C.ar      1 <0>        -0.0663
     18 C13       -10.3873   -1.0951    0.0526 C.ar      1 <0>        -0.1260
     19 C14       -11.2898   -2.1431    0.0661 C.ar      1 <0>        -0.0939
     20 C15       -10.8389   -3.4507    0.0738 C.ar      1 <0>        -0.1242
     21 C16        -9.4845   -3.7163    0.0612 C.ar      1 <0>        -0.0775
     22 H1          1.0053    1.8021    0.0021 H         1 <0>         0.1062
     23 H2         -0.5445    1.7859   -0.8732 H         1 <0>         0.0628
     24 H3         -0.5275    1.7763    0.9067 H         1 <0>         0.0628
     25 H4         -2.3277    1.1864    0.0211 H         1 <0>         0.1444
     26 H5         -4.5063    0.0546    0.0349 H         1 <0>         0.1532
     27 H6         -0.3347   -2.5964   -0.0087 H         1 <0>         0.1498
     28 H7         -1.4601   -5.7988    0.0054 H         1 <0>         0.1086
     29 H8         -0.7152   -4.4518   -0.8886 H         1 <0>         0.0635
     30 H9         -0.7022   -4.4538    0.8913 H         1 <0>         0.0635
     31 H10        -8.3268   -0.5303    0.0360 H         1 <0>         0.1383
     32 H11       -10.7447   -0.0760    0.0473 H         1 <0>         0.1325
     33 H12       -12.3505   -1.9397    0.0711 H         1 <0>         0.1296
     34 H13       -11.5479   -4.2654    0.0847 H         1 <0>         0.1322
     35 H14        -9.1334   -4.7377    0.0620 H         1 <0>         0.1319
@<TRIPOS>BOND
     1    1    2 1
     2    1   22 1
     3    1   23 1
     4    1   24 1
     5    2    3 1
     6    3    8 ar
     7    3    4 ar
     8    4    5 ar
     9    4   25 1
    10    5    6 ar
    11    5   26 1
    12    6    7 ar
    13    6   11 1
    14    7    8 ar
    15    7    9 1
    16    8   27 1
    17    9   10 1
    18   10   28 1
    19   10   29 1
    20   10   30 1
    21   11   15 1
    22   11   12 2
    23   12   13 1
    24   13   14 2
    25   13   16 1
    26   14   15 1
    27   16   21 ar
    28   16   17 ar
    29   17   18 ar
    30   17   31 1
    31   18   19 ar
    32   18   32 1
    33   19   20 ar
    34   19   33 1
    35   20   21 ar
    36   20   34 1
    37   21   35 1
@<TRIPOS>MOLECULE
ZINC00163321
   28    30     0     0     0
SMALL
USER_CHARGES

@<TRIPOS>ATOM
      1 C1         -0.0173    1.4248    0.0099 C.3       1 <0>         0.0214
      2 O1          0.0021   -0.0041    0.0020 O.3       1 <0>        -0.2827
      3 C2          0.6052   -0.6065   -1.0547 C.ar      1 <0>         0.1790
      4 C3          1.1724    0.1589   -2.0614 C.ar      1 <0>        -0.2146
      5 C4          1.7858   -0.4553   -3.1362 C.ar      1 <0>        -0.0525
      6 C5          1.8388   -1.8366   -3.2161 C.ar      1 <0>        -0.1576
      7 C6          1.2793   -2.6124   -2.2228 C.ar      1 <0>        -0.0471
      8 C7          0.6618   -2.0037   -1.1291 C.ar      1 <0>        -0.0654
      9 C8          0.0659   -2.8292   -0.0586 C.2       1 <0>         0.2146
     10 N1         -0.5603   -2.4408    1.0312 N.2       1 <0>        -0.4807
     11 C9         -1.0586   -3.3124    1.9298 C.ar      1 <0>         0.0795
     12 C10        -1.7475   -3.0295    3.1335 C.ar      1 <0>        -0.0597
     13 C11        -2.1884   -4.0340    3.9367 C.ar      1 <0>        -0.1125
     14 C12        -1.9842   -5.3685    3.6139 C.ar      1 <0>        -0.0946
     15 C13        -1.3160   -5.6886    2.4467 C.ar      1 <0>        -0.0682
     16 C14        -0.8661   -4.6815    1.6285 C.ar      1 <0>        -0.1417
     17 S1          0.0051   -4.6100    0.0820 S.3       1 <0>        -0.0183
     18 H1          1.0053    1.8021    0.0021 H         1 <0>         0.0574
     19 H2         -0.5445    1.7859   -0.8732 H         1 <0>         0.0574
     20 H3         -0.5275    1.7763    0.9067 H         1 <0>         0.1032
     21 H4          1.1345    1.2368   -2.0058 H         1 <0>         0.1379
     22 H5          2.2261    0.1452   -3.9184 H         1 <0>         0.1334
     23 H6          2.3200   -2.3083   -4.0601 H         1 <0>         0.1355
     24 H7          1.3227   -3.6895   -2.2889 H         1 <0>         0.1353
     25 H8         -1.9249   -2.0027    3.4177 H         1 <0>         0.1329
     26 H9         -2.7104   -3.7874    4.8494 H         1 <0>         0.1346
     27 H10        -2.3435   -6.1490    4.2682 H         1 <0>         0.1395
     28 H11        -1.1486   -6.7219    2.1809 H         1 <0>         0.1343
@<TRIPOS>BOND
     1    1    2 1
     2    1   18 1
     3    1   19 1
     4    1   20 1
     5    2    3 1
     6    3    8 ar
     7    3    4 ar
     8    4    5 ar
     9    4   21 1
    10    5    6 ar
    11    5   22 1
    12    6    7 ar
    13    6   23 1
    14    7    8 ar
    15    7   24 1
    16    8    9 1
    17    9   17 1
    18    9   10 2
    19   10   11 1
    20   11   16 ar
    21   11   12 ar
    22   12   13 ar
    23   12   25 1
    24   13   14 ar
    25   13   26 1
    26   14   15 ar
    27   14   27 1
    28   15   16 ar
    29   15   28 1
    30   16   17 1
@<TRIPOS>MOLECULE
ZINC00163334
   24    26     0     0     0
SMALL
USER_CHARGES

@<TRIPOS>ATOM
      1 C1         -0.0164    1.3552    0.0095 C.ar      1 <0>        -0.1120
      2 C2          1.1548    2.1005    0.0023 C.ar      1 <0>        -0.0876
      3 C3          2.3732    1.4477   -0.0128 C.ar      1 <0>        -0.0694
      4 C4          2.4033    0.0745   -0.0204 C.ar      1 <0>        -0.1379
      5 C5          1.2274   -0.7129   -0.0134 C.ar      1 <0>         0.0744
      6 C6          0.0021   -0.0041    0.0020 C.ar      1 <0>        -0.0561
      7 N1          1.4175   -2.0464   -0.0223 N.2       1 <0>        -0.4905
      8 C7          2.6146   -2.5901   -0.0366 C.2       1 <0>         0.1956
      9 S1          3.6832   -1.1573   -0.0391 S.3       1 <0>         0.0029
     10 C8          2.9831   -4.0224   -0.0478 C.ar      1 <0>         0.0056
     11 C9          1.9887   -5.0015   -0.0494 C.ar      1 <0>        -0.0776
     12 C10         2.3375   -6.3362   -0.0603 C.ar      1 <0>        -0.0895
     13 C11         3.6704   -6.7064   -0.0696 C.ar      1 <0>        -0.1304
     14 C12         4.6633   -5.7401   -0.0681 C.ar      1 <0>         0.1037
     15 C13         4.3259   -4.3997   -0.0626 C.ar      1 <0>        -0.1250
     16 F1          5.9631   -6.1085   -0.0773 F         1 <0>        -0.1318
     17 H1         -0.9665    1.8685    0.0259 H         1 <0>         0.1371
     18 H2          1.1144    3.1797    0.0081 H         1 <0>         0.1419
     19 H3          3.2936    2.0126   -0.0189 H         1 <0>         0.1366
     20 H4         -0.9297   -0.5500    0.0079 H         1 <0>         0.1351
     21 H5          0.9474   -4.7148   -0.0417 H         1 <0>         0.1446
     22 H6          1.5681   -7.0941   -0.0612 H         1 <0>         0.1449
     23 H7          3.9380   -7.7526   -0.0778 H         1 <0>         0.1441
     24 H8          5.0999   -3.6466   -0.0656 H         1 <0>         0.1415
@<TRIPOS>BOND
     1    1    6 ar
     2    1    2 ar
     3    1   17 1
     4    2    3 ar
     5    2   18 1
     6    3    4 ar
     7    3   19 1
     8    4    9 1
     9    4    5 ar
    10    5    6 ar
    11    5    7 1
    12    6   20 1
    13    7    8 2
    14    8    9 1
    15    8   10 1
    16   10   15 ar
    17   10   11 ar
    18   11   12 ar
    19   11   21 1
    20   12   13 ar
    21   12   22 1
    22   13   14 ar
    23   13   23 1
    24   14   15 ar
    25   14   16 1
    26   15   24 1
@<TRIPOS>MOLECULE
ZINC00496804
   30    32     0     0     0
SMALL
USER_CHARGES

@<TRIPOS>ATOM
      1 C1         -0.0173    1.4248    0.0099 C.3       1 <0>         0.0237
      2 O1          0.0021   -0.0041    0.0020 O.3       1 <0>        -0.3016
      3 C2         -1.1988   -0.6367    0.0101 C.ar      1 <0>         0.1767
      4 C3         -2.3734    0.0996    0.0195 C.ar      1 <0>        -0.2174
      5 C4         -3.5948   -0.5453    0.0272 C.ar      1 <0>        -0.0398
      6 C5         -3.6561   -1.9289    0.0261 C.ar      1 <0>        -0.1642
      7 C6         -2.4976   -2.6761    0.0173 C.ar      1 <0>        -0.0127
      8 C7         -1.2566   -2.0363    0.0031 C.ar      1 <0>        -0.0891
      9 C8         -0.0122   -2.8305   -0.0130 C.2       1 <0>         0.3473
     10 N1          0.0645   -4.1416   -0.0260 N.2       1 <0>        -0.5151
     11 C9          1.3506   -4.5243   -0.0385 C.2       1 <0>         0.3046
     12 N2          2.1105   -3.4565   -0.0335 N.2       1 <0>        -0.3345
     13 O2          1.2385   -2.3364   -0.0227 O.3       1 <0>        -0.0735
     14 C10         1.8339   -5.9284   -0.0547 C.ar      1 <0>         0.1816
     15 C11         3.2020   -6.1875   -0.0609 C.ar      1 <0>        -0.1272
     16 C12         3.6379   -7.5017   -0.0761 C.ar      1 <0>        -0.0752
     17 C13         2.6890   -8.5137   -0.0846 C.ar      1 <0>        -0.1497
     18 C14         1.3458   -8.1837   -0.0777 C.ar      1 <0>         0.1037
     19 N3          0.9590   -6.9248   -0.0578 N.ar      1 <0>        -0.4397
     20 H1          1.0053    1.8021    0.0021 H         1 <0>         0.1068
     21 H2         -0.5445    1.7859   -0.8732 H         1 <0>         0.0613
     22 H3         -0.5275    1.7763    0.9067 H         1 <0>         0.0614
     23 H4         -2.3334    1.1789    0.0211 H         1 <0>         0.1410
     24 H5         -4.5071    0.0326    0.0345 H         1 <0>         0.1362
     25 H6         -4.6156   -2.4246    0.0325 H         1 <0>         0.1392
     26 H7         -2.5499   -3.7549    0.0172 H         1 <0>         0.1510
     27 H8          3.9132   -5.3748   -0.0543 H         1 <0>         0.1455
     28 H9          4.6927   -7.7337   -0.0815 H         1 <0>         0.1465
     29 H10         2.9961   -9.5491   -0.0968 H         1 <0>         0.1451
     30 H11         0.6043   -8.9689   -0.0847 H         1 <0>         0.1680
@<TRIPOS>BOND
     1    1    2 1
     2    1   20 1
     3    1   21 1
     4    1   22 1
     5    2    3 1
     6    3    8 ar
     7    3    4 ar
     8    4    5 ar
     9    4   23 1
    10    5    6 ar
    11    5   24 1
    12    6    7 ar
    13    6   25 1
    14    7    8 ar
    15    7   26 1
    16    8    9 1
    17    9   13 1
    18    9   10 2
    19   10   11 1
    20   11   12 2
    21   11   14 1
    22   12   13 1
    23   14   19 ar
    24   14   15 ar
    25   15   16 ar
    26   15   27 1
    27   16   17 ar
    28   16   28 1
    29   17   18 ar
    30   17   29 1
    31   18   19 ar
    32   18   30 1
@<TRIPOS>MOLECULE
ZINC02882071
   31    33     0     0     0
SMALL
USER_CHARGES

@<TRIPOS>ATOM
      1 C1         -0.0173    1.4248    0.0099 C.3       1 <0>         0.0240
      2 O1          0.0021   -0.0041    0.0020 O.3       1 <0>        -0.2961
      3 C2          0.6053   -0.6066   -1.0549 C.ar      1 <0>         0.1681
      4 C3          1.1725    0.1592   -2.0617 C.ar      1 <0>        -0.2160
      5 C4          1.7854   -0.4551   -3.1365 C.ar      1 <0>        -0.0504
      6 C5          1.8377   -1.8360   -3.2152 C.ar      1 <0>        -0.1640
      7 C6          1.2777   -2.6105   -2.2202 C.ar      1 <0>        -0.0264
      8 C7          0.6617   -2.0016   -1.1289 C.ar      1 <0>        -0.0764
      9 C8          0.0631   -2.8295   -0.0536 C.2       1 <0>         0.3012
     10 N1          0.0593   -4.1713   -0.0112 N.2       1 <0>        -0.5332
     11 C9         -0.5517   -4.5829    1.0749 C.2       1 <0>         0.3381
     12 O2         -0.9595   -3.5026    1.7636 O.3       1 <0>        -0.1056
     13 N2         -0.5443   -2.3706    1.0143 N.2       1 <0>        -0.3087
     14 C10        -0.7571   -5.9920    1.4723 C.ar      1 <0>        -0.0502
     15 C11        -0.2771   -7.0248    0.6656 C.ar      1 <0>        -0.0547
     16 C12        -0.4716   -8.3376    1.0424 C.ar      1 <0>        -0.1262
     17 C13        -1.1409   -8.6314    2.2171 C.ar      1 <0>        -0.0842
     18 C14        -1.6196   -7.6123    3.0212 C.ar      1 <0>        -0.1245
     19 C15        -1.4267   -6.2952    2.6587 C.ar      1 <0>        -0.0712
     20 H1          1.0053    1.8021    0.0021 H         1 <0>         0.0587
     21 H2         -0.5445    1.7859   -0.8732 H         1 <0>         0.0587
     22 H3         -0.5275    1.7763    0.9067 H         1 <0>         0.1046
     23 H4          1.1349    1.2371   -2.0058 H         1 <0>         0.1378
     24 H5          2.2256    0.1449   -3.9192 H         1 <0>         0.1334
     25 H6          2.3183   -2.3090   -4.0588 H         1 <0>         0.1355
     26 H7          1.3202   -3.6877   -2.2853 H         1 <0>         0.1451
     27 H8          0.2452   -6.7968   -0.2519 H         1 <0>         0.1419
     28 H9         -0.1010   -9.1377    0.4188 H         1 <0>         0.1361
     29 H10        -1.2906   -9.6608    2.5076 H         1 <0>         0.1324
     30 H11        -2.1419   -7.8483    3.9366 H         1 <0>         0.1355
     31 H12        -1.7966   -5.5005    3.2897 H         1 <0>         0.1365
@<TRIPOS>BOND
     1    1    2 1
     2    1   20 1
     3    1   21 1
     4    1   22 1
     5    2    3 1
     6    3    8 ar
     7    3    4 ar
     8    4    5 ar
     9    4   23 1
    10    5    6 ar
    11    5   24 1
    12    6    7 ar
    13    6   25 1
    14    7    8 ar
    15    7   26 1
    16    8    9 1
    17    9   13 2
    18    9   10 1
    19   10   11 2
    20   11   12 1
    21   11   14 1
    22   12   13 1
    23   14   19 ar
    24   14   15 ar
    25   15   16 ar
    26   15   27 1
    27   16   17 ar
    28   16   28 1
    29   17   18 ar
    30   17   29 1
    31   18   19 ar
    32   18   30 1
    33   19   31 1
@<TRIPOS>MOLECULE
ZINC00019636
   32    34     0     0     0
SMALL
USER_CHARGES

@<TRIPOS>ATOM
      1 C1         -0.0178    1.4608    0.0101 C.3       1 <0>         0.0869
      2 N1          0.0021   -0.0041    0.0020 N.pl3     1 <0>        -0.6296
      3 C2          0.0241   -0.7433    1.2666 C.3       1 <0>         0.0869
      4 C3          0.0000   -0.6944   -1.2087 C.ar      1 <0>         0.2415
      5 C4          0.0131   -2.0853   -1.2147 C.ar      1 <0>        -0.2037
      6 C5          0.0111   -2.7703   -2.4097 C.ar      1 <0>        -0.0105
      7 C6         -0.0046   -2.0669   -3.6161 C.ar      1 <0>        -0.0952
      8 C7         -0.0182   -0.6704   -3.6069 C.ar      1 <0>        -0.0306
      9 C8         -0.0209    0.0090   -2.4087 C.ar      1 <0>        -0.2001
     10 C9         -0.0063   -2.7987   -4.8996 C.2       1 <0>         0.2281
     11 N2         -0.0005   -4.0975   -5.1091 N.2       1 <0>        -0.5135
     12 C10        -0.0035   -4.6314   -6.3463 C.ar      1 <0>         0.0849
     13 C11         0.0024   -5.9998   -6.7081 C.ar      1 <0>        -0.0652
     14 C12        -0.0008   -6.3750   -8.0150 C.ar      1 <0>        -0.1102
     15 C13        -0.0099   -5.4410   -9.0416 C.ar      1 <0>        -0.0984
     16 C14        -0.0164   -4.0936   -8.7317 C.ar      1 <0>        -0.0662
     17 C15        -0.0132   -3.7039   -7.4148 C.ar      1 <0>        -0.1455
     18 S1         -0.0247   -2.1450   -6.5630 S.3       1 <0>        -0.0210
     19 H1          1.0048    1.8381    0.0023 H         1 <0>         0.0535
     20 H2         -0.5450    1.8219   -0.8730 H         1 <0>         0.0724
     21 H3         -0.5280    1.8123    0.9069 H         1 <0>         0.0706
     22 H4         -0.9979   -0.9406    1.5900 H         1 <0>         0.0536
     23 H5          0.5496   -1.6879    1.1262 H         1 <0>         0.0726
     24 H6          0.5371   -0.1514    2.0246 H         1 <0>         0.0705
     25 H7          0.0252   -2.6287   -0.2814 H         1 <0>         0.1323
     26 H8          0.0219   -3.8503   -2.4137 H         1 <0>         0.1361
     27 H9         -0.0299   -0.1238   -4.5382 H         1 <0>         0.1278
     28 H10        -0.0356    1.0888   -2.4009 H         1 <0>         0.1327
     29 H11         0.0099   -6.7554   -5.9365 H         1 <0>         0.1324
     30 H12         0.0042   -7.4267   -8.2605 H         1 <0>         0.1342
     31 H13        -0.0116   -5.7635  -10.0723 H         1 <0>         0.1390
     32 H14        -0.0239   -3.3539   -9.5185 H         1 <0>         0.1337
@<TRIPOS>BOND
     1    1    2 1
     2    1   19 1
     3    1   20 1
     4    1   21 1
     5    2    3 1
     6    2    4 1
     7    3   22 1
     8    3   23 1
     9    3   24 1
    10    4    9 ar
    11    4    5 ar
    12    5    6 ar
    13    5   25 1
    14    6    7 ar
    15    6   26 1
    16    7    8 ar
    17    7   10 1
    18    8    9 ar
    19    8   27 1
    20    9   28 1
    21   10   18 1
    22   10   11 2
    23   11   12 1
    24   12   17 ar
    25   12   13 ar
    26   13   14 ar
    27   13   29 1
    28   14   15 ar
    29   14   30 1
    30   15   16 ar
    31   15   31 1
    32   16   17 ar
    33   16   32 1
    34   17   18 1
