@<TRIPOS>MOLECULE
ZINC00012514
   35    36     0     0     0
SMALL
USER_CHARGES

@<TRIPOS>ATOM
      1 C1         -0.1710    2.6077   -0.1178 C.2       1 <0>        -0.1588
      2 C2          1.1393    3.0476   -0.1381 C.2       1 <0>        -0.1476
      3 C3          2.1397    2.1376   -0.0456 C.2       1 <0>        -0.1494
      4 S1          1.2338    0.6039    0.0749 S.3       1 <0>         0.0406
      5 C4         -0.4168    1.2794   -0.0061 C.2       1 <0>        -0.1676
      6 C5          3.6298    2.3621   -0.0452 C.3       1 <0>        -0.0337
      7 C6          4.1149    2.5630    1.3918 C.3       1 <0>         0.0712
      8 O1          5.5280    2.7760    1.3922 O.3       1 <0>        -0.3441
      9 C7          6.1173    2.9712    2.5891 C.2       1 <0>         0.5248
     10 O2          5.4490    2.9608    3.6046 O.2       1 <0>        -0.4908
     11 C8          7.5675    3.1965    2.6661 C.2       1 <0>        -0.1060
     12 C9          8.1701    3.3962    3.8901 C.2       1 <0>         0.0884
     13 C10         9.5800    3.7848    3.9572 C.ar      1 <0>        -0.1060
     14 C11        10.3906    3.3148    5.0007 C.ar      1 <0>        -0.0660
     15 C12        11.7156    3.6818    5.0602 C.ar      1 <0>        -0.1353
     16 C13        12.2537    4.5177    4.0891 C.ar      1 <0>         0.1124
     17 C14        11.4545    4.9900    3.0472 C.ar      1 <0>         0.0811
     18 C15        10.1263    4.6236    2.9748 C.ar      1 <0>        -0.0964
     19 O3         11.9863    5.8081    2.1000 O.3       1 <0>        -0.4834
     20 O4         13.5613    4.8764    4.1545 O.3       1 <0>        -0.4849
     21 C16         8.3547    3.2088    1.4700 C.1       1 <0>         0.2517
     22 N1          8.9792    3.2185    0.5211 N.1       1 <0>        -0.3956
     23 H1         -0.9867    3.3123   -0.1855 H         1 <0>         0.1359
     24 H2          1.3627    4.1005   -0.2267 H         1 <0>         0.1350
     25 H3         -1.3651    0.7636    0.0260 H         1 <0>         0.1873
     26 H4          4.1280    1.4951   -0.4790 H         1 <0>         0.0928
     27 H5          3.8639    3.2484   -0.6350 H         1 <0>         0.0999
     28 H6          3.6167    3.4300    1.8256 H         1 <0>         0.0783
     29 H7          3.8809    1.6767    1.9816 H         1 <0>         0.0773
     30 H8          7.6020    3.2659    4.7994 H         1 <0>         0.1732
     31 H9          9.9752    2.6657    5.7573 H         1 <0>         0.1455
     32 H10        12.3391    3.3195    5.8642 H         1 <0>         0.1447
     33 H11         9.5080    4.9853    2.1666 H         1 <0>         0.1382
     34 H12        12.3578    5.3401    1.3397 H         1 <0>         0.3923
     35 H13        14.1578    4.2756    3.6874 H         1 <0>         0.3950
@<TRIPOS>BOND
     1    1    5 2
     2    1    2 1
     3    1   23 1
     4    2    3 2
     5    2   24 1
     6    3    4 1
     7    3    6 1
     8    4    5 1
     9    5   25 1
    10    6    7 1
    11    6   26 1
    12    6   27 1
    13    7    8 1
    14    7   28 1
    15    7   29 1
    16    8    9 1
    17    9   10 2
    18    9   11 1
    19   11   12 2
    20   11   21 1
    21   12   13 1
    22   12   30 1
    23   13   18 ar
    24   13   14 ar
    25   14   15 ar
    26   14   31 1
    27   15   16 ar
    28   15   32 1
    29   16   17 ar
    30   16   20 1
    31   17   18 ar
    32   17   19 1
    33   18   33 1
    34   19   34 1
    35   20   35 1
    36   21   22 3
@<TRIPOS>MOLECULE
ZINC02558182
   39    40     0     0     0
SMALL
USER_CHARGES
cinnamyl (E)-2-cyano-3-(3,4-dihydroxyphenyl)prop-2-enoate
@<TRIPOS>ATOM
      1 C1          5.2229   -9.4828    0.0112 C.ar      1 <0>        -0.1157
      2 C2          6.1730   -8.9527   -0.8433 C.ar      1 <0>        -0.1200
      3 C3          6.3337   -7.5857   -0.9383 C.ar      1 <0>        -0.1049
      4 C4          5.5349   -6.7374   -0.1705 C.ar      1 <0>        -0.0639
      5 C5          4.5821   -7.2786    0.6933 C.ar      1 <0>        -0.1107
      6 C6          4.4275   -8.6472    0.7747 C.ar      1 <0>        -0.1189
      7 C7          5.7016   -5.2719   -0.2674 C.2       1 <0>        -0.0899
      8 C8          4.9413   -4.4686    0.4633 C.2       1 <0>        -0.1561
      9 C9          5.1112   -2.9745    0.3646 C.3       1 <0>         0.1016
     10 O1          3.8065   -2.3439    0.2735 O.3       1 <0>        -0.3453
     11 C10         3.7818   -0.9992    0.1783 C.2       1 <0>         0.5251
     12 O2          4.8227   -0.3711    0.1716 O.2       1 <0>        -0.4951
     13 C11         2.4966   -0.2928    0.0827 C.2       1 <0>        -0.1052
     14 C12         2.4714    1.0824   -0.0147 C.2       1 <0>         0.0848
     15 C13         1.1947    1.7968    0.0399 C.ar      1 <0>        -0.1056
     16 C14         1.0402    3.0146   -0.6383 C.ar      1 <0>        -0.0642
     17 C15        -0.1599    3.6857   -0.5807 C.ar      1 <0>        -0.1367
     18 C16        -1.2236    3.1551    0.1392 C.ar      1 <0>         0.1137
     19 C17        -1.0788    1.9440    0.8170 C.ar      1 <0>         0.0808
     20 C18         0.1217    1.2655    0.7702 C.ar      1 <0>        -0.1010
     21 O3         -2.1217    1.4318    1.5237 O.3       1 <0>        -0.4817
     22 O4         -2.4061    3.8201    0.1877 O.3       1 <0>        -0.4845
     23 C19         1.2706   -1.0326    0.0906 C.1       1 <0>         0.2458
     24 N1          0.2980   -1.6195    0.0969 N.1       1 <0>        -0.3883
     25 H1          5.1013  -10.5536    0.0822 H         1 <0>         0.1236
     26 H2          6.7906   -9.6104   -1.4370 H         1 <0>         0.1251
     27 H3          7.0758   -7.1730   -1.6057 H         1 <0>         0.1256
     28 H4          3.9638   -6.6275    1.2934 H         1 <0>         0.1255
     29 H5          3.6873   -9.0673    1.4396 H         1 <0>         0.1247
     30 H6          6.4429   -4.8556   -0.9334 H         1 <0>         0.1245
     31 H7          4.2000   -4.8849    1.1293 H         1 <0>         0.1265
     32 H8          5.6942   -2.7330   -0.5242 H         1 <0>         0.0826
     33 H9          5.6306   -2.6085    1.2503 H         1 <0>         0.0887
     34 H10         3.3935    1.6325   -0.1313 H         1 <0>         0.1729
     35 H11         1.8638    3.4277   -1.2016 H         1 <0>         0.1457
     36 H12        -0.2766    4.6257   -1.0996 H         1 <0>         0.1448
     37 H13         0.2346    0.3279    1.2942 H         1 <0>         0.1404
     38 H14        -2.1497    1.7183    2.4469 H         1 <0>         0.3907
     39 H15        -2.4746    4.4477    0.9203 H         1 <0>         0.3947
@<TRIPOS>BOND
     1    1    6 ar
     2    1    2 ar
     3    1   25 1
     4    2    3 ar
     5    2   26 1
     6    3    4 ar
     7    3   27 1
     8    4    5 ar
     9    4    7 1
    10    5    6 ar
    11    5   28 1
    12    6   29 1
    13    7    8 2
    14    7   30 1
    15    8    9 1
    16    8   31 1
    17    9   10 1
    18    9   32 1
    19    9   33 1
    20   10   11 1
    21   11   12 2
    22   11   13 1
    23   13   14 2
    24   13   23 1
    25   14   15 1
    26   14   34 1
    27   15   20 ar
    28   15   16 ar
    29   16   17 ar
    30   16   35 1
    31   17   18 ar
    32   17   36 1
    33   18   19 ar
    34   18   22 1
    35   19   20 ar
    36   19   21 1
    37   20   37 1
    38   21   38 1
    39   22   39 1
    40   23   24 3
@<TRIPOS>MOLECULE
ZINC00004333
   28    28     0     0     0
SMALL
USER_CHARGES
ethyl 2-cyano-3-(3,4-dihydroxyphenyl)-prop-2-enoate
@<TRIPOS>ATOM
      1 C1         -3.5441   -6.3995   -0.5282 C.3       1 <0>        -0.1555
      2 C2         -3.7645   -4.8899   -0.4122 C.3       1 <0>         0.0637
      3 O1         -2.4803   -4.2194   -0.3145 O.3       1 <0>        -0.3507
      4 C3         -2.4982   -2.8757   -0.2053 C.2       1 <0>         0.5239
      5 O2         -3.5584   -2.2809   -0.1922 O.2       1 <0>        -0.4962
      6 C4         -1.2360   -2.1300   -0.1021 C.2       1 <0>        -0.1064
      7 C5         -1.2542   -0.7558    0.0095 C.2       1 <0>         0.0846
      8 C6         -0.0007   -0.0009   -0.0374 C.ar      1 <0>        -0.1057
      9 C7          0.1160    1.2131    0.6550 C.ar      1 <0>        -0.0645
     10 C8          1.2960    1.9197    0.6090 C.ar      1 <0>        -0.1371
     11 C9          2.3733    1.4343   -0.1224 C.ar      1 <0>         0.1144
     12 C10         2.2663    0.2271   -0.8141 C.ar      1 <0>         0.0818
     13 C11         1.0879   -0.4894   -0.7746 C.ar      1 <0>        -0.1018
     14 O3          3.3240   -0.2433   -1.5278 O.3       1 <0>        -0.4868
     15 O4          3.5344    2.1366   -0.1634 O.3       1 <0>        -0.4900
     16 C12         0.0129   -2.8306   -0.1176 C.1       1 <0>         0.2479
     17 N1          1.0035   -3.3864   -0.1298 N.1       1 <0>        -0.3908
     18 H1         -3.0133   -6.7580    0.3538 H         1 <0>         0.0678
     19 H2         -4.5082   -6.9029   -0.6015 H         1 <0>         0.0839
     20 H3         -2.9539   -6.6132   -1.4193 H         1 <0>         0.0677
     21 H4         -4.3547   -4.6763    0.4789 H         1 <0>         0.0754
     22 H5         -4.2954   -4.5315   -1.2942 H         1 <0>         0.0752
     23 H6         -2.1932   -0.2364    0.1315 H         1 <0>         0.1726
     24 H7         -0.7195    1.5929    1.2243 H         1 <0>         0.1455
     25 H8          1.3849    2.8545    1.1426 H         1 <0>         0.1447
     26 H9          1.0054   -1.4259   -1.3063 H         1 <0>         0.1402
     27 H10         3.3419    0.0551   -2.4474 H         1 <0>         0.3962
     28 H11         4.1589    1.9053    0.5377 H         1 <0>         0.4004
@<TRIPOS>BOND
     1    1    2 1
     2    1   18 1
     3    1   19 1
     4    1   20 1
     5    2    3 1
     6    2   21 1
     7    2   22 1
     8    3    4 1
     9    4    5 2
    10    4    6 1
    11    6    7 2
    12    6   16 1
    13    7    8 1
    14    7   23 1
    15    8   13 ar
    16    8    9 ar
    17    9   10 ar
    18    9   24 1
    19   10   11 ar
    20   10   25 1
    21   11   12 ar
    22   11   15 1
    23   12   13 ar
    24   12   14 1
    25   13   26 1
    26   14   27 1
    27   15   28 1
    28   16   17 3
@<TRIPOS>MOLECULE
ZINC29489673
   42    44     0     0     0
SMALL
USER_CHARGES
N-hydroxy-N-methyl-2-[3-(2-quinolylmethoxy)phenyl]acetamide
@<TRIPOS>ATOM
      1 C1          1.2424    2.0932    0.0014 C.3       1 <0>         0.1084
      2 N1         -0.0162    1.3436    0.0094 N.am      1 <0>        -0.4698
      3 C2          0.0021   -0.0041    0.0020 C.2       1 <0>         0.4988
      4 O1          1.0605   -0.5961   -0.0113 O.2       1 <0>        -0.5129
      5 C3         -1.2926   -0.7753    0.0102 C.3       1 <0>        -0.1106
      6 C4         -0.9972   -2.2530   -0.0005 C.ar      1 <0>        -0.0312
      7 C5         -0.8788   -2.9251   -1.2033 C.ar      1 <0>        -0.1393
      8 C6         -0.6022   -4.2795   -1.2166 C.ar      1 <0>        -0.0758
      9 C7         -0.4546   -4.9673   -0.0274 C.ar      1 <0>        -0.2038
     10 C8         -0.5785   -4.2966    1.1804 C.ar      1 <0>         0.1338
     11 C9         -0.8505   -2.9360    1.1910 C.ar      1 <0>        -0.1336
     12 O2         -0.4342   -4.9710    2.3514 O.3       1 <0>        -0.3120
     13 C10        -0.1551   -6.3698    2.2644 C.3       1 <0>         0.1091
     14 C11        -0.0291   -6.9442    3.6519 C.ar      1 <0>         0.1598
     15 C12        -0.1827   -6.1018    4.7511 C.ar      1 <0>        -0.1545
     16 C13        -0.0771   -6.6060    6.0160 C.ar      1 <0>        -0.0553
     17 C14         0.1990   -7.9785    6.1631 C.ar      1 <0>        -0.1032
     18 C15         0.3277   -8.5666    7.4317 C.ar      1 <0>        -0.0960
     19 C16         0.5952   -9.8977    7.5321 C.ar      1 <0>        -0.1149
     20 C17         0.7431  -10.6853    6.3920 C.ar      1 <0>        -0.0990
     21 C18         0.6248  -10.1482    5.1474 C.ar      1 <0>        -0.0931
     22 C19         0.3489   -8.7772    5.0025 C.ar      1 <0>         0.1322
     23 N2          0.2276   -8.2219    3.7926 N.ar      1 <0>        -0.4702
     24 O3         -1.2520    2.0348    0.0190 O.3       1 <0>        -0.3594
     25 H1          1.0268    3.1718    0.0092 H         1 <0>         0.0886
     26 H2          1.8141    1.8401   -0.9036 H         1 <0>         0.0741
     27 H3          1.8313    1.8305    0.8926 H         1 <0>         0.0745
     28 H4         -1.8644   -0.5222    0.9152 H         1 <0>         0.1105
     29 H5         -1.8815   -0.5126   -0.8810 H         1 <0>         0.1115
     30 H6         -0.9986   -2.3902   -2.1338 H         1 <0>         0.1229
     31 H7         -0.5062   -4.8014   -2.1572 H         1 <0>         0.1280
     32 H8         -0.2433   -6.0264   -0.0383 H         1 <0>         0.1303
     33 H9         -0.9471   -2.4115    2.1301 H         1 <0>         0.1293
     34 H10        -0.9743   -6.8747    1.7316 H         1 <0>         0.0911
     35 H11         0.7870   -6.5224    1.7174 H         1 <0>         0.0911
     36 H12        -0.3894   -5.0522    4.6030 H         1 <0>         0.1476
     37 H13        -0.1973   -5.9684    6.8794 H         1 <0>         0.1425
     38 H14         0.2148   -7.9666    8.3226 H         1 <0>         0.1318
     39 H15         0.6944  -10.3492    8.5082 H         1 <0>         0.1296
     40 H16         0.9555  -11.7389    6.4980 H         1 <0>         0.1321
     41 H17         0.7427  -10.7726    4.2741 H         1 <0>         0.1368
     42 H18        -2.1970    1.4719    0.0250 H         1 <0>         0.4204
@<TRIPOS>BOND
     1    1    2 1
     2    1   25 1
     3    1   26 1
     4    1   27 1
     5    2    3 am
     6    2   24 1
     7    3    4 2
     8    3    5 1
     9    5    6 1
    10    5   28 1
    11    5   29 1
    12    6   11 ar
    13    6    7 ar
    14    7    8 ar
    15    7   30 1
    16    8    9 ar
    17    8   31 1
    18    9   10 ar
    19    9   32 1
    20   10   11 ar
    21   10   12 1
    22   11   33 1
    23   12   13 1
    24   13   14 1
    25   13   34 1
    26   13   35 1
    27   14   23 ar
    28   14   15 ar
    29   15   16 ar
    30   15   36 1
    31   16   17 ar
    32   16   37 1
    33   17   22 ar
    34   17   18 ar
    35   18   19 ar
    36   18   38 1
    37   19   20 ar
    38   19   39 1
    39   20   21 ar
    40   20   40 1
    41   21   22 ar
    42   21   41 1
    43   22   23 ar
    44   24   42 1
@<TRIPOS>MOLECULE
ZINC04802755
   37    38     0     0     0
SMALL
USER_CHARGES
2-(4-benzyloxyphenyl)-N-hydroxy-N-methyl-acetamide
@<TRIPOS>ATOM
      1 C1         12.4671   -2.1124   -2.5251 C.3       1 <0>         0.0668
      2 N1         11.3709   -3.0818   -2.4555 N.am      1 <0>        -0.4839
      3 C2         10.1061   -2.6565   -2.2666 C.2       1 <0>         0.5399
      4 O1          9.8754   -1.4711   -2.1542 O.2       1 <0>        -0.5145
      5 C3          8.9785   -3.6537   -2.1950 C.3       1 <0>        -0.0847
      6 C4          7.6768   -2.9255   -1.9801 C.ar      1 <0>        -0.1108
      7 C5          6.9315   -2.5085   -3.0676 C.ar      1 <0>        -0.0640
      8 C6          5.7379   -1.8408   -2.8733 C.ar      1 <0>        -0.1491
      9 C7          5.2871   -1.5886   -1.5857 C.ar      1 <0>         0.1316
     10 C8          6.0395   -2.0030   -0.4963 C.ar      1 <0>        -0.2074
     11 C9          7.2294   -2.6758   -0.6959 C.ar      1 <0>        -0.0633
     12 O2          4.1132   -0.9320   -1.3920 O.3       1 <0>        -0.3088
     13 C10         3.7112   -0.7071   -0.0392 C.3       1 <0>         0.1019
     14 C11         2.3960    0.0285   -0.0217 C.ar      1 <0>        -0.0981
     15 C12         1.2084   -0.6789   -0.0136 C.ar      1 <0>        -0.0955
     16 C13         0.0021   -0.0041    0.0020 C.ar      1 <0>        -0.1232
     17 C14        -0.0167    1.3781    0.0096 C.ar      1 <0>        -0.1093
     18 C15         1.1709    2.0855    0.0021 C.ar      1 <0>        -0.1230
     19 C16         2.3773    1.4107   -0.0141 C.ar      1 <0>        -0.0953
     20 O3         11.6403   -4.4658   -2.5867 O.3       1 <0>        -0.3297
     21 H1         12.8668   -1.9435   -1.5251 H         1 <0>         0.0646
     22 H2         13.2550   -2.5006   -3.1705 H         1 <0>         0.0789
     23 H3         12.0951   -1.1718   -2.9313 H         1 <0>         0.0938
     24 H4          9.1522   -4.3396   -1.3659 H         1 <0>         0.1050
     25 H5          8.9308   -4.2157   -3.1277 H         1 <0>         0.1057
     26 H6          7.2827   -2.7054   -4.0697 H         1 <0>         0.1274
     27 H7          5.1560   -1.5157   -3.7230 H         1 <0>         0.1312
     28 H8          5.6929   -1.8039    0.5070 H         1 <0>         0.1278
     29 H9          7.8130   -3.0031    0.1519 H         1 <0>         0.1229
     30 H10         4.4679   -0.1107    0.4703 H         1 <0>         0.0718
     31 H11         3.5990   -1.6641    0.4703 H         1 <0>         0.0718
     32 H12         1.2231   -1.7587   -0.0199 H         1 <0>         0.1242
     33 H13        -0.9258   -0.5567    0.0079 H         1 <0>         0.1258
     34 H14        -0.9592    1.9054    0.0170 H         1 <0>         0.1249
     35 H15         1.1563    3.1654    0.0077 H         1 <0>         0.1259
     36 H16         3.3051    1.9634   -0.0207 H         1 <0>         0.1244
     37 H17        12.5754   -4.6736   -2.7188 H         1 <0>         0.3940
@<TRIPOS>BOND
     1    1    2 1
     2    1   21 1
     3    1   22 1
     4    1   23 1
     5    2    3 am
     6    2   20 1
     7    3    4 2
     8    3    5 1
     9    5    6 1
    10    5   24 1
    11    5   25 1
    12    6   11 ar
    13    6    7 ar
    14    7    8 ar
    15    7   26 1
    16    8    9 ar
    17    8   27 1
    18    9   10 ar
    19    9   12 1
    20   10   11 ar
    21   10   28 1
    22   11   29 1
    23   12   13 1
    24   13   14 1
    25   13   30 1
    26   13   31 1
    27   14   19 ar
    28   14   15 ar
    29   15   16 ar
    30   15   32 1
    31   16   17 ar
    32   16   33 1
    33   17   18 ar
    34   17   34 1
    35   18   19 ar
    36   18   35 1
    37   19   36 1
    38   20   37 1
@<TRIPOS>MOLECULE
ZINC03871633
   30    32     0     0     0
SMALL
USER_CHARGES

@<TRIPOS>ATOM
      1 C1         -0.0167    1.3795    0.0096 C.ar      1 <0>        -0.0921
      2 C2          1.1683    2.0940    0.0021 C.ar      1 <0>        -0.1230
      3 C3          2.3774    1.4303   -0.0130 C.ar      1 <0>        -0.0790
      4 C4          2.4038    0.0341   -0.0208 C.ar      1 <0>        -0.0756
      5 C5          1.2040   -0.6806   -0.0131 C.ar      1 <0>        -0.0796
      6 C6          0.0021   -0.0041    0.0020 C.ar      1 <0>        -0.1207
      7 C7          3.6945   -0.6834   -0.0374 C.2       1 <0>         0.2091
      8 C8          3.6864   -2.0423   -0.0503 C.2       1 <0>        -0.3117
      9 C9          4.9141   -2.7479   -0.0669 C.2       1 <0>         0.4234
     10 O1          4.9443   -3.9678   -0.0790 O.2       1 <0>        -0.4507
     11 C10         6.1530   -1.9519   -0.0693 C.ar      1 <0>        -0.2508
     12 C11         6.0489   -0.5496   -0.0552 C.ar      1 <0>         0.1748
     13 O2          4.8301    0.0318   -0.0449 O.3       1 <0>        -0.2163
     14 C12         7.2014    0.2203   -0.0572 C.ar      1 <0>        -0.1662
     15 C13         8.4452   -0.3910   -0.0736 C.ar      1 <0>         0.1647
     16 C14         8.5528   -1.7804   -0.0881 C.ar      1 <0>         0.0244
     17 C15         7.4110   -2.5656   -0.0858 C.ar      1 <0>         0.1934
     18 O3          7.5117   -3.9201   -0.0990 O.3       1 <0>        -0.4665
     19 O4          9.7814   -2.3670   -0.1045 O.3       1 <0>        -0.4726
     20 O5          9.5696    0.3710   -0.0759 O.3       1 <0>        -0.4763
     21 H1         -0.9606    1.9042    0.0260 H         1 <0>         0.1310
     22 H2          1.1464    3.1737    0.0078 H         1 <0>         0.1327
     23 H3          3.3016    1.9892   -0.0192 H         1 <0>         0.1352
     24 H4          1.2173   -1.7605   -0.0194 H         1 <0>         0.1363
     25 H5         -0.9265   -0.5555    0.0079 H         1 <0>         0.1348
     26 H6          2.7501   -2.5805   -0.0475 H         1 <0>         0.1647
     27 H7          7.1302    1.2979   -0.0464 H         1 <0>         0.1582
     28 H8          7.5333   -4.3043   -0.9861 H         1 <0>         0.4056
     29 H9         10.1439   -2.5451    0.7741 H         1 <0>         0.3918
     30 H10         9.9027    0.5834    0.8067 H         1 <0>         0.4008
@<TRIPOS>BOND
     1    1    6 ar
     2    1    2 ar
     3    1   21 1
     4    2    3 ar
     5    2   22 1
     6    3    4 ar
     7    3   23 1
     8    4    5 ar
     9    4    7 1
    10    5    6 ar
    11    5   24 1
    12    6   25 1
    13    7   13 1
    14    7    8 2
    15    8    9 1
    16    8   26 1
    17    9   10 2
    18    9   11 1
    19   11   17 ar
    20   11   12 ar
    21   12   13 1
    22   12   14 ar
    23   14   15 ar
    24   14   27 1
    25   15   16 ar
    26   15   20 1
    27   16   17 ar
    28   16   19 1
    29   17   18 1
    30   18   28 1
    31   19   29 1
    32   20   30 1
