@<TRIPOS>MOLECULE
ZINC13836790
   38    38     0     0     0
SMALL
USER_CHARGES
[(1S,2S)-3-[(1S,2R,3S,4S)-3,4-dihydroxy-2-(hydroxymethyl)tetrahydrothiophen-1-ium-1-yl]-2-hydroxy-1-(hydroxymethyl)propyl] hydrogen sulfate
@<TRIPOS>ATOM
      1 C1          4.7962    0.8715    0.0848 C.3       1 <0>        -0.2407
      2 C2          6.1287    0.6927    0.8464 C.3       1 <0>         0.0572
      3 H1          6.5202   -0.3010    0.6285 H         1 <0>         0.1110
      4 C3          6.0012    0.8444    2.3547 C.3       1 <0>         0.1099
      5 H2          6.6545    1.6543    2.6793 H         1 <0>         0.1099
      6 C4          4.5639    1.1480    2.8337 C.3       1 <0>        -0.1848
      7 H3          4.0506    0.2351    3.1359 H         1 <0>         0.1638
      8 S1          3.8152    1.8540    1.3013 S.3       1 <0>         0.5912
      9 C5          2.1627    1.1086    1.2367 C.3       1 <0>        -0.2941
     10 C6          1.4227    1.6154   -0.0028 C.3       1 <0>         0.1229
     11 H4          1.4079    2.7053    0.0031 H         1 <0>         0.1507
     12 C7         -0.0127    1.0858    0.0080 C.3       1 <0>         0.1091
     13 H5          0.0021   -0.0041    0.0020 H         1 <0>         0.1053
     14 C8         -0.7527    1.5927   -1.2315 C.3       1 <0>         0.0552
     15 O1         -0.6718    3.0184   -1.2848 O.3       1 <0>        -0.5663
     16 O2         -0.6816    1.5467    1.1837 O.3       1 <0>        -0.7694
     17 S2         -1.6734    0.5482    1.7633 S.o2      1 <0>         2.7628
     18 O3         -2.3891    1.2319    2.7828 O.2       1 <0>        -1.0457
     19 O4         -2.3220   -0.0675    0.6590 O.2       1 <0>        -1.0798
     20 O5          2.0915    1.1546   -1.1786 O.3       1 <0>        -0.5460
     21 C9          4.5676    2.1751    3.9677 C.3       1 <0>         0.0955
     22 O6          5.2567    1.6353    5.0972 O.3       1 <0>        -0.5487
     23 O7          6.4405   -0.3681    2.9703 O.3       1 <0>        -0.5333
     24 O8          7.0614    1.6636    0.3676 O.3       1 <0>        -0.5491
     25 H6          4.3250   -0.0915   -0.1119 H         1 <0>         0.1475
     26 H7          4.9451    1.4290   -0.8399 H         1 <0>         0.1757
     27 H8          1.6044    1.3845    2.1313 H         1 <0>         0.1770
     28 H9          2.2552    0.0237    1.1863 H         1 <0>         0.1438
     29 H10        -0.2958    1.1691   -2.1259 H         1 <0>         0.0698
     30 H11        -1.7985    1.2898   -1.1795 H         1 <0>         0.0849
     31 H12        -1.1204    3.4096   -2.0469 H         1 <0>         0.3847
     32 H13         2.1422    0.1915   -1.2503 H         1 <0>         0.3839
     33 H14         5.0713    3.0825    3.6344 H         1 <0>         0.0739
     34 H15         3.5409    2.4113    4.2473 H         1 <0>         0.0788
     35 H16         5.2980    2.2337    5.8556 H         1 <0>         0.4001
     36 H17         7.3371   -0.6326    2.7226 H         1 <0>         0.3965
     37 H18         7.2021    1.6358   -0.5887 H         1 <0>         0.3993
     38 O9         -0.8644   -0.5400    2.4546 O.3       1 <0>        -1.1023
@<TRIPOS>BOND
     1    1    8 1
     2    1    2 1
     3    1   25 1
     4    1   26 1
     5    2    3 1
     6    2    4 1
     7    2   24 1
     8    4    5 1
     9    4    6 1
    10    4   23 1
    11    6    7 1
    12    6    8 1
    13    6   21 1
    14    8    9 1
    15    9   10 1
    16    9   27 1
    17    9   28 1
    18   10   11 1
    19   10   12 1
    20   10   20 1
    21   12   13 1
    22   12   14 1
    23   12   16 1
    24   14   15 1
    25   14   29 1
    26   14   30 1
    27   15   31 1
    28   16   17 1
    29   17   18 2
    30   17   19 2
    31   17   38 1
    32   20   32 1
    33   21   22 1
    34   21   33 1
    35   21   34 1
    36   22   35 1
    37   23   36 1
    38   24   37 1
@<TRIPOS>MOLECULE
ZINC04097426
   32    32     0     0     0
SMALL
USER_CHARGES

@<TRIPOS>ATOM
      1 C1          0.0582    1.4326   -0.0932 C.3       1 <0>        -0.0174
      2 C2          1.4600    2.0177   -0.2786 C.3       1 <0>         0.0589
      3 H1          2.0720    1.7790    0.5912 H         1 <0>         0.0866
      4 C3          2.0972    1.4141   -1.5335 C.3       1 <0>         0.0245
      5 H2          1.5136    1.6954   -2.4100 H         1 <0>         0.0903
      6 C4          2.1180   -0.1114   -1.4002 C.3       1 <0>         0.1132
      7 H3          2.7437   -0.3942   -0.5536 H         1 <0>         0.0954
      8 C5          0.6919   -0.6176   -1.1732 C.3       1 <0>         0.0332
      9 H4          0.0672   -0.3344   -2.0203 H         1 <0>         0.1567
     10 N1          0.1481   -0.0250    0.0547 N.4       1 <0>        -0.3697
     11 C6         -1.1906   -0.5733    0.3100 C.3       1 <0>        -0.0097
     12 C7         -1.6812   -0.1033    1.6809 C.3       1 <0>         0.0488
     13 O1         -1.9530    1.2988    1.6346 O.3       1 <0>        -0.5731
     14 C8          0.7077   -2.1416   -1.0388 C.3       1 <0>         0.0563
     15 O2          1.5849   -2.5169    0.0250 O.3       1 <0>        -0.5784
     16 O3          2.6451   -0.6878   -2.5968 O.3       1 <0>        -0.5418
     17 O4          3.4334    1.9014   -1.6725 O.3       1 <0>        -0.5488
     18 O5          1.3695    3.4364   -0.4236 O.3       1 <0>        -0.5398
     19 H5         -0.3984    1.8604    0.7993 H         1 <0>         0.1754
     20 H6         -0.5530    1.6721   -0.9634 H         1 <0>         0.1362
     21 H7         -1.8785   -0.2259   -0.4608 H         1 <0>         0.1421
     22 H8         -1.1464   -1.6622    0.2936 H         1 <0>         0.1498
     23 H9         -2.5916   -0.6414    1.9450 H         1 <0>         0.1017
     24 H10        -0.9130   -0.3000    2.4287 H         1 <0>         0.0742
     25 H11        -2.2689    1.6661    2.4715 H         1 <0>         0.4078
     26 H12        -0.2994   -2.4977   -0.8221 H         1 <0>         0.0772
     27 H13         1.0571   -2.5849   -1.9713 H         1 <0>         0.1054
     28 H14         1.6442   -3.4715    0.1676 H         1 <0>         0.4107
     29 H15         3.5471   -0.4075   -2.8042 H         1 <0>         0.4109
     30 H16         3.4946    2.8628   -1.7564 H         1 <0>         0.3952
     31 H17         2.2229    3.8746   -0.5453 H         1 <0>         0.3999
     32 H18         0.7538   -0.2466    0.8307 H         1 <0>         0.4280
@<TRIPOS>BOND
     1    1   10 1
     2    1    2 1
     3    1   19 1
     4    1   20 1
     5    2    3 1
     6    2    4 1
     7    2   18 1
     8    4    5 1
     9    4    6 1
    10    4   17 1
    11    6    7 1
    12    6    8 1
    13    6   16 1
    14    8    9 1
    15    8   10 1
    16    8   14 1
    17   10   11 1
    18   10   32 1
    19   11   12 1
    20   11   21 1
    21   11   22 1
    22   12   13 1
    23   12   23 1
    24   12   24 1
    25   13   25 1
    26   14   15 1
    27   14   26 1
    28   14   27 1
    29   15   28 1
    30   16   29 1
    31   17   30 1
    32   18   31 1
@<TRIPOS>MOLECULE
ZINC03794714
   25    25     0     0     0
SMALL
USER_CHARGES

@<TRIPOS>ATOM
      1 C1         -0.0178    1.4636    0.0101 C.3       1 <0>        -0.0466
      2 C2          1.4163    1.9970   -0.0007 C.3       1 <0>         0.0566
      3 H1          1.9452    1.6372    0.8818 H         1 <0>         0.0917
      4 C3          2.1299    1.5015   -1.2619 C.3       1 <0>         0.0695
      5 H2          1.6316    1.9031   -2.1442 H         1 <0>         0.0909
      6 C4          2.0795   -0.0286   -1.2972 C.3       1 <0>         0.1094
      7 H3          2.6221   -0.4305   -0.4415 H         1 <0>         0.0913
      8 C5          0.6208   -0.4870   -1.2383 C.3       1 <0>         0.0351
      9 H4          0.0792   -0.0848   -2.0945 H         1 <0>         0.1577
     10 N1          0.0021   -0.0041    0.0020 N.4       1 <0>        -0.4918
     11 C6          0.5654   -2.0156   -1.2729 C.3       1 <0>         0.0570
     12 O1         -0.7972   -2.4415   -1.3354 O.3       1 <0>        -0.5813
     13 O2          2.6797   -0.4981   -2.5061 O.3       1 <0>        -0.5386
     14 O3          3.4911    1.9360   -1.2427 O.3       1 <0>        -0.5488
     15 O4          1.3941    3.4258    0.0058 O.3       1 <0>        -0.5365
     16 H5         -0.5288    1.8147    0.9066 H         1 <0>         0.1451
     17 H6         -0.5458    1.8242   -0.8727 H         1 <0>         0.1438
     18 H7          0.5329   -0.3366    0.7931 H         1 <0>         0.4276
     19 H8          1.1002   -2.3788   -2.1504 H         1 <0>         0.1086
     20 H9          1.0304   -2.4165   -0.3722 H         1 <0>         0.0746
     21 H10        -0.9084   -3.4018   -1.3601 H         1 <0>         0.4135
     22 H11         3.6059   -0.2409   -2.6111 H         1 <0>         0.4148
     23 H12         3.5970    2.8968   -1.2145 H         1 <0>         0.4074
     24 H13         0.9534    3.8088    0.7767 H         1 <0>         0.4013
     25 H14        -0.9428   -0.3526    0.0632 H         1 <0>         0.4478
@<TRIPOS>BOND
     1    1   10 1
     2    1    2 1
     3    1   16 1
     4    1   17 1
     5    2    3 1
     6    2    4 1
     7    2   15 1
     8    4    5 1
     9    4    6 1
    10    4   14 1
    11    6    7 1
    12    6    8 1
    13    6   13 1
    14    8    9 1
    15    8   10 1
    16    8   11 1
    17   10   18 1
    18   10   25 1
    19   11   12 1
    20   11   19 1
    21   11   20 1
    22   12   21 1
    23   13   22 1
    24   14   23 1
    25   15   24 1
@<TRIPOS>MOLECULE
ZINC03788703
   40    40     0     0     0
SMALL
USER_CHARGES

@<TRIPOS>ATOM
      1 C1         -0.0919    1.7492    0.0029 C.3       1 <0>        -0.1355
      2 C2          1.3788    2.1706    0.0206 C.3       1 <0>         0.0429
      3 H1          1.4459    3.2577   -0.0226 H         1 <0>         0.1550
      4 C3          2.0374    1.6697    1.3076 C.3       1 <0>         0.0981
      5 H2          1.5259    2.0998    2.1686 H         1 <0>         0.1093
      6 C4          1.9433    0.1438    1.3682 C.3       1 <0>         0.0321
      7 H3          2.4549   -0.2862    0.5071 H         1 <0>         0.0699
      8 C5          0.4726   -0.2775    1.3505 C.3       1 <0>         0.0497
      9 H4         -0.0389    0.1525    2.2116 H         1 <0>         0.0857
     10 C6         -0.1860    0.2233    0.0635 C.3       1 <0>         0.1388
     11 C7         -1.6567   -0.1980    0.0459 C.3       1 <0>         0.0541
     12 O1         -1.7488   -1.6135    0.2195 O.3       1 <0>        -0.5485
     13 O2          0.4846   -0.3405   -1.0654 O.3       1 <0>        -0.5774
     14 O3          0.3847   -1.7027    1.4071 O.3       1 <0>        -0.5272
     15 O4          2.5584   -0.3240    2.5702 O.3       1 <0>        -0.5499
     16 O5          3.4111    2.0633    1.3241 O.3       1 <0>        -0.5596
     17 N1          2.0682    1.5910   -1.1399 N.4       1 <0>        -0.4912
     18 C8          1.4490    2.0880   -2.3758 C.3       1 <0>         0.0377
     19 C9          1.6824    3.5956   -2.4927 C.3       1 <0>         0.0531
     20 O6          3.0839    3.8537   -2.5992 O.3       1 <0>        -0.5479
     21 C10         2.0740    1.3803   -3.5798 C.3       1 <0>         0.0594
     22 O7          3.4542    1.7372   -3.6784 O.3       1 <0>        -0.5522
     23 H5         -0.6034    2.1793    0.8640 H         1 <0>         0.1360
     24 H6         -0.5611    2.1060   -0.9139 H         1 <0>         0.1168
     25 H7         -2.1879    0.3027    0.8554 H         1 <0>         0.0621
     26 H8         -2.1031    0.0807   -0.9087 H         1 <0>         0.0632
     27 H9         -2.6547   -1.9517    0.2186 H         1 <0>         0.3898
     28 H10         0.4650   -1.3069   -1.0922 H         1 <0>         0.4203
     29 H11         0.7831   -2.0902    2.1985 H         1 <0>         0.3835
     30 H12         2.5357   -1.2849    2.6754 H         1 <0>         0.3957
     31 H13         3.9107    1.7160    2.0756 H         1 <0>         0.4134
     32 H14         3.0413    1.8573   -1.1206 H         1 <0>         0.4406
     33 H15         0.3780    1.8869   -2.3519 H         1 <0>         0.1560
     34 H16         1.1748    3.9741   -3.3800 H         1 <0>         0.0879
     35 H17         1.2873    4.0941   -1.6076 H         1 <0>         0.0637
     36 H18         3.3062    4.7916   -2.6768 H         1 <0>         0.3971
     37 H19         1.9859    0.3013   -3.4529 H         1 <0>         0.0696
     38 H20         1.5546    1.6828   -4.4890 H         1 <0>         0.0874
     39 H21         3.9152    1.3240   -4.4213 H         1 <0>         0.3964
     40 H22         1.9940    0.5853   -1.1074 H         1 <0>         0.4246
@<TRIPOS>BOND
     1    1   10 1
     2    1    2 1
     3    1   23 1
     4    1   24 1
     5    2    3 1
     6    2    4 1
     7    2   17 1
     8    4    5 1
     9    4    6 1
    10    4   16 1
    11    6    7 1
    12    6    8 1
    13    6   15 1
    14    8    9 1
    15    8   10 1
    16    8   14 1
    17   10   11 1
    18   10   13 1
    19   11   12 1
    20   11   25 1
    21   11   26 1
    22   12   27 1
    23   13   28 1
    24   14   29 1
    25   15   30 1
    26   16   31 1
    27   17   18 1
    28   17   32 1
    29   17   40 1
    30   18   19 1
    31   18   21 1
    32   18   33 1
    33   19   20 1
    34   19   34 1
    35   19   35 1
    36   20   36 1
    37   21   22 1
    38   21   37 1
    39   21   38 1
    40   22   39 1
@<TRIPOS>MOLECULE
ZINC05131852
   29    29     0     0     0
SMALL
USER_CHARGES
2,6-bis(hydroxymethyl)piperidine-3,4,5-triol
@<TRIPOS>ATOM
      1 C1         -0.0707   -0.4444   -2.4062 C.3       1 <0>         0.0507
      2 C2         -0.0919    1.0854   -2.4140 C.3       1 <0>         0.0469
      3 H1         -0.6593    1.4364   -3.2760 H         1 <0>         0.1570
      4 C3          1.3415    1.6149   -2.4971 C.3       1 <0>         0.0643
      5 H2          1.8155    1.2408   -3.4046 H         1 <0>         0.1052
      6 C4          2.1290    1.1362   -1.2744 C.3       1 <0>         0.0293
      7 C5          1.4231    1.6153   -0.0029 C.3       1 <0>         0.1043
      8 H3          1.9555    1.2415    0.8718 H         1 <0>         0.1094
      9 C6         -0.0127    1.0858    0.0080 C.3       1 <0>         0.0447
     10 H4          0.0021   -0.0041    0.0020 H         1 <0>         0.1533
     11 C7         -0.7284    1.5790    1.2671 C.3       1 <0>         0.0574
     12 O1         -2.0290    0.9910    1.3370 O.3       1 <0>        -0.5796
     13 O2          1.4050    3.0440    0.0233 O.3       1 <0>        -0.5491
     14 O3          3.4521    1.6744   -1.3177 O.3       1 <0>        -0.5481
     15 O4          1.3225    3.0436   -2.5230 O.3       1 <0>        -0.5450
     16 O5         -1.4105   -0.9396   -2.4461 O.3       1 <0>        -0.5704
     17 H5          0.4759   -0.8046   -3.2777 H         1 <0>         0.0974
     18 H6          0.4199   -0.7963   -1.4987 H         1 <0>         0.0716
     19 H7          2.1785    0.0473   -1.2752 H         1 <0>         0.0893
     20 H8         -0.1528    1.2935    2.1476 H         1 <0>         0.0946
     21 H9         -0.8219    2.6644    1.2304 H         1 <0>         0.0841
     22 H10        -2.5410    1.2598    2.1121 H         1 <0>         0.4114
     23 H11         2.2832    3.4486    0.0181 H         1 <0>         0.4097
     24 H12         3.9583    1.4113   -2.0985 H         1 <0>         0.4007
     25 H13         2.1995    3.4478   -2.5726 H         1 <0>         0.4070
     26 H14        -1.4734   -1.9046   -2.4436 H         1 <0>         0.4123
     27 N1         -0.7339    1.5791   -1.1808 N.4       1 <0>        -0.5003
     28 H15        -1.7051    1.2474   -1.1490 H         1 <0>         0.4466
     29 H16        -0.7227    2.6058   -1.1813 H         1 <0>         0.4456
@<TRIPOS>BOND
     1    1    2 1
     2    1   16 1
     3    1   17 1
     4    1   18 1
     5    2    3 1
     6    2    4 1
     7    2   27 1
     8    4    5 1
     9    4    6 1
    10    4   15 1
    11    6    7 1
    12    6   14 1
    13    6   19 1
    14    7    8 1
    15    7    9 1
    16    7   13 1
    17    9   10 1
    18    9   11 1
    19    9   27 1
    20   11   12 1
    21   11   20 1
    22   11   21 1
    23   12   22 1
    24   13   23 1
    25   14   24 1
    26   15   25 1
    27   16   26 1
    28   27   28 1
    29   27   29 1
