@<TRIPOS>MOLECULE
ZINC03794711
   37    37     0     0     0
SMALL
USER_CHARGES

@<TRIPOS>ATOM
      1 C1         -0.5626    1.3318    0.0235 C.3       1 <0>        -0.1592
      2 C2         -0.3431   -0.1823    0.0355 C.3       1 <0>        -0.1202
      3 C3          0.4110   -0.5984   -1.2291 C.3       1 <0>        -0.1495
      4 C4          0.6305   -2.1125   -1.2171 C.3       1 <0>        -0.0135
      5 N1          1.3545   -2.5120   -2.4312 N.4       1 <0>        -0.3726
      6 C5          0.5252   -2.2296   -3.6089 C.3       1 <0>        -0.0105
      7 C6          1.3061   -2.5684   -4.8805 C.3       1 <0>         0.0589
      8 H1          2.2125   -1.9645   -4.9227 H         1 <0>         0.0900
      9 C7          1.6810   -4.0530   -4.8624 C.3       1 <0>         0.0258
     10 H2          0.7744   -4.6581   -4.8718 H         1 <0>         0.0912
     11 C8          2.4827   -4.3515   -3.5921 C.3       1 <0>         0.1122
     12 H3          3.4136   -3.7847   -3.6076 H         1 <0>         0.0961
     13 C9          1.6582   -3.9467   -2.3683 C.3       1 <0>         0.0358
     14 H4          0.7277   -4.5142   -2.3537 H         1 <0>         0.1569
     15 C10         2.4551   -4.2433   -1.0964 C.3       1 <0>         0.0568
     16 O1          3.7102   -3.5623   -1.1509 O.3       1 <0>        -0.5781
     17 O2          2.7758   -5.7488   -3.5301 O.3       1 <0>        -0.5411
     18 O3          2.4724   -4.3601   -6.0119 O.3       1 <0>        -0.5475
     19 O4          0.4961   -2.2938   -6.0253 O.3       1 <0>        -0.5410
     20 H5          0.4020    1.8385   -0.0076 H         1 <0>         0.0598
     21 H6         -1.1462    1.6074   -0.8548 H         1 <0>         0.0596
     22 H7         -1.0998    1.6282    0.9244 H         1 <0>         0.0677
     23 H8          0.2405   -0.4579    0.9138 H         1 <0>         0.0739
     24 H9         -1.3077   -0.6890    0.0666 H         1 <0>         0.0741
     25 H10        -0.1727   -0.3228   -2.1074 H         1 <0>         0.0883
     26 H11         1.3756   -0.0917   -1.2601 H         1 <0>         0.0893
     27 H12         1.2141   -2.3881   -0.3387 H         1 <0>         0.1385
     28 H13        -0.3341   -2.6192   -1.1860 H         1 <0>         0.1342
     29 H14        -0.3811   -2.8337   -3.5678 H         1 <0>         0.1416
     30 H15         0.2565   -1.1733   -3.6187 H         1 <0>         0.1496
     31 H16         1.8933   -3.9008   -0.2274 H         1 <0>         0.0779
     32 H17         2.6274   -5.3168   -1.0176 H         1 <0>         0.1050
     33 H18         4.2694   -3.7053   -0.3751 H         1 <0>         0.4108
     34 H19         3.2946   -6.0754   -4.2779 H         1 <0>         0.4110
     35 H20         2.0271   -4.1891   -6.8531 H         1 <0>         0.3955
     36 H21         0.9288   -2.4859   -6.8685 H         1 <0>         0.4021
     37 H22         2.2153   -1.9895   -2.4955 H         1 <0>         0.4306
@<TRIPOS>BOND
     1    1    2 1
     2    1   20 1
     3    1   21 1
     4    1   22 1
     5    2    3 1
     6    2   23 1
     7    2   24 1
     8    3    4 1
     9    3   25 1
    10    3   26 1
    11    4    5 1
    12    4   27 1
    13    4   28 1
    14    5   13 1
    15    5    6 1
    16    5   37 1
    17    6    7 1
    18    6   29 1
    19    6   30 1
    20    7    8 1
    21    7    9 1
    22    7   19 1
    23    9   10 1
    24    9   11 1
    25    9   18 1
    26   11   12 1
    27   11   13 1
    28   11   17 1
    29   13   14 1
    30   13   15 1
    31   15   16 1
    32   15   31 1
    33   15   32 1
    34   16   33 1
    35   17   34 1
    36   18   35 1
    37   19   36 1
@<TRIPOS>MOLECULE
ZINC14253608
   52    52     0     0     0
SMALL
USER_CHARGES
(2R,3R,4R,5S)-2-(hydroxymethyl)-1-nonyl-piperidine-3,4,5-triol
@<TRIPOS>ATOM
      1 C1          0.7154   -2.0470   -3.5299 C.3       1 <0>        -0.1559
      2 C2          0.0108   -1.6297   -2.2375 C.3       1 <0>        -0.1262
      3 C3          0.1604   -0.1200   -2.0396 C.3       1 <0>        -0.1219
      4 C4         -0.5442    0.2973   -0.7472 C.3       1 <0>        -0.1216
      5 C5         -0.3946    1.8071   -0.5493 C.3       1 <0>        -0.1218
      6 C6         -1.0992    2.2243    0.7431 C.3       1 <0>        -0.1209
      7 C7         -0.9496    3.7341    0.9409 C.3       1 <0>        -0.1175
      8 C8         -1.6542    4.1513    2.2334 C.3       1 <0>        -0.1485
      9 C9         -1.5046    5.6611    2.4312 C.3       1 <0>        -0.0103
     10 C10        -3.6231    5.7956    3.5949 C.3       1 <0>        -0.0457
     11 C11        -4.2704    6.0877    4.9505 C.3       1 <0>         0.0575
     12 H1         -3.8342    5.4390    5.7101 H         1 <0>         0.0901
     13 C12        -4.0219    7.5516    5.3245 C.3       1 <0>         0.0687
     14 H2         -4.4921    8.2011    4.5861 H         1 <0>         0.0870
     15 C13        -2.5137    7.8145    5.3507 C.3       1 <0>         0.1111
     16 H3         -2.0492    7.1930    6.1162 H         1 <0>         0.0964
     17 C14        -1.9173    7.4724    3.9835 C.3       1 <0>         0.0415
     18 H4         -2.3723    8.1039    3.2204 H         1 <0>         0.1581
     19 C15        -0.4069    7.7145    4.0114 C.3       1 <0>         0.0557
     20 O1          0.1793    6.9463    5.0641 O.3       1 <0>        -0.5785
     21 O2         -2.2747    9.1925    5.6441 O.3       1 <0>        -0.5400
     22 O3         -4.5751    7.8153    6.6154 O.3       1 <0>        -0.5484
     23 O4         -5.6769    5.8483    4.8692 O.3       1 <0>        -0.5369
     24 H5          0.6088   -3.1226   -3.6709 H         1 <0>         0.0560
     25 H6          0.2660   -1.5237   -4.3739 H         1 <0>         0.0541
     26 H7          1.7732   -1.7920   -3.4657 H         1 <0>         0.0542
     27 H8          0.4601   -2.1530   -1.3935 H         1 <0>         0.0608
     28 H9         -1.0470   -1.8847   -2.3017 H         1 <0>         0.0607
     29 H10        -0.2889    0.4034   -2.8836 H         1 <0>         0.0615
     30 H11         1.2182    0.1350   -1.9754 H         1 <0>         0.0616
     31 H12        -0.0949   -0.2260    0.0968 H         1 <0>         0.0619
     32 H13        -1.6020    0.0423   -0.8114 H         1 <0>         0.0617
     33 H14         0.6632    2.0621   -0.4851 H         1 <0>         0.0639
     34 H15        -0.8439    2.3304   -1.3934 H         1 <0>         0.0636
     35 H16        -2.1570    1.9693    0.6789 H         1 <0>         0.0654
     36 H17        -0.6498    1.7010    1.5871 H         1 <0>         0.0663
     37 H18         0.1082    3.9891    1.0051 H         1 <0>         0.0746
     38 H19        -1.3989    4.2574    0.0969 H         1 <0>         0.0743
     39 H20        -2.7120    3.8963    2.1692 H         1 <0>         0.0857
     40 H21        -1.2048    3.6280    3.0774 H         1 <0>         0.0885
     41 H22        -0.4468    5.9161    2.4954 H         1 <0>         0.1357
     42 H23        -1.9539    6.1844    1.5872 H         1 <0>         0.1344
     43 H24        -4.0702    6.4350    2.8337 H         1 <0>         0.1423
     44 H25        -3.7860    4.7503    3.3324 H         1 <0>         0.1402
     45 H26         0.0269    7.4143    3.0575 H         1 <0>         0.0773
     46 H27        -0.2117    8.7732    4.1821 H         1 <0>         0.1048
     47 H28         1.1376    7.0510    5.1408 H         1 <0>         0.4108
     48 H29        -2.6264    9.4796    6.4979 H         1 <0>         0.4120
     49 H30        -5.5294    7.6691    6.6717 H         1 <0>         0.4050
     50 H31        -5.9081    4.9388    4.6357 H         1 <0>         0.3994
     51 N1         -2.1691    6.0447    3.6938 N.4       1 <0>        -0.3828
     52 H32        -1.7853    5.4771    4.4584 H         1 <0>         0.4345
@<TRIPOS>BOND
     1    1    2 1
     2    1   24 1
     3    1   25 1
     4    1   26 1
     5    2    3 1
     6    2   27 1
     7    2   28 1
     8    3    4 1
     9    3   29 1
    10    3   30 1
    11    4    5 1
    12    4   31 1
    13    4   32 1
    14    5    6 1
    15    5   33 1
    16    5   34 1
    17    6    7 1
    18    6   35 1
    19    6   36 1
    20    7    8 1
    21    7   37 1
    22    7   38 1
    23    8    9 1
    24    8   39 1
    25    8   40 1
    26    9   41 1
    27    9   42 1
    28    9   51 1
    29   10   11 1
    30   10   43 1
    31   10   44 1
    32   10   51 1
    33   11   12 1
    34   11   13 1
    35   11   23 1
    36   13   14 1
    37   13   15 1
    38   13   22 1
    39   15   16 1
    40   15   17 1
    41   15   21 1
    42   17   18 1
    43   17   19 1
    44   17   51 1
    45   19   20 1
    46   19   45 1
    47   19   46 1
    48   20   47 1
    49   21   48 1
    50   22   49 1
    51   23   50 1
    52   51   52 1
