@<TRIPOS>MOLECULE
ZINC03814434
   62    69     0     0     0
SMALL
USER_CHARGES

@<TRIPOS>ATOM
      1 C1         -0.1295    1.5952   -0.2973 C.3       1 <0>        -0.1687
      2 C2         -0.0862    0.0696   -0.1900 C.3       1 <0>         0.3342
      3 C3          0.5692   -0.4501   -1.4637 C.3       1 <0>         0.0405
      4 H1          1.4796    0.1159   -1.6612 H         1 <0>         0.1372
      5 C4          0.9167   -1.9328   -1.2889 C.3       1 <0>        -0.0061
      6 H2          1.3963   -2.3075   -2.1932 H         1 <0>         0.1555
      7 C5          1.8785   -2.0596   -0.1021 C.3       1 <0>        -0.1827
      8 C6          1.2061   -1.5198    1.1541 C.3       1 <0>         0.2999
      9 H3          1.9797   -1.4243    1.9161 H         1 <0>         0.1550
     10 O1          0.6555   -0.2442    0.9666 O.3       1 <0>        -0.3234
     11 N1          0.2189   -2.4746    1.6600 N.pl3     1 <0>        -0.5366
     12 C7          0.4705   -3.5508    2.4739 C.ar      1 <0>         0.1469
     13 C8          1.6649   -4.0152    3.0240 C.ar      1 <0>        -0.1522
     14 C9          1.5948   -5.1456    3.8201 C.ar      1 <0>        -0.0582
     15 C10         0.4006   -5.7997    4.0696 C.ar      1 <0>        -0.1457
     16 C11        -0.7984   -5.3597    3.5358 C.ar      1 <0>        -0.0280
     17 C12        -0.7487   -4.2198    2.7307 C.ar      1 <0>        -0.1131
     18 C13        -1.7893   -3.4830    2.0197 C.ar      1 <0>         0.0276
     19 C14        -1.1442   -2.4197    1.3841 C.ar      1 <0>         0.0376
     20 C15        -1.8806   -1.5095    0.6175 C.ar      1 <0>         0.0894
     21 N2         -1.4718   -0.3951   -0.1095 N.pl3     1 <0>        -0.5183
     22 C16        -2.5611    0.1913   -0.7090 C.ar      1 <0>         0.1618
     23 C17        -2.6521    1.3277   -1.5118 C.ar      1 <0>        -0.1305
     24 C18        -3.9109    1.6745   -1.9733 C.ar      1 <0>        -0.0737
     25 C19        -5.0393    0.9368   -1.6616 C.ar      1 <0>        -0.1358
     26 C20        -4.9745   -0.1955   -0.8662 C.ar      1 <0>        -0.0503
     27 C21        -3.7147   -0.5596   -0.3919 C.ar      1 <0>        -0.1042
     28 C22        -3.2693   -1.6660    0.4845 C.ar      1 <0>        -0.0360
     29 C23        -3.9084   -2.7313    1.1102 C.ar      1 <0>        -0.0288
     30 C24        -3.1873   -3.6421    1.8754 C.ar      1 <0>        -0.1255
     31 C25        -4.1221   -4.6480    2.4030 C.2       1 <0>         0.5632
     32 O2         -3.8062   -5.5851    3.1110 O.2       1 <0>        -0.5106
     33 N3         -5.3744   -4.3851    1.9926 N.am      1 <0>        -0.7162
     34 C26        -5.3495   -3.1771    1.1601 C.3       1 <0>         0.1358
     35 N4         -0.3067   -2.7008   -1.0216 N.4       1 <0>        -0.5252
     36 C27         0.0145   -4.1336   -0.9773 C.3       1 <0>        -0.0497
     37 O3         -0.3340   -0.2979   -2.5607 O.3       1 <0>        -0.3614
     38 C28         0.3101   -0.0933   -3.8198 C.3       1 <0>         0.0162
     39 H4          0.8261    2.0094    0.0240 H         1 <0>         0.0984
     40 H5         -0.3202    1.8814   -1.3317 H         1 <0>         0.1036
     41 H6         -0.9255    1.9818    0.3392 H         1 <0>         0.0921
     42 H7          2.1370   -3.1081    0.0458 H         1 <0>         0.1233
     43 H8          2.7835   -1.4869   -0.3048 H         1 <0>         0.1455
     44 H9          2.6036   -3.5149    2.8368 H         1 <0>         0.1365
     45 H10         2.5026   -5.5304    4.2610 H         1 <0>         0.1359
     46 H11         0.4045   -6.6780    4.6980 H         1 <0>         0.1352
     47 H12        -1.7278   -5.8736    3.7323 H         1 <0>         0.1600
     48 H13        -1.7792    1.9122   -1.7624 H         1 <0>         0.1440
     49 H14        -4.0153    2.5500   -2.5970 H         1 <0>         0.1336
     50 H15        -5.9967    1.2527   -2.0488 H         1 <0>         0.1332
     51 H16        -5.8575   -0.7687   -0.6249 H         1 <0>         0.1415
     52 H17        -6.1628   -4.9065    2.2103 H         1 <0>         0.4348
     53 H18        -5.9671   -2.3994    1.6094 H         1 <0>         0.1115
     54 H19        -5.7060   -3.4063    0.1559 H         1 <0>         0.1103
     55 H20        -0.6958   -2.4158   -0.1353 H         1 <0>         0.4186
     56 H21         0.4349   -4.4415   -1.9347 H         1 <0>         0.1256
     57 H22         0.7403   -4.3189   -0.1854 H         1 <0>         0.1191
     58 H23        -0.8932   -4.7035   -0.7789 H         1 <0>         0.1256
     59 H24         0.9168    0.8112   -3.7748 H         1 <0>         0.0633
     60 H25         0.9482   -0.9479   -4.0446 H         1 <0>         0.0514
     61 H26        -0.4433    0.0130   -4.6003 H         1 <0>         0.1100
     62 H27        -0.9785   -2.5293   -1.7546 H         1 <0>         0.4274
@<TRIPOS>BOND
     1    1    2 1
     2    1   39 1
     3    1   40 1
     4    1   41 1
     5    2   10 1
     6    2   21 1
     7    2    3 1
     8    3    4 1
     9    3    5 1
    10    3   37 1
    11    5    6 1
    12    5    7 1
    13    5   35 1
    14    7    8 1
    15    7   42 1
    16    7   43 1
    17    8    9 1
    18    8   10 1
    19    8   11 1
    20   11   19 1
    21   11   12 1
    22   12   17 ar
    23   12   13 ar
    24   13   14 ar
    25   13   44 1
    26   14   15 ar
    27   14   45 1
    28   15   16 ar
    29   15   46 1
    30   16   17 ar
    31   16   47 1
    32   17   18 1
    33   18   30 ar
    34   18   19 ar
    35   19   20 ar
    36   20   28 ar
    37   20   21 1
    38   21   22 1
    39   22   27 ar
    40   22   23 ar
    41   23   24 ar
    42   23   48 1
    43   24   25 ar
    44   24   49 1
    45   25   26 ar
    46   25   50 1
    47   26   27 ar
    48   26   51 1
    49   27   28 1
    50   28   29 ar
    51   29   34 1
    52   29   30 ar
    53   30   31 1
    54   31   32 2
    55   31   33 am
    56   33   34 1
    57   33   52 1
    58   34   53 1
    59   34   54 1
    60   35   36 1
    61   35   55 1
    62   35   62 1
    63   36   56 1
    64   36   57 1
    65   36   58 1
    66   37   38 1
    67   38   59 1
    68   38   60 1
    69   38   61 1
@<TRIPOS>MOLECULE
ZINC03872984
   56    63     0     0     0
SMALL
USER_CHARGES

@<TRIPOS>ATOM
      1 C1         -1.1449    0.9207   -2.2992 C.3       1 <0>        -0.1734
      2 C2         -0.8443   -0.1869   -1.2874 C.3       1 <0>         0.3608
      3 C3          0.6608   -0.5271   -1.2917 C.3       1 <0>         0.1089
      4 C4          1.0548   -0.6349    0.1959 C.3       1 <0>        -0.1931
      5 C5         -0.2437   -0.3496    0.9788 C.3       1 <0>         0.3159
      6 H1         -0.0464    0.3283    1.8093 H         1 <0>         0.1526
      7 O1         -1.1290    0.2586    0.0385 O.3       1 <0>        -0.3365
      8 N1         -0.7907   -1.6169    1.4725 N.pl3     1 <0>        -0.5139
      9 C6         -0.6316   -2.1589    2.7227 C.ar      1 <0>         0.1521
     10 C7          0.1280   -1.7303    3.8106 C.ar      1 <0>        -0.1535
     11 C8          0.0716   -2.4964    4.9622 C.ar      1 <0>        -0.0728
     12 C9         -0.6995   -3.6426    5.0489 C.ar      1 <0>        -0.1588
     13 C10        -1.4586   -4.0939    3.9832 C.ar      1 <0>        -0.0351
     14 C11        -1.4138   -3.3367    2.8110 C.ar      1 <0>        -0.1065
     15 C12        -2.0522   -3.5178    1.5109 C.ar      1 <0>         0.0000
     16 C13        -1.6151   -2.4505    0.7283 C.ar      1 <0>         0.1116
     17 C14        -1.9686   -2.3749   -0.6239 C.ar      1 <0>         0.1598
     18 N2         -1.6213   -1.3899   -1.6007 N.pl3     1 <0>        -0.5050
     19 C15        -2.1482   -1.7391   -2.8210 C.ar      1 <0>         0.1774
     20 C16        -2.0102   -1.1429   -4.0736 C.ar      1 <0>        -0.1496
     21 C17        -2.6914   -1.7253   -5.1291 C.ar      1 <0>        -0.0801
     22 C18        -3.4791   -2.8511   -4.9669 C.ar      1 <0>        -0.1542
     23 C19        -3.6271   -3.4663   -3.7348 C.ar      1 <0>        -0.0533
     24 C20        -2.9440   -2.8977   -2.6603 C.ar      1 <0>        -0.0998
     25 C21        -2.7951   -3.3523   -1.1935 C.ar      1 <0>        -0.0500
     26 C22        -3.2927   -4.3756   -0.3931 C.ar      1 <0>        -0.0443
     27 C23        -2.9346   -4.4703    0.9497 C.ar      1 <0>        -0.1321
     28 C24        -3.6117   -5.6413    1.5281 C.2       1 <0>         0.5681
     29 O2         -3.5170   -5.9945    2.6881 O.2       1 <0>        -0.5237
     30 N3         -4.3501   -6.2651    0.5950 N.am      1 <0>        -0.7231
     31 C25        -4.2144   -5.5378   -0.6718 C.3       1 <0>         0.1445
     32 C26         1.4435    0.5727   -1.9615 C.2       1 <0>         0.4474
     33 O3          1.9444    1.4488   -1.2970 O.2       1 <0>        -0.4796
     34 O4          1.5843    0.5792   -3.2964 O.3       1 <0>        -0.3367
     35 C27         2.3389    1.6518   -3.8640 C.3       1 <0>         0.0263
     36 O5          0.8858   -1.7724   -1.9557 O.3       1 <0>        -0.5063
     37 H2         -0.8247    1.8803   -1.8932 H         1 <0>         0.0927
     38 H3         -0.6079    0.7211   -3.2265 H         1 <0>         0.1054
     39 H4         -2.2161    0.9498   -2.4986 H         1 <0>         0.0969
     40 H5          1.4184   -1.6379    0.4192 H         1 <0>         0.1158
     41 H6          1.8148    0.1070    0.4406 H         1 <0>         0.1253
     42 H7          0.7351   -0.8387    3.7568 H         1 <0>         0.1302
     43 H8          0.6489   -2.1895    5.8218 H         1 <0>         0.1266
     44 H9         -0.7088   -4.2005    5.9737 H         1 <0>         0.1257
     45 H10        -2.0581   -4.9894    4.0552 H         1 <0>         0.1522
     46 H11        -1.3985   -0.2640   -4.2147 H         1 <0>         0.1366
     47 H12        -2.6051   -1.2859   -6.1119 H         1 <0>         0.1259
     48 H13        -3.9928   -3.2611   -5.8239 H         1 <0>         0.1251
     49 H14        -4.2422   -4.3455   -3.6122 H         1 <0>         0.1356
     50 H15        -4.8835   -7.0630    0.7354 H         1 <0>         0.4273
     51 H16        -5.1877   -5.1737   -1.0009 H         1 <0>         0.1006
     52 H17        -3.7798   -6.1869   -1.4321 H         1 <0>         0.1012
     53 H18         2.3752    1.5370   -4.9473 H         1 <0>         0.1105
     54 H19         1.8648    2.6011   -3.6149 H         1 <0>         0.0661
     55 H20         3.3522    1.6353   -3.4627 H         1 <0>         0.0654
     56 H21         1.8150   -2.0380   -1.9892 H         1 <0>         0.3910
@<TRIPOS>BOND
     1    1    2 1
     2    1   37 1
     3    1   38 1
     4    1   39 1
     5    2    7 1
     6    2   18 1
     7    2    3 1
     8    3    4 1
     9    3   32 1
    10    3   36 1
    11    4    5 1
    12    4   40 1
    13    4   41 1
    14    5    6 1
    15    5    7 1
    16    5    8 1
    17    8   16 1
    18    8    9 1
    19    9   14 ar
    20    9   10 ar
    21   10   11 ar
    22   10   42 1
    23   11   12 ar
    24   11   43 1
    25   12   13 ar
    26   12   44 1
    27   13   14 ar
    28   13   45 1
    29   14   15 1
    30   15   27 ar
    31   15   16 ar
    32   16   17 ar
    33   17   25 ar
    34   17   18 1
    35   18   19 1
    36   19   24 ar
    37   19   20 ar
    38   20   21 ar
    39   20   46 1
    40   21   22 ar
    41   21   47 1
    42   22   23 ar
    43   22   48 1
    44   23   24 ar
    45   23   49 1
    46   24   25 1
    47   25   26 ar
    48   26   31 1
    49   26   27 ar
    50   27   28 1
    51   28   29 2
    52   28   30 am
    53   30   31 1
    54   30   50 1
    55   31   51 1
    56   31   52 1
    57   32   33 2
    58   32   34 1
    59   34   35 1
    60   35   53 1
    61   35   54 1
    62   35   55 1
    63   36   56 1
@<TRIPOS>MOLECULE
ZINC03928304
   76    83     0     0     0
SMALL
USER_CHARGES
methyl bis(ethylsulfanylmethyl)-hydroxy-methyl-oxo-BLAHcarboxylate
@<TRIPOS>ATOM
      1 C1         -5.0414   -1.8378   -6.3801 C.3       1 <0>        -0.1369
      2 C2         -4.3963   -0.6741   -5.6247 C.3       1 <0>        -0.0930
      3 S1         -2.9865   -1.2861   -4.6611 S.3       1 <0>        -0.2572
      4 C3         -2.3420    0.1956   -3.8368 C.3       1 <0>        -0.0383
      5 C4         -1.1513   -0.1774   -2.9917 C.ar      1 <0>        -0.1147
      6 C5          0.1125   -0.1391   -3.5552 C.ar      1 <0>        -0.0542
      7 C6          1.2498   -0.4727   -2.8402 C.ar      1 <0>        -0.1508
      8 C7          1.0766   -0.8561   -1.5108 C.ar      1 <0>         0.1578
      9 C8         -0.2165   -0.8850   -0.9331 C.ar      1 <0>        -0.1048
     10 C9         -1.3513   -0.5461   -1.6728 C.ar      1 <0>        -0.0128
     11 C10        -0.0491   -1.3024    0.4553 C.ar      1 <0>         0.0035
     12 C11        -0.9193   -1.5272    1.5482 C.ar      1 <0>        -0.1354
     13 C12        -0.3944   -1.8667    2.7926 C.ar      1 <0>        -0.0400
     14 C13         0.9791   -1.9915    2.9781 C.ar      1 <0>        -0.0568
     15 C14         1.8555   -2.2634    4.1184 C.ar      1 <0>        -0.0919
     16 C15         1.5816   -2.4904    5.4668 C.ar      1 <0>        -0.0334
     17 C16         2.6691   -2.6795    6.3033 C.ar      1 <0>        -0.1042
     18 C17         3.9682   -2.6451    5.8287 C.ar      1 <0>        -0.0638
     19 C18         4.2601   -2.4276    4.4926 C.ar      1 <0>        -0.1389
     20 C19         3.1825   -2.2419    3.6279 C.ar      1 <0>         0.1671
     21 N1          3.1501   -2.0254    2.2714 N.pl3     1 <0>        -0.4836
     22 C20         1.8374   -1.8253    1.8836 C.ar      1 <0>         0.1626
     23 C21         1.3210   -1.4878    0.6269 C.ar      1 <0>         0.1066
     24 N2          1.9892   -1.2571   -0.5680 N.pl3     1 <0>        -0.5115
     25 C22         3.4228   -1.4906   -0.7660 C.3       1 <0>         0.3151
     26 H1          3.6437   -1.7077   -1.8111 H         1 <0>         0.1551
     27 C23         4.2033   -0.2450   -0.2976 C.3       1 <0>        -0.1929
     28 C24         4.7695   -0.6207    1.0874 C.3       1 <0>         0.1103
     29 C25         4.2849   -2.0629    1.3438 C.3       1 <0>         0.3580
     30 O1          3.8711   -2.5575    0.0704 O.3       1 <0>        -0.3355
     31 C26         5.4102   -2.9293    1.9130 C.3       1 <0>        -0.1730
     32 C27         6.2756   -0.5708    1.0677 C.2       1 <0>         0.4479
     33 O2          6.8693   -0.6595    0.0191 O.2       1 <0>        -0.4797
     34 O3          6.9574   -0.4279    2.2150 O.3       1 <0>        -0.3421
     35 C28         8.4058   -0.3878    2.1205 C.3       1 <0>         0.0290
     36 O4          4.2562    0.2603    2.0885 O.3       1 <0>        -0.5063
     37 C29         2.4308   -2.9301    7.7701 C.3       1 <0>        -0.0398
     38 S2          2.2717   -4.7136    8.0608 S.3       1 <0>        -0.2576
     39 C30         1.9926   -4.8436    9.8485 C.3       1 <0>        -0.0927
     40 C31         1.8391   -6.3160   10.2349 C.3       1 <0>        -0.1376
     41 C32        -1.5714   -2.0160    3.7256 C.3       1 <0>         0.1434
     42 N3         -2.7684   -1.7516    2.9197 N.am      1 <0>        -0.7235
     43 C33        -2.3849   -1.4725    1.6626 C.2       1 <0>         0.5675
     44 O5         -3.1428   -1.2111    0.7481 O.2       1 <0>        -0.5230
     45 H2         -4.3090   -2.2853   -7.0520 H         1 <0>         0.0641
     46 H3         -5.3862   -2.5870   -5.6674 H         1 <0>         0.0651
     47 H4         -5.8885   -1.4700   -6.9591 H         1 <0>         0.0706
     48 H5         -5.1287   -0.2266   -4.9528 H         1 <0>         0.0801
     49 H6         -4.0515    0.0751   -6.3373 H         1 <0>         0.0788
     50 H7         -3.1175    0.6249   -3.2025 H         1 <0>         0.0900
     51 H8         -2.0403    0.9266   -4.5870 H         1 <0>         0.0879
     52 H9          0.2146    0.1617   -4.5874 H         1 <0>         0.1286
     53 H10         2.2298   -0.4379   -3.2929 H         1 <0>         0.1332
     54 H11        -2.3389   -0.5719   -1.2365 H         1 <0>         0.1548
     55 H12         0.5689   -2.5172    5.8412 H         1 <0>         0.1373
     56 H13         4.7819   -2.7927    6.5234 H         1 <0>         0.1280
     57 H14         5.2791   -2.4033    4.1357 H         1 <0>         0.1381
     58 H15         5.0150   -0.0245   -0.9909 H         1 <0>         0.1256
     59 H16         3.5343    0.6115   -0.2146 H         1 <0>         0.1168
     60 H17         4.9824   -3.7987    2.4122 H         1 <0>         0.0985
     61 H18         6.0603   -3.2590    1.1026 H         1 <0>         0.0954
     62 H19         5.9897   -2.3474    2.6298 H         1 <0>         0.1041
     63 H20         8.8318   -0.2694    3.1168 H         1 <0>         0.1103
     64 H21         8.7669   -1.3166    1.6789 H         1 <0>         0.0689
     65 H22         8.7059    0.4528    1.4948 H         1 <0>         0.0680
     66 H23         4.5282    1.1817    1.9785 H         1 <0>         0.3917
     67 H24         3.2707   -2.5416    8.3461 H         1 <0>         0.0887
     68 H25         1.5143   -2.4282    8.0802 H         1 <0>         0.0891
     69 H26         2.8417   -4.4149   10.3809 H         1 <0>         0.0794
     70 H27         1.0853   -4.3015   10.1150 H         1 <0>         0.0799
     71 H28         0.9901   -6.7447    9.7025 H         1 <0>         0.0649
     72 H29         2.7464   -6.8581    9.9684 H         1 <0>         0.0646
     73 H30         1.6714   -6.3942   11.3091 H         1 <0>         0.0711
     74 H31        -1.6057   -3.0290    4.1265 H         1 <0>         0.1013
     75 H32        -1.4995   -1.2931    4.5382 H         1 <0>         0.1001
     76 H33        -3.6834   -1.7741    3.2407 H         1 <0>         0.4268
@<TRIPOS>BOND
     1    1    2 1
     2    1   45 1
     3    1   46 1
     4    1   47 1
     5    2    3 1
     6    2   48 1
     7    2   49 1
     8    3    4 1
     9    4    5 1
    10    4   50 1
    11    4   51 1
    12    5   10 ar
    13    5    6 ar
    14    6    7 ar
    15    6   52 1
    16    7    8 ar
    17    7   53 1
    18    8   24 1
    19    8    9 ar
    20    9   10 ar
    21    9   11 1
    22   10   54 1
    23   11   23 ar
    24   11   12 ar
    25   12   43 1
    26   12   13 ar
    27   13   14 ar
    28   13   41 1
    29   14   22 ar
    30   14   15 1
    31   15   20 ar
    32   15   16 ar
    33   16   17 ar
    34   16   55 1
    35   17   18 ar
    36   17   37 1
    37   18   19 ar
    38   18   56 1
    39   19   20 ar
    40   19   57 1
    41   20   21 1
    42   21   29 1
    43   21   22 1
    44   22   23 ar
    45   23   24 1
    46   24   25 1
    47   25   26 1
    48   25   30 1
    49   25   27 1
    50   27   28 1
    51   27   58 1
    52   27   59 1
    53   28   29 1
    54   28   32 1
    55   28   36 1
    56   29   30 1
    57   29   31 1
    58   31   60 1
    59   31   61 1
    60   31   62 1
    61   32   33 2
    62   32   34 1
    63   34   35 1
    64   35   63 1
    65   35   64 1
    66   35   65 1
    67   36   66 1
    68   37   38 1
    69   37   67 1
    70   37   68 1
    71   38   39 1
    72   39   40 1
    73   39   69 1
    74   39   70 1
    75   40   71 1
    76   40   72 1
    77   40   73 1
    78   41   42 1
    79   41   74 1
    80   41   75 1
    81   42   43 am
    82   42   76 1
    83   43   44 2
@<TRIPOS>MOLECULE
ZINC21288966
   49    52     0     0     0
SMALL
USER_CHARGES
2-(2-chlorophenyl)-5,7-dihydroxy-8-[(3S,4R)-3-hydroxy-1-methyl-4-piperidyl]chromen-4-one
@<TRIPOS>ATOM
      1 C1          6.0895   -0.0238    5.9621 C.3       1 <0>        -0.0460
      2 N1          6.1756    1.0472    4.9603 N.4       1 <0>        -0.3934
      3 C2          5.9739    0.5180    3.6055 C.3       1 <0>        -0.0028
      4 C3          6.2126    1.6289    2.5802 C.3       1 <0>        -0.1464
      5 C4          5.2418    2.7821    2.8491 C.3       1 <0>        -0.0180
      6 H1          4.2050    2.4431    2.7074 H         1 <0>         0.1039
      7 C5          5.4391    3.2830    4.2825 C.3       1 <0>         0.1015
      8 H2          4.7709    4.1271    4.5084 H         1 <0>         0.0941
      9 C6          5.2218    2.1236    5.2574 C.3       1 <0>        -0.0361
     10 O1          6.7669    3.7898    4.4323 O.3       1 <0>        -0.5639
     11 C7          5.5132    3.9050    1.8814 C.ar      1 <0>        -0.2158
     12 C8          6.8017    4.3949    1.7322 C.ar      1 <0>         0.2946
     13 C9          7.0678    5.4304    0.8434 C.ar      1 <0>        -0.3049
     14 C10         6.0448    5.9841    0.0956 C.ar      1 <0>         0.3111
     15 C11         4.7411    5.4942    0.2412 C.ar      1 <0>        -0.3649
     16 C12         4.4748    4.4470    1.1407 C.ar      1 <0>         0.2362
     17 O2          3.2147    3.9814    1.2730 O.3       1 <0>        -0.2171
     18 C13         2.1871    4.4838    0.5705 C.2       1 <0>         0.1982
     19 C14         2.3394    5.4926   -0.3277 C.2       1 <0>        -0.2780
     20 C15         3.6225    6.0546   -0.5353 C.2       1 <0>         0.4382
     21 O3          3.7953    6.9641   -1.3304 O.2       1 <0>        -0.4786
     22 C16         0.8407    3.9147    0.7769 C.ar      1 <0>        -0.0680
     23 C17         0.6478    2.5322    0.7263 C.ar      1 <0>        -0.0708
     24 C18        -0.6124    2.0073    0.9205 C.ar      1 <0>        -0.1159
     25 C19        -1.6867    2.8467    1.1599 C.ar      1 <0>        -0.0780
     26 C20        -1.5036    4.2164    1.2169 C.ar      1 <0>        -0.1066
     27 C21        -0.2472    4.7566    1.0243 C.ar      1 <0>        -0.0057
     28 Cl1        -0.0199    6.4765    1.0889 Cl        1 <0>        -0.0424
     29 O4          6.3024    6.9947   -0.7728 O.3       1 <0>        -0.4999
     30 O5          7.8133    3.8585    2.4614 O.3       1 <0>        -0.4665
     31 H3          6.8128   -0.8151    5.7159 H         1 <0>         0.1242
     32 H4          5.0728   -0.4438    5.9634 H         1 <0>         0.1169
     33 H5          6.3184    0.3856    6.9571 H         1 <0>         0.1225
     34 H6          6.6809   -0.3050    3.4243 H         1 <0>         0.1308
     35 H7          4.9438    0.1448    3.5072 H         1 <0>         0.1211
     36 H8          7.2477    1.9910    2.6662 H         1 <0>         0.1216
     37 H9          6.0450    1.2349    1.5669 H         1 <0>         0.1057
     38 H10         4.1951    1.7434    5.1512 H         1 <0>         0.1298
     39 H11         5.3771    2.4772    6.2874 H         1 <0>         0.1312
     40 H12         7.0946    4.1958    5.4007 H         1 <0>         0.4106
     41 H13         8.0758    5.8030    0.7365 H         1 <0>         0.1471
     42 H14         1.4871    5.8659   -0.8759 H         1 <0>         0.1670
     43 H15         1.4839    1.8757    0.5352 H         1 <0>         0.1384
     44 H16        -0.7625    0.9385    0.8812 H         1 <0>         0.1407
     45 H17        -2.6721    2.4298    1.3071 H         1 <0>         0.1438
     46 H18        -2.3456    4.8651    1.4082 H         1 <0>         0.1476
     47 H19         5.4855    7.4321   -1.3656 H         1 <0>         0.4556
     48 H20         8.8375    4.2431    2.3473 H         1 <0>         0.4397
     49 H21         7.1882    1.4744    5.0059 H         1 <0>         0.4481
@<TRIPOS>BOND
     1    1    2 1
     2    1   31 1
     3    1   32 1
     4    1   33 1
     5    2    9 1
     6    2    3 1
     7    2   49 1
     8    3    4 1
     9    3   34 1
    10    3   35 1
    11    4    5 1
    12    4   36 1
    13    4   37 1
    14    5    6 1
    15    5    7 1
    16    5   11 1
    17    7    8 1
    18    7    9 1
    19    7   10 1
    20    9   38 1
    21    9   39 1
    22   10   40 1
    23   11   16 ar
    24   11   12 ar
    25   12   13 ar
    26   12   30 1
    27   13   14 ar
    28   13   41 1
    29   14   15 ar
    30   14   29 1
    31   15   20 1
    32   15   16 ar
    33   16   17 1
    34   17   18 1
    35   18   19 2
    36   18   22 1
    37   19   20 1
    38   19   42 1
    39   20   21 2
    40   22   27 ar
    41   22   23 ar
    42   23   24 ar
    43   23   43 1
    44   24   25 ar
    45   24   44 1
    46   25   26 ar
    47   25   45 1
    48   26   27 ar
    49   26   46 1
    50   27   28 1
    51   29   47 1
    52   30   48 1
@<TRIPOS>MOLECULE
ZINC40861910
   52    57     0     0     0
SMALL
USER_CHARGES

@<TRIPOS>ATOM
      1 C1         -1.7088    0.8904    0.0830 C.3       1 <0>         0.0258
      2 O1         -1.5282   -0.5258    0.0206 O.3       1 <0>        -0.3159
      3 C2         -0.7259   -1.0020   -0.9661 C.ar      1 <0>         0.1453
      4 C3         -0.1295   -0.1237   -1.8615 C.ar      1 <0>        -0.2174
      5 C4          0.6921   -0.6064   -2.8594 C.ar      1 <0>        -0.0155
      6 C5          0.9355   -1.9695   -2.9681 C.ar      1 <0>        -0.1062
      7 C6          0.3143   -2.8514   -2.0777 C.ar      1 <0>        -0.0241
      8 C7         -0.5074   -2.3682   -1.0838 C.ar      1 <0>        -0.1598
      9 C8          0.5461   -4.3301   -2.2229 C.3       1 <0>        -0.0810
     10 C9          0.6594   -4.7064   -3.6996 C.3       1 <0>        -0.0773
     11 C10         1.6854   -3.8509   -4.3951 C.ar      1 <0>        -0.1078
     12 C11         1.8442   -2.5281   -3.9939 C.ar      1 <0>         0.0804
     13 C12         2.8962   -1.7481   -4.5181 C.ar      1 <0>        -0.1831
     14 C13         3.6602   -2.2665   -5.5616 C.ar      1 <0>        -0.0228
     15 C14         3.4455   -3.5548   -6.0217 C.ar      1 <0>        -0.0923
     16 C15         2.4188   -4.3538   -5.4661 C.ar      1 <0>         0.1865
     17 N1          2.3439   -5.5181   -6.2095 N.pl3     1 <0>        -0.4941
     18 C16         3.3865   -5.5867   -7.1036 C.ar      1 <0>         0.1381
     19 C17         4.1072   -4.3760   -7.0383 C.ar      1 <0>        -0.0990
     20 C18         5.2203   -4.1419   -7.8436 C.ar      1 <0>        -0.0581
     21 C19         5.5905   -5.1611   -8.7065 C.ar      1 <0>        -0.1477
     22 C20         4.8887   -6.3512   -8.7703 C.ar      1 <0>        -0.0841
     23 C21         3.7754   -6.5960   -7.9814 C.ar      1 <0>        -0.1381
     24 C22         1.3047   -6.5484   -6.1238 C.3       1 <0>         0.1094
     25 C23         1.7723   -7.6681   -5.1919 C.3       1 <0>         0.0563
     26 O2          0.7140   -8.6114   -5.0122 O.3       1 <0>        -0.5674
     27 C24         4.6153   -1.1753   -5.9821 C.3       1 <0>         0.1391
     28 N2          4.4130   -0.0756   -5.0338 N.am      1 <0>        -0.7267
     29 C25         3.4435   -0.4290   -4.1696 C.2       1 <0>         0.5660
     30 O3          3.1067    0.2521   -3.2205 O.2       1 <0>        -0.5190
     31 H1         -0.7432    1.3736    0.2319 H         1 <0>         0.0578
     32 H2         -2.1511    1.2417   -0.8493 H         1 <0>         0.0568
     33 H3         -2.3700    1.1360    0.9140 H         1 <0>         0.1012
     34 H4         -0.3092    0.9380   -1.7775 H         1 <0>         0.1304
     35 H5          1.1163    0.0833   -3.5749 H         1 <0>         0.1337
     36 H6         -0.9822   -3.0516   -0.3950 H         1 <0>         0.1334
     37 H7          1.4680   -4.6047   -1.7115 H         1 <0>         0.0833
     38 H8         -0.2887   -4.8725   -1.7796 H         1 <0>         0.0871
     39 H9          0.9643   -5.7527   -3.7444 H         1 <0>         0.0799
     40 H10        -0.3079   -4.5811   -4.1793 H         1 <0>         0.0821
     41 H11         5.7679   -3.2123   -7.7976 H         1 <0>         0.1338
     42 H12         6.4505   -5.0231   -9.3450 H         1 <0>         0.1251
     43 H13         5.2196   -7.1168   -9.4563 H         1 <0>         0.1265
     44 H14         3.2382   -7.5302   -8.0485 H         1 <0>         0.1321
     45 H15         0.3880   -6.1081   -5.7314 H         1 <0>         0.1023
     46 H16         1.1155   -6.9571   -7.1164 H         1 <0>         0.0998
     47 H17         2.6352   -8.1693   -5.6305 H         1 <0>         0.0548
     48 H18         2.0498   -7.2451   -4.2264 H         1 <0>         0.0545
     49 H19         0.9404   -9.3506   -4.4313 H         1 <0>         0.3897
     50 H20         5.6424   -1.5349   -5.9313 H         1 <0>         0.0983
     51 H21         4.3821   -0.8456   -6.9949 H         1 <0>         0.1012
     52 H22         4.8950    0.7656   -5.0278 H         1 <0>         0.4265
@<TRIPOS>BOND
     1    1    2 1
     2    1   31 1
     3    1   32 1
     4    1   33 1
     5    2    3 1
     6    3    8 ar
     7    3    4 ar
     8    4    5 ar
     9    4   34 1
    10    5    6 ar
    11    5   35 1
    12    6   12 1
    13    6    7 ar
    14    7    8 ar
    15    7    9 1
    16    8   36 1
    17    9   10 1
    18    9   37 1
    19    9   38 1
    20   10   11 1
    21   10   39 1
    22   10   40 1
    23   11   16 ar
    24   11   12 ar
    25   12   13 ar
    26   13   29 1
    27   13   14 ar
    28   14   15 ar
    29   14   27 1
    30   15   19 1
    31   15   16 ar
    32   16   17 1
    33   17   18 1
    34   17   24 1
    35   18   23 ar
    36   18   19 ar
    37   19   20 ar
    38   20   21 ar
    39   20   41 1
    40   21   22 ar
    41   21   42 1
    42   22   23 ar
    43   22   43 1
    44   23   44 1
    45   24   25 1
    46   24   45 1
    47   24   46 1
    48   25   26 1
    49   25   47 1
    50   25   48 1
    51   26   49 1
    52   27   28 1
    53   27   50 1
    54   27   51 1
    55   28   29 am
    56   28   52 1
    57   29   30 2
@<TRIPOS>MOLECULE
ZINC33970297
   58    63     0     0     0
SMALL
USER_CHARGES

@<TRIPOS>ATOM
      1 C1         -1.3611    2.6551    0.1380 C.3       1 <0>        -0.1829
      2 C2         -0.9829    1.1775    0.0173 C.3       1 <0>         0.0761
      3 C3         -0.2442    0.9463   -1.3025 C.3       1 <0>        -0.1487
      4 O1         -0.1350    0.8121    1.1080 O.3       1 <0>        -0.3091
      5 C4         -0.7415    0.4946    2.2808 C.ar      1 <0>         0.1514
      6 C5         -2.1151    0.6487    2.4168 C.ar      1 <0>        -0.2198
      7 C6         -2.7330    0.3189    3.6056 C.ar      1 <0>        -0.0153
      8 C7         -1.9884   -0.1778    4.6677 C.ar      1 <0>        -0.1076
      9 C8         -0.6024   -0.3095    4.5329 C.ar      1 <0>        -0.0236
     10 C9          0.0131    0.0225    3.3465 C.ar      1 <0>        -0.1615
     11 C10         0.2072   -0.8081    5.6978 C.3       1 <0>        -0.0810
     12 C11        -0.3754   -0.2861    7.0105 C.3       1 <0>        -0.0772
     13 C12        -1.8465   -0.5944    7.1059 C.ar      1 <0>        -0.1084
     14 C13        -2.6138   -0.5864    5.9452 C.ar      1 <0>         0.0812
     15 C14        -3.9563   -1.0183    5.9779 C.ar      1 <0>        -0.1834
     16 C15        -4.5447   -1.2870    7.2121 C.ar      1 <0>        -0.0228
     17 C16        -3.8035   -1.2110    8.3793 C.ar      1 <0>        -0.0927
     18 C17        -2.4444   -0.8202    8.3425 C.ar      1 <0>         0.1867
     19 N1         -2.0084   -0.6935    9.6493 N.pl3     1 <0>        -0.4942
     20 C18        -2.9652   -1.1539   10.5233 C.ar      1 <0>         0.1381
     21 C19        -4.1199   -1.4834    9.7834 C.ar      1 <0>        -0.0989
     22 C20        -5.2713   -1.9692   10.4003 C.ar      1 <0>        -0.0582
     23 C21        -5.2236   -2.1214   11.7770 C.ar      1 <0>        -0.1478
     24 C22        -4.0916   -1.8032   12.5052 C.ar      1 <0>        -0.0842
     25 C23        -2.9416   -1.3121   11.9070 C.ar      1 <0>        -0.1380
     26 C24        -0.7342   -0.1240   10.0978 C.3       1 <0>         0.1095
     27 C25         0.2823   -1.2486   10.3045 C.3       1 <0>         0.0563
     28 O2          1.5462   -0.6879   10.6652 O.3       1 <0>        -0.5674
     29 C26        -5.9944   -1.6090    6.9392 C.3       1 <0>         0.1391
     30 N2         -6.1371   -1.6185    5.4801 N.am      1 <0>        -0.7269
     31 C27        -4.9467   -1.3117    4.9319 C.2       1 <0>         0.5660
     32 O3         -4.7362   -1.3147    3.7345 O.2       1 <0>        -0.5189
     33 H1         -0.4576    3.2643    0.1158 H         1 <0>         0.0679
     34 H2         -2.0078    2.9337   -0.6940 H         1 <0>         0.0729
     35 H3         -1.8873    2.8197    1.0783 H         1 <0>         0.0643
     36 H4         -1.8864    0.5682    0.0395 H         1 <0>         0.0752
     37 H5          0.6593    1.5556   -1.3247 H         1 <0>         0.0673
     38 H6          0.0252   -0.1064   -1.3885 H         1 <0>         0.0655
     39 H7         -0.8909    1.2250   -2.1345 H         1 <0>         0.0779
     40 H8         -2.7004    1.0276    1.5918 H         1 <0>         0.1318
     41 H9         -3.7957    0.4828    3.7125 H         1 <0>         0.1331
     42 H10         1.0831   -0.0845    3.2440 H         1 <0>         0.1326
     43 H11         0.1948   -1.8973    5.7085 H         1 <0>         0.0830
     44 H12         1.2350   -0.4591    5.6000 H         1 <0>         0.0868
     45 H13         0.1564   -0.7849    7.8216 H         1 <0>         0.0796
     46 H14        -0.2218    0.7883    7.0718 H         1 <0>         0.0819
     47 H15        -6.1571   -2.2153    9.8340 H         1 <0>         0.1337
     48 H16        -6.0926   -2.4997   12.2945 H         1 <0>         0.1251
     49 H17        -4.1026   -1.9436   13.5759 H         1 <0>         0.1265
     50 H18        -2.0690   -1.0655   12.4933 H         1 <0>         0.1321
     51 H19        -0.3608    0.5693    9.3441 H         1 <0>         0.1020
     52 H20        -0.8844    0.4073   11.0376 H         1 <0>         0.0999
     53 H21        -0.0628   -1.9086   11.1004 H         1 <0>         0.0547
     54 H22         0.3876   -1.8176    9.3808 H         1 <0>         0.0546
     55 H23         2.2404   -1.3448   10.8123 H         1 <0>         0.3897
     56 H24        -6.2461   -2.5858    7.3506 H         1 <0>         0.0982
     57 H25        -6.6350   -0.8415    7.3744 H         1 <0>         0.1011
     58 H26        -6.9507   -1.8126    4.9898 H         1 <0>         0.4265
@<TRIPOS>BOND
     1    1    2 1
     2    1   33 1
     3    1   34 1
     4    1   35 1
     5    2    3 1
     6    2    4 1
     7    2   36 1
     8    3   37 1
     9    3   38 1
    10    3   39 1
    11    4    5 1
    12    5   10 ar
    13    5    6 ar
    14    6    7 ar
    15    6   40 1
    16    7    8 ar
    17    7   41 1
    18    8   14 1
    19    8    9 ar
    20    9   10 ar
    21    9   11 1
    22   10   42 1
    23   11   12 1
    24   11   43 1
    25   11   44 1
    26   12   13 1
    27   12   45 1
    28   12   46 1
    29   13   18 ar
    30   13   14 ar
    31   14   15 ar
    32   15   31 1
    33   15   16 ar
    34   16   17 ar
    35   16   29 1
    36   17   21 1
    37   17   18 ar
    38   18   19 1
    39   19   20 1
    40   19   26 1
    41   20   25 ar
    42   20   21 ar
    43   21   22 ar
    44   22   23 ar
    45   22   47 1
    46   23   24 ar
    47   23   48 1
    48   24   25 ar
    49   24   49 1
    50   25   50 1
    51   26   27 1
    52   26   51 1
    53   26   52 1
    54   27   28 1
    55   27   53 1
    56   27   54 1
    57   28   55 1
    58   29   30 1
    59   29   56 1
    60   29   57 1
    61   30   31 am
    62   30   58 1
    63   31   32 2
@<TRIPOS>MOLECULE
ZINC11617039
   55    58     0     0     0
SMALL
USER_CHARGES

@<TRIPOS>ATOM
      1 H1          0.2120    6.2074    3.3921 H         1 <0>         0.1353
      2 C1         -0.6814    5.6062    3.3098 C.ar      1 <0>         0.0196
      3 C2         -1.0741    5.1311    2.1031 C.ar      1 <0>        -0.1998
      4 C3         -2.2288    4.3474    1.9606 C.ar      1 <0>         0.2426
      5 C4         -3.0111    4.0257    3.0293 C.ar      1 <0>        -0.1858
      6 C5         -2.6578    4.4884    4.3143 C.ar      1 <0>         0.1374
      7 C6         -1.4433    5.3059    4.4600 C.ar      1 <0>        -0.2352
      8 C7         -1.3367    5.6110    5.8041 C.2       1 <0>         0.1330
      9 N1         -2.3705    5.0424    6.4391 N.pl3     1 <0>        -0.3190
     10 N2         -3.1795    4.3626    5.5213 N.2       1 <0>        -0.3200
     11 C8         -2.6225    5.1281    7.8797 C.3       1 <0>         0.0831
     12 H2         -3.2434    5.9992    8.0888 H         1 <0>         0.0888
     13 H3         -3.1369    4.2268    8.2129 H         1 <0>         0.0992
     14 H4         -1.6744    5.2222    8.4094 H         1 <0>         0.0983
     15 C9         -0.2495    6.4365    6.4425 C.3       1 <0>        -0.1025
     16 H5         -0.5455    7.4855    6.4477 H         1 <0>         0.0927
     17 H6         -0.0907    6.0987    7.4666 H         1 <0>         0.0807
     18 H7          0.6740    6.3223    5.8749 H         1 <0>         0.0943
     19 H8         -3.8955    3.4210    2.8932 H         1 <0>         0.1075
     20 N3         -2.5862    3.8853    0.6908 N.pl3     1 <0>        -0.5925
     21 C10        -3.6562    3.0160    0.5454 C.ar      1 <0>         0.5430
     22 C11        -3.4766    1.6392    0.6984 C.ar      1 <0>        -0.2193
     23 C12        -4.5711    0.8111    0.5450 C.ar      1 <0>         0.2156
     24 N4         -5.7510    1.3422    0.2594 N.ar      1 <0>        -0.5411
     25 C13        -5.8925    2.6520    0.1199 C.ar      1 <0>         0.6254
     26 N5         -4.8692    3.4808    0.2639 N.ar      1 <0>        -0.5160
     27 N6         -7.1427    3.1682   -0.1788 N.pl3     1 <0>        -0.6061
     28 C14        -7.2911    4.5338   -0.4396 C.ar      1 <0>         0.0902
     29 C15        -6.2697    5.2382   -1.0645 C.ar      1 <0>        -0.0370
     30 C16        -6.4197    6.5867   -1.3210 C.ar      1 <0>        -0.1186
     31 C17        -7.5850    7.2362   -0.9562 C.ar      1 <0>         0.0334
     32 C18        -8.6034    6.5381   -0.3338 C.ar      1 <0>        -0.6606
     33 C19        -8.4623    5.1877   -0.0798 C.ar      1 <0>        -0.0140
     34 S1        -10.0857    7.3705    0.1294 S.o2      1 <0>         2.7024
     35 O1        -10.5091    8.1093   -1.0082 O.2       1 <0>        -0.9461
     36 O2        -10.9137    6.4040    0.7615 O.2       1 <0>        -0.9598
     37 N7         -9.6818    8.4799    1.2907 N.pl3     1 <0>        -1.2481
     38 C20        -7.7450    8.7080   -1.2374 C.3       1 <0>        -0.1567
     39 H9         -8.1929    8.8433   -2.2218 H         1 <0>         0.1090
     40 H10        -8.3897    9.1545   -0.4804 H         1 <0>         0.0769
     41 H11        -6.7680    9.1908   -1.2132 H         1 <0>         0.0924
     42 H12        -4.4665   -0.2581    0.6563 H         1 <0>         0.2280
     43 H13        -2.5039    1.2316    0.9310 H         1 <0>         0.1988
     44 C21        -1.8301    4.3196   -0.4864 C.3       1 <0>         0.0917
     45 H14        -1.0078    3.6271   -0.6659 H         1 <0>         0.0746
     46 H15        -2.4881    4.3354   -1.3553 H         1 <0>         0.0729
     47 H16        -1.4320    5.3196   -0.3140 H         1 <0>         0.0953
     48 H17        -0.4834    5.3620    1.2289 H         1 <0>         0.1346
     49 H18        -7.9152    2.5823   -0.2071 H         1 <0>         0.4391
     50 H19        -5.3592    4.7318   -1.3490 H         1 <0>         0.1427
     51 H20        -5.6260    7.1349   -1.8068 H         1 <0>         0.1482
     52 H21        -9.2599    4.6421    0.4024 H         1 <0>         0.1564
     53 H22        -8.7604    8.5635    1.5820 H         1 <0>         0.4174
     54 H23       -10.3667    9.0460    1.6797 H         1 <0>         0.4270
     55 H24        -6.5221    0.7638    0.1506 H         1 <0>         0.4504
@<TRIPOS>BOND
     1    1    2 1
     2    2    7 ar
     3    2    3 ar
     4    3    4 ar
     5    3   48 1
     6    4    5 ar
     7    4   20 1
     8    5    6 ar
     9    5   19 1
    10    6   10 2
    11    6    7 ar
    12    7    8 2
    13    8    9 1
    14    8   15 1
    15    9   10 1
    16    9   11 1
    17   11   12 1
    18   11   13 1
    19   11   14 1
    20   15   16 1
    21   15   17 1
    22   15   18 1
    23   20   21 1
    24   20   44 1
    25   21   26 ar
    26   21   22 ar
    27   22   23 ar
    28   22   43 1
    29   23   24 ar
    30   23   42 1
    31   24   25 ar
    32   24   55 1
    33   25   26 ar
    34   25   27 1
    35   27   28 1
    36   27   49 1
    37   28   33 ar
    38   28   29 ar
    39   29   30 ar
    40   29   50 1
    41   30   31 ar
    42   30   51 1
    43   31   32 ar
    44   31   38 1
    45   32   33 ar
    46   32   34 1
    47   33   52 1
    48   34   35 2
    49   34   36 2
    50   34   37 1
    51   37   53 1
    52   37   54 1
    53   38   39 1
    54   38   40 1
    55   38   41 1
    56   44   45 1
    57   44   46 1
    58   44   47 1
@<TRIPOS>MOLECULE
ZINC03820040
   62    66     0     0     0
SMALL
USER_CHARGES
N-[4-[4-(4-methylpiperazin-1-yl)-6-[(5-methyl-2H-pyrazol-3-yl)amino]pyrimidin-2-yl]sulfanylphenyl]cyclopropanecarboxamide
@<TRIPOS>ATOM
      1 C1          1.8035   -7.6837    0.5070 C.3       1 <0>        -0.0779
      2 C2          2.3685   -6.3674    0.0389 C.2       1 <0>         0.0949
      3 C3          1.9325   -5.1020    0.4407 C.2       1 <0>        -0.2905
      4 C4          2.6904   -4.1743   -0.2066 C.2       1 <0>         0.3252
      5 N1          3.5799   -4.8447   -0.9836 N.pl3     1 <0>        -0.4853
      6 H1          4.2729   -4.4328   -1.5753 H         1 <0>         0.4473
      7 N2          3.3537   -6.2159   -0.8085 N.2       1 <0>        -0.2711
      8 N3          2.5778   -2.7905   -0.0888 N.pl3     1 <0>        -0.6296
      9 C5          1.3376   -2.2123    0.1391 C.ar      1 <0>         0.4706
     10 C6          0.1755   -2.9717    0.0343 C.ar      1 <0>        -0.2983
     11 C7         -1.0466   -2.3490    0.2714 C.ar      1 <0>         0.3791
     12 N4         -1.0643   -1.0564    0.5886 N.ar      1 <0>        -0.5664
     13 C8          0.0620   -0.3646    0.6795 C.ar      1 <0>         0.3511
     14 N5          1.2425   -0.9231    0.4557 N.ar      1 <0>        -0.5606
     15 S1         -0.0125    1.3444    1.1018 S.3       1 <0>         0.1303
     16 C9          1.7078    1.7032    1.2298 C.ar      1 <0>        -0.1638
     17 C10         2.3806    1.4637    2.4214 C.ar      1 <0>        -0.0284
     18 C11         3.7293    1.7409    2.5200 C.ar      1 <0>        -0.1315
     19 C12         4.4114    2.2681    1.4313 C.ar      1 <0>         0.1902
     20 C13         3.7379    2.5125    0.2417 C.ar      1 <0>        -0.1573
     21 C14         2.3903    2.2311    0.1410 C.ar      1 <0>        -0.0288
     22 N6          5.7793    2.5539    1.5333 N.am      1 <0>        -0.6744
     23 C15         6.5739    1.7808    2.2997 C.2       1 <0>         0.5466
     24 O1          6.1269    0.7811    2.8213 O.2       1 <0>        -0.5140
     25 C16         8.0178    2.1584    2.5086 C.3       1 <0>        -0.2022
     26 C17         9.0818    1.2604    1.8742 C.3       1 <0>        -0.1494
     27 C18         8.8679    1.2402    3.3890 C.3       1 <0>        -0.1425
     28 N7         -2.2296   -3.0657    0.1789 N.pl3     1 <0>        -0.4710
     29 C19        -2.3617   -3.6957   -1.1422 C.3       1 <0>         0.0277
     30 C20        -3.6379   -4.5399   -1.1765 C.3       1 <0>         0.0040
     31 C21        -4.6643   -3.0537    0.4349 C.3       1 <0>        -0.0004
     32 C22        -3.3881   -2.2095    0.4692 C.3       1 <0>         0.0347
     33 C23        -6.0501   -4.4431   -0.9842 C.3       1 <0>        -0.0407
     34 H2          2.3381   -8.0122    1.3982 H         1 <0>         0.0831
     35 H3          0.7460   -7.5623    0.7417 H         1 <0>         0.0784
     36 H4          1.9177   -8.4287   -0.2805 H         1 <0>         0.0774
     37 H5          1.1347   -4.8964    1.1389 H         1 <0>         0.1550
     38 H6          3.3667   -2.2314   -0.1662 H         1 <0>         0.4241
     39 H7          0.2211   -4.0192   -0.2246 H         1 <0>         0.1631
     40 H8          1.8494    1.0573    3.2693 H         1 <0>         0.1319
     41 H9          4.2533    1.5509    3.4451 H         1 <0>         0.1405
     42 H10         4.2686    2.9225   -0.6049 H         1 <0>         0.1339
     43 H11         1.8666    2.4209   -0.7843 H         1 <0>         0.1341
     44 H12         6.1543    3.3081    1.0523 H         1 <0>         0.4168
     45 H13         8.2224    3.2282    2.5520 H         1 <0>         0.1306
     46 H14         8.7374    0.3965    1.3057 H         1 <0>         0.0995
     47 H15         9.9866    1.7393    1.5000 H         1 <0>         0.1100
     48 H16         9.6320    1.7059    4.0114 H         1 <0>         0.1092
     49 H17         8.3827    0.3633    3.8175 H         1 <0>         0.1093
     50 H18        -2.4158   -2.9234   -1.9095 H         1 <0>         0.0737
     51 H19        -1.4982   -4.3342   -1.3286 H         1 <0>         0.1318
     52 H20        -3.5722   -5.3290   -0.4274 H         1 <0>         0.1439
     53 H21        -3.7533   -4.9852   -2.1646 H         1 <0>         0.1412
     54 H22        -4.6102   -3.8259    1.2022 H         1 <0>         0.1407
     55 H23        -5.5278   -2.4152    0.6217 H         1 <0>         0.1407
     56 H24        -3.2729   -1.7645    1.4575 H         1 <0>         0.1357
     57 H25        -3.4537   -1.4201   -0.2796 H         1 <0>         0.0793
     58 H26        -6.8948   -3.7714   -0.8313 H         1 <0>         0.1238
     59 H27        -6.1225   -4.8989   -1.9717 H         1 <0>         0.1230
     60 H28        -6.0632   -5.2226   -0.2224 H         1 <0>         0.1251
     61 N8         -4.7966   -3.6630   -0.9051 N.4       1 <0>        -0.4014
     62 H29        -4.8229   -2.9169   -1.6099 H         1 <0>         0.4281
@<TRIPOS>BOND
     1    1    2 1
     2    1   34 1
     3    1   35 1
     4    1   36 1
     5    2    7 2
     6    2    3 1
     7    3    4 2
     8    3   37 1
     9    4    5 1
    10    4    8 1
    11    5    6 1
    12    5    7 1
    13    8    9 1
    14    8   38 1
    15    9   14 ar
    16    9   10 ar
    17   10   11 ar
    18   10   39 1
    19   11   12 ar
    20   11   28 1
    21   12   13 ar
    22   13   14 ar
    23   13   15 1
    24   15   16 1
    25   16   21 ar
    26   16   17 ar
    27   17   18 ar
    28   17   40 1
    29   18   19 ar
    30   18   41 1
    31   19   20 ar
    32   19   22 1
    33   20   21 ar
    34   20   42 1
    35   21   43 1
    36   22   23 am
    37   22   44 1
    38   23   24 2
    39   23   25 1
    40   25   27 1
    41   25   26 1
    42   25   45 1
    43   26   27 1
    44   26   46 1
    45   26   47 1
    46   27   48 1
    47   27   49 1
    48   28   32 1
    49   28   29 1
    50   29   30 1
    51   29   50 1
    52   29   51 1
    53   30   52 1
    54   30   53 1
    55   30   61 1
    56   31   32 1
    57   31   54 1
    58   31   55 1
    59   31   61 1
    60   32   56 1
    61   32   57 1
    62   33   58 1
    63   33   59 1
    64   33   60 1
    65   33   61 1
    66   61   62 1
