@<TRIPOS>MOLECULE
ZINC03875041
   28    29     0     0     0
SMALL
USER_CHARGES

@<TRIPOS>ATOM
      1 C1         -0.0188    1.5321    0.0105 C.3       1 <0>        -0.1450
      2 C2          1.4030    2.0927   -0.0001 C.3       1 <0>        -0.1775
      3 C3          2.2119    1.4924   -1.1609 C.3       1 <0>         0.1055
      4 H1          1.7723    1.7919   -2.1124 H         1 <0>         0.0895
      5 C4          2.1574   -0.0227   -1.0201 C.3       1 <0>         0.0429
      6 H2          2.5491   -0.3363   -0.0524 H         1 <0>         0.1609
      7 C5          2.8582   -0.7742   -2.1651 C.3       1 <0>         0.1044
      8 H3          3.9230   -0.8880   -1.9619 H         1 <0>         0.1209
      9 C6          2.1374   -2.1504   -2.1360 C.3       1 <0>         0.0557
     10 H4          2.7220   -2.8724   -1.5659 H         1 <0>         0.1104
     11 C7          0.7846   -1.8786   -1.4336 C.3       1 <0>        -0.0388
     12 N1          0.7372   -0.4335   -1.1785 N.4       1 <0>        -0.3840
     13 C8          0.0021   -0.0041    0.0020 C.3       1 <0>        -0.0060
     14 O1          1.9220   -2.6264   -3.4661 O.3       1 <0>        -0.5417
     15 O2          2.6473   -0.1129   -3.4141 O.3       1 <0>        -0.5454
     16 O3          3.5673    1.9395   -1.0904 O.3       1 <0>        -0.5451
     17 H5         -0.5347    1.8791    0.9057 H         1 <0>         0.1192
     18 H6         -0.5517    1.8886   -0.8710 H         1 <0>         0.0908
     19 H7          1.3613    3.1760   -0.1134 H         1 <0>         0.0999
     20 H8          1.8924    1.8491    0.9429 H         1 <0>         0.0915
     21 H9         -0.0409   -2.1785   -2.0791 H         1 <0>         0.1421
     22 H10         0.7376   -2.4177   -0.4874 H         1 <0>         0.1373
     23 H11         0.4990   -0.3713    0.9000 H         1 <0>         0.1318
     24 H12        -1.0177   -0.3867   -0.0389 H         1 <0>         0.1356
     25 H13         1.4749   -3.4828   -3.5097 H         1 <0>         0.4012
     26 H14         3.0699   -0.5492   -4.1665 H         1 <0>         0.4114
     27 H15         3.6680    2.8998   -1.1437 H         1 <0>         0.4039
     28 H16         0.3480    0.0267   -1.9877 H         1 <0>         0.4285
@<TRIPOS>BOND
     1    1   13 1
     2    1    2 1
     3    1   17 1
     4    1   18 1
     5    2    3 1
     6    2   19 1
     7    2   20 1
     8    3    4 1
     9    3    5 1
    10    3   16 1
    11    5    6 1
    12    5   12 1
    13    5    7 1
    14    7    8 1
    15    7    9 1
    16    7   15 1
    17    9   10 1
    18    9   11 1
    19    9   14 1
    20   11   12 1
    21   11   21 1
    22   11   22 1
    23   12   13 1
    24   12   28 1
    25   13   23 1
    26   13   24 1
    27   14   25 1
    28   15   26 1
    29   16   27 1
@<TRIPOS>MOLECULE
ZINC03875042
   28    29     0     0     0
SMALL
USER_CHARGES

@<TRIPOS>ATOM
      1 C1         -0.0188    1.5319    0.0105 C.3       1 <0>        -0.1440
      2 C2          1.4024    2.0938   -0.0001 C.3       1 <0>        -0.1704
      3 C3          2.2341    1.4800    1.1377 C.3       1 <0>         0.0918
      4 H1          3.2679    1.8176    1.0645 H         1 <0>         0.1099
      5 C4          2.1720   -0.0323    0.9833 C.3       1 <0>         0.0452
      6 H2          2.5193   -0.3208   -0.0088 H         1 <0>         0.1590
      7 C5          2.9444   -0.8067    2.0557 C.3       1 <0>         0.1020
      8 H3          3.0126   -0.2229    2.9736 H         1 <0>         0.1108
      9 C6          2.0942   -2.0826    2.2855 C.3       1 <0>         0.0537
     10 H4          1.7869   -2.1506    3.3291 H         1 <0>         0.1027
     11 C7          0.8545   -1.9070    1.3680 C.3       1 <0>        -0.0410
     12 N1          0.7552   -0.4457    1.1683 N.4       1 <0>        -0.3840
     13 C8          0.0021   -0.0041    0.0020 C.3       1 <0>         0.0008
     14 O1          2.8328   -3.2466    1.9091 O.3       1 <0>        -0.5303
     15 O2          4.2489   -1.1494    1.5837 O.3       1 <0>        -0.5320
     16 O3          1.6866    1.8634    2.4007 O.3       1 <0>        -0.5736
     17 H5         -0.5350    1.8787    0.9056 H         1 <0>         0.0927
     18 H6         -0.5519    1.8883   -0.8709 H         1 <0>         0.1153
     19 H7          1.8736    1.8620   -0.9553 H         1 <0>         0.0943
     20 H8          1.3623    3.1756    0.1271 H         1 <0>         0.1010
     21 H9          1.0148   -2.3975    0.4079 H         1 <0>         0.1397
     22 H10        -0.0408   -2.2950    1.8538 H         1 <0>         0.1410
     23 H11        -1.0170   -0.3873    0.0539 H         1 <0>         0.1342
     24 H12         0.4859   -0.3617   -0.9069 H         1 <0>         0.1301
     25 H13         2.3500   -4.0754    2.0314 H         1 <0>         0.3990
     26 H14         4.7819   -1.6414    2.2232 H         1 <0>         0.4076
     27 H15         1.6693    2.8189    2.5482 H         1 <0>         0.4109
     28 H16         0.3810   -0.0221    2.0042 H         1 <0>         0.4336
@<TRIPOS>BOND
     1    1   13 1
     2    1    2 1
     3    1   17 1
     4    1   18 1
     5    2    3 1
     6    2   19 1
     7    2   20 1
     8    3    4 1
     9    3    5 1
    10    3   16 1
    11    5    6 1
    12    5   12 1
    13    5    7 1
    14    7    8 1
    15    7    9 1
    16    7   15 1
    17    9   10 1
    18    9   11 1
    19    9   14 1
    20   11   12 1
    21   11   21 1
    22   11   22 1
    23   12   13 1
    24   12   28 1
    25   13   23 1
    26   13   24 1
    27   14   25 1
    28   15   26 1
    29   16   27 1
