@<TRIPOS>MOLECULE
ZINC01492230
   25    25     0     0     0
SMALL
USER_CHARGES
2,5-bis(hydroxymethyl)pyrrolidine-3,4-diol
@<TRIPOS>ATOM
      1 C1          3.3713    2.7344   -2.8930 C.3       1 <0>         0.0599
      2 C2          2.9862    2.4745   -1.4352 C.3       1 <0>         0.0348
      3 H1          3.8765    2.2920   -0.8335 H         1 <0>         0.1601
      4 C3          2.0151    1.2713   -1.3403 C.3       1 <0>         0.0636
      5 H2          1.3135    1.2691   -2.1744 H         1 <0>         0.1100
      6 C4          1.2864    1.5618   -0.0018 C.3       1 <0>         0.0638
      7 H3          1.8767    1.2123    0.8452 H         1 <0>         0.1111
      8 C5          1.1768    3.1010    0.0075 C.3       1 <0>         0.0328
      9 H4          0.1942    3.4050   -0.3532 H         1 <0>         0.1618
     10 C6          1.3968    3.6299    1.4262 C.3       1 <0>         0.0570
     11 O1          1.1789    5.0421    1.4472 O.3       1 <0>        -0.5760
     12 O2         -0.0110    0.9628    0.0073 O.3       1 <0>        -0.5394
     13 O3          2.7334    0.0377   -1.2748 O.3       1 <0>        -0.5360
     14 O4          4.2992    3.8194   -2.9544 O.3       1 <0>        -0.5769
     15 H5          3.8305    1.8394   -3.3126 H         1 <0>         0.1021
     16 H6          2.4785    2.9871   -3.4651 H         1 <0>         0.0749
     17 H7          0.6981    3.1443    2.1074 H         1 <0>         0.1003
     18 H8          2.4184    3.4152    1.7397 H         1 <0>         0.0753
     19 H9          1.3013    5.4460    2.3173 H         1 <0>         0.4121
     20 H10         0.0021   -0.0041    0.0020 H         1 <0>         0.4063
     21 H11         2.1740   -0.7353   -1.1182 H         1 <0>         0.4060
     22 H12         4.5876    4.0401   -3.8506 H         1 <0>         0.4116
     23 N1          2.2226    3.6128   -0.8911 N.4       1 <0>        -0.5019
     24 H13         1.7894    4.1363   -1.6608 H         1 <0>         0.4403
     25 H14         2.8531    4.2320   -0.3683 H         1 <0>         0.4465
@<TRIPOS>BOND
     1    1    2 1
     2    1   14 1
     3    1   15 1
     4    1   16 1
     5    2    3 1
     6    2    4 1
     7    2   23 1
     8    4    5 1
     9    4    6 1
    10    4   13 1
    11    6    7 1
    12    6    8 1
    13    6   12 1
    14    8    9 1
    15    8   10 1
    16    8   23 1
    17   10   11 1
    18   10   17 1
    19   10   18 1
    20   11   19 1
    21   12   20 1
    22   13   21 1
    23   14   22 1
    24   23   24 1
    25   23   25 1
@<TRIPOS>MOLECULE
ZINC01492250
   21    21     0     0     0
SMALL
USER_CHARGES

@<TRIPOS>ATOM
      1 C1         -0.0181    1.4814    0.0102 C.3       1 <0>        -0.0360
      2 C2          1.4704    1.8907   -0.0018 C.3       1 <0>         0.0487
      3 H1          1.6139    2.7789   -0.6172 H         1 <0>         0.1181
      4 C3          2.2123    0.6866   -0.6178 C.3       1 <0>         0.1006
      5 H2          2.9273    0.2771    0.0957 H         1 <0>         0.1105
      6 C4          1.1096   -0.3490   -0.9261 C.3       1 <0>         0.0419
      7 H3          0.7806   -0.2572   -1.9612 H         1 <0>         0.1632
      8 N1          0.0021   -0.0041    0.0020 N.4       1 <0>        -0.5084
      9 C5          1.6169   -1.7662   -0.6523 C.3       1 <0>         0.0591
     10 O1          0.6246   -2.7131   -1.0532 O.3       1 <0>        -0.5766
     11 O2          2.8797    1.0767   -1.8196 O.3       1 <0>        -0.5400
     12 O3          1.9299    2.1310    1.3298 O.3       1 <0>        -0.5502
     13 H4         -0.5064    1.8500    0.9123 H         1 <0>         0.1450
     14 H5         -0.5235    1.8596   -0.8784 H         1 <0>         0.1478
     15 H6          0.1931   -0.3595    0.9268 H         1 <0>         0.4333
     16 H7          2.5333   -1.9394   -1.2164 H         1 <0>         0.1010
     17 H8          1.8188   -1.8804    0.4128 H         1 <0>         0.0752
     18 H9          0.8790   -3.6347   -0.9082 H         1 <0>         0.4115
     19 H10         3.5534    1.7585   -1.6919 H         1 <0>         0.4100
     20 H11         1.4670    2.8496    1.7819 H         1 <0>         0.4029
     21 H12        -0.8738   -0.3670   -0.3434 H         1 <0>         0.4424
@<TRIPOS>BOND
     1    1    8 1
     2    1    2 1
     3    1   13 1
     4    1   14 1
     5    2    3 1
     6    2    4 1
     7    2   12 1
     8    4    5 1
     9    4    6 1
    10    4   11 1
    11    6    7 1
    12    6    8 1
    13    6    9 1
    14    8   15 1
    15    8   21 1
    16    9   10 1
    17    9   16 1
    18    9   17 1
    19   10   18 1
    20   11   19 1
    21   12   20 1
