@<TRIPOS>MOLECULE
ZINC18142105
   49    52     0     0     0
SMALL
USER_CHARGES

@<TRIPOS>ATOM
      1 C1          0.0273    1.4604    0.0766 C.ar      1 <0>        -0.1065
      2 C2          0.9365    1.6187    1.1063 C.ar      1 <0>        -0.1072
      3 C3          2.1356    0.9336    1.0821 C.ar      1 <0>        -0.1003
      4 C4          2.4274    0.0851    0.0227 C.ar      1 <0>         0.1033
      5 C5          1.5125   -0.0721   -1.0094 C.ar      1 <0>        -0.1001
      6 C6          0.3152    0.6160   -0.9799 C.ar      1 <0>        -0.1076
      7 N1          3.6439   -0.6113   -0.0049 N.am      1 <0>        -0.5283
      8 C7          4.8285    0.0037   -0.1093 C.2       1 <0>         0.5231
      9 O1          4.9929    1.2020   -0.1901 O.2       1 <0>        -0.4622
     10 C8          5.9297   -1.0341   -0.1099 C.3       1 <0>        -0.1486
     11 C9          5.1681   -2.3695    0.0136 C.3       1 <0>         0.0554
     12 H1          5.3504   -2.9971   -0.8587 H         1 <0>         0.1418
     13 C10         3.7169   -1.9456    0.0767 C.2       1 <0>         0.4963
     14 O2          2.7702   -2.6955    0.1817 O.2       1 <0>        -0.4613
     15 N2          5.5538   -3.0727    1.2443 N.3       1 <0>        -0.5008
     16 C11         5.1280   -2.3237    2.4341 C.3       1 <0>         0.0217
     17 C12         5.7033   -2.9922    3.6873 C.3       1 <0>         0.1283
     18 N3          5.3209   -4.4123    3.6767 N.pl3     1 <0>        -0.6289
     19 C13         5.5918   -5.1968    2.4625 C.3       1 <0>         0.1276
     20 C14         5.0209   -4.4416    1.2575 C.3       1 <0>         0.0286
     21 C15         4.7168   -5.0005    4.7903 C.ar      1 <0>         0.2217
     22 C16         4.4773   -6.3688    4.8109 C.ar      1 <0>        -0.1673
     23 C17         3.8804   -6.9471    5.9136 C.ar      1 <0>        -0.0684
     24 C18         3.5207   -6.1657    6.9966 C.ar      1 <0>        -0.1329
     25 C19         3.7572   -4.8036    6.9792 C.ar      1 <0>        -0.1310
     26 C20         4.3595   -4.2196    5.8819 C.ar      1 <0>        -0.1538
     27 C21         3.3626   -3.9560    8.1611 C.3       1 <0>         0.5068
     28 F1          2.7810   -4.7659    9.1424 F         1 <0>        -0.1755
     29 F2          4.4984   -3.3301    8.6861 F         1 <0>        -0.1766
     30 F3          2.4422   -2.9850    7.7521 F         1 <0>        -0.1770
     31 H2         -0.9114    1.9940    0.0997 H         1 <0>         0.1314
     32 H3          0.7089    2.2789    1.9302 H         1 <0>         0.1332
     33 H4          2.8456    1.0581    1.8863 H         1 <0>         0.1247
     34 H5          1.7369   -0.7312   -1.8350 H         1 <0>         0.1252
     35 H6         -0.3969    0.4944   -1.7828 H         1 <0>         0.1331
     36 H7          6.4909   -0.9974   -1.0436 H         1 <0>         0.1330
     37 H8          6.5928   -0.8903    0.7432 H         1 <0>         0.1344
     38 H9          5.4930   -1.2987    2.3686 H         1 <0>         0.0890
     39 H10         4.0395   -2.3197    2.4912 H         1 <0>         0.0469
     40 H11         6.7898   -2.9055    3.6825 H         1 <0>         0.0800
     41 H12         5.2987   -2.5107    4.5776 H         1 <0>         0.0893
     42 H13         6.6676   -5.3221    2.3399 H         1 <0>         0.0771
     43 H14         5.1135   -6.1730    2.5429 H         1 <0>         0.0914
     44 H15         3.9339   -4.4081    1.3309 H         1 <0>         0.0604
     45 H16         5.3082   -4.9526    0.3385 H         1 <0>         0.0956
     46 H17         4.7573   -6.9795    3.9653 H         1 <0>         0.1326
     47 H18         3.6939   -8.0108    5.9303 H         1 <0>         0.1353
     48 H19         3.0536   -6.6205    7.8577 H         1 <0>         0.1356
     49 H20         4.5484   -3.1563    5.8709 H         1 <0>         0.1316
@<TRIPOS>BOND
     1    1    6 ar
     2    1    2 ar
     3    1   31 1
     4    2    3 ar
     5    2   32 1
     6    3    4 ar
     7    3   33 1
     8    4    5 ar
     9    4    7 1
    10    5    6 ar
    11    5   34 1
    12    6   35 1
    13    7   13 am
    14    7    8 am
    15    8    9 2
    16    8   10 1
    17   10   11 1
    18   10   36 1
    19   10   37 1
    20   11   12 1
    21   11   13 1
    22   11   15 1
    23   13   14 2
    24   15   20 1
    25   15   16 1
    26   16   17 1
    27   16   38 1
    28   16   39 1
    29   17   18 1
    30   17   40 1
    31   17   41 1
    32   18   19 1
    33   18   21 1
    34   19   20 1
    35   19   42 1
    36   19   43 1
    37   20   44 1
    38   20   45 1
    39   21   26 ar
    40   21   22 ar
    41   22   23 ar
    42   22   46 1
    43   23   24 ar
    44   23   47 1
    45   24   25 ar
    46   24   48 1
    47   25   26 ar
    48   25   27 1
    49   26   49 1
    50   27   28 1
    51   27   29 1
    52   27   30 1
@<TRIPOS>MOLECULE
ZINC18142105
   50    53     0     0     0
SMALL
USER_CHARGES

@<TRIPOS>ATOM
      1 C1          0.0062    1.3791    0.0678 C.ar      1 <0>        -0.0934
      2 C2          0.3613    0.5463    1.1130 C.ar      1 <0>        -0.1027
      3 C3          1.5684   -0.1245    1.0839 C.ar      1 <0>        -0.0960
      4 C4          2.4252    0.0376    0.0037 C.ar      1 <0>         0.0809
      5 C5          2.0657    0.8740   -1.0444 C.ar      1 <0>        -0.0957
      6 C6          0.8576    1.5425   -1.0095 C.ar      1 <0>        -0.1030
      7 N1          3.6512   -0.6416   -0.0285 N.am      1 <0>        -0.5097
      8 C7          4.8255   -0.0113   -0.1548 C.2       1 <0>         0.5192
      9 O1          4.9716    1.1881   -0.2538 O.2       1 <0>        -0.4175
     10 C8          5.9416   -1.0330   -0.1540 C.3       1 <0>        -0.1702
     11 C9          5.2008   -2.3774   -0.0037 C.3       1 <0>        -0.0091
     12 H1          5.5028   -2.8812    0.9145 H         1 <0>         0.1919
     13 C10         3.7444   -1.9735    0.0703 C.2       1 <0>         0.5158
     14 O2          2.8099   -2.7353    0.1963 O.2       1 <0>        -0.4230
     15 N2          5.4483   -3.2372   -1.1688 N.4       1 <0>        -0.3703
     16 C11         6.8898   -3.4884   -1.2920 C.3       1 <0>        -0.0303
     17 C12         7.1602   -4.2889   -2.5703 C.3       1 <0>         0.0990
     18 N3          6.3322   -5.5045   -2.5433 N.pl3     1 <0>        -0.6436
     19 C13         4.8956   -5.3585   -2.2621 C.3       1 <0>         0.1040
     20 C14         4.7320   -4.5076   -0.9984 C.3       1 <0>        -0.0362
     21 C15         6.8939   -6.7615   -2.7784 C.ar      1 <0>         0.1980
     22 C16         6.0774   -7.8810   -2.8800 C.ar      1 <0>        -0.1533
     23 C17         6.6359   -9.1221   -3.1130 C.ar      1 <0>        -0.0675
     24 C18         8.0066   -9.2516   -3.2447 C.ar      1 <0>        -0.1086
     25 C19         8.8221   -8.1397   -3.1438 C.ar      1 <0>        -0.1308
     26 C20         8.2695   -6.8942   -2.9169 C.ar      1 <0>        -0.1399
     27 C21        10.3152   -8.2858   -3.2870 C.3       1 <0>         0.5059
     28 F1         10.6325   -9.6291   -3.5149 F         1 <0>        -0.1706
     29 F2         10.7580   -7.5126   -4.3656 F         1 <0>        -0.1741
     30 F3         10.9410   -7.8513   -2.1137 F         1 <0>        -0.1753
     31 H2         -0.9399    1.8994    0.0908 H         1 <0>         0.1381
     32 H3         -0.3056    0.4206    1.9531 H         1 <0>         0.1394
     33 H4          1.8455   -0.7742    1.9009 H         1 <0>         0.1283
     34 H5          2.7304    1.0024   -1.8859 H         1 <0>         0.1280
     35 H6          0.5775    2.1936   -1.8244 H         1 <0>         0.1395
     36 H7          6.4916   -1.0012   -1.0945 H         1 <0>         0.1448
     37 H8          6.6121   -0.8681    0.6894 H         1 <0>         0.1654
     38 H9          7.4216   -2.5381   -1.3389 H         1 <0>         0.1478
     39 H10         7.2349   -4.0560   -0.4279 H         1 <0>         0.1444
     40 H11         6.8996   -3.6874   -3.4412 H         1 <0>         0.0945
     41 H12         8.2139   -4.5644   -2.6138 H         1 <0>         0.1320
     42 H13         4.4063   -4.8651   -3.1018 H         1 <0>         0.0923
     43 H14         4.4520   -6.3412   -2.1019 H         1 <0>         0.1322
     44 H15         5.1425   -5.0443   -0.1431 H         1 <0>         0.1419
     45 H16         3.6739   -4.3083   -0.8289 H         1 <0>         0.1562
     46 H17         5.0070   -7.7806   -2.7765 H         1 <0>         0.1344
     47 H18         6.0018   -9.9927   -3.1921 H         1 <0>         0.1433
     48 H19         8.4409  -10.2236   -3.4266 H         1 <0>         0.1441
     49 H20         8.9066   -6.0254   -2.8429 H         1 <0>         0.1344
     50 H21         5.1174   -2.7751   -2.0026 H         1 <0>         0.4249
@<TRIPOS>BOND
     1    1    6 ar
     2    1    2 ar
     3    1   31 1
     4    2    3 ar
     5    2   32 1
     6    3    4 ar
     7    3   33 1
     8    4    5 ar
     9    4    7 1
    10    5    6 ar
    11    5   34 1
    12    6   35 1
    13    7   13 am
    14    7    8 am
    15    8    9 2
    16    8   10 1
    17   10   11 1
    18   10   36 1
    19   10   37 1
    20   11   12 1
    21   11   13 1
    22   11   15 1
    23   13   14 2
    24   15   20 1
    25   15   16 1
    26   15   50 1
    27   16   17 1
    28   16   38 1
    29   16   39 1
    30   17   18 1
    31   17   40 1
    32   17   41 1
    33   18   19 1
    34   18   21 1
    35   19   20 1
    36   19   42 1
    37   19   43 1
    38   20   44 1
    39   20   45 1
    40   21   26 ar
    41   21   22 ar
    42   22   23 ar
    43   22   46 1
    44   23   24 ar
    45   23   47 1
    46   24   25 ar
    47   24   48 1
    48   25   26 ar
    49   25   27 1
    50   26   49 1
    51   27   28 1
    52   27   29 1
    53   27   30 1
@<TRIPOS>MOLECULE
ZINC18322617
   46    49     0     0     0
SMALL
USER_CHARGES

@<TRIPOS>ATOM
      1 C1          0.0273    1.4604    0.0765 C.ar      1 <0>        -0.1067
      2 C2          0.9365    1.6186    1.1063 C.ar      1 <0>        -0.1075
      3 C3          2.1356    0.9335    1.0821 C.ar      1 <0>        -0.1004
      4 C4          2.4274    0.0851    0.0227 C.ar      1 <0>         0.1036
      5 C5          1.5124   -0.0721   -1.0095 C.ar      1 <0>        -0.1001
      6 C6          0.3152    0.6160   -0.9800 C.ar      1 <0>        -0.1075
      7 N1          3.6439   -0.6113   -0.0049 N.am      1 <0>        -0.5284
      8 C7          4.8285    0.0036   -0.1093 C.2       1 <0>         0.5233
      9 O1          4.9928    1.2020   -0.1902 O.2       1 <0>        -0.4627
     10 C8          5.9297   -1.0341   -0.1099 C.3       1 <0>        -0.1484
     11 C9          5.1681   -2.3695    0.0136 C.3       1 <0>         0.0552
     12 H1          5.3504   -2.9972   -0.8587 H         1 <0>         0.1415
     13 C10         3.7169   -1.9456    0.0767 C.2       1 <0>         0.4963
     14 O2          2.7702   -2.6955    0.1817 O.2       1 <0>        -0.4612
     15 N2          5.5538   -3.0727    1.2443 N.3       1 <0>        -0.5008
     16 C11         5.1280   -2.3237    2.4341 C.3       1 <0>         0.0218
     17 C12         5.7033   -2.9922    3.6873 C.3       1 <0>         0.1299
     18 N3          5.3209   -4.4123    3.6767 N.pl3     1 <0>        -0.6302
     19 C13         5.5918   -5.1968    2.4625 C.3       1 <0>         0.1274
     20 C14         5.0209   -4.4416    1.2575 C.3       1 <0>         0.0288
     21 C15         4.7162   -5.0011    4.7915 C.ar      1 <0>         0.2120
     22 C16         4.4770   -6.3690    4.8115 C.ar      1 <0>        -0.1709
     23 C17         3.8800   -6.9485    5.9140 C.ar      1 <0>        -0.1011
     24 C18         3.5201   -6.1668    6.9987 C.ar      1 <0>         0.0362
     25 C19         3.7576   -4.8028    6.9809 C.ar      1 <0>        -0.1014
     26 C20         4.3591   -4.2198    5.8827 C.ar      1 <0>        -0.1730
     27 F1          2.9358   -6.7357    8.0758 F         1 <0>        -0.1457
     28 H2         -0.9114    1.9939    0.0996 H         1 <0>         0.1314
     29 H3          0.7089    2.2788    1.9302 H         1 <0>         0.1331
     30 H4          2.8456    1.0581    1.8863 H         1 <0>         0.1247
     31 H5          1.7369   -0.7312   -1.8351 H         1 <0>         0.1253
     32 H6         -0.3969    0.4943   -1.7828 H         1 <0>         0.1331
     33 H7          6.4909   -0.9974   -1.0436 H         1 <0>         0.1329
     34 H8          6.5928   -0.8903    0.7432 H         1 <0>         0.1344
     35 H9          5.4930   -1.2987    2.3686 H         1 <0>         0.0879
     36 H10         4.0395   -2.3197    2.4912 H         1 <0>         0.0463
     37 H11         6.7898   -2.9055    3.6825 H         1 <0>         0.0776
     38 H12         5.2987   -2.5107    4.5776 H         1 <0>         0.0901
     39 H13         6.6676   -5.3221    2.3399 H         1 <0>         0.0754
     40 H14         5.1135   -6.1730    2.5429 H         1 <0>         0.0908
     41 H15         3.9339   -4.4081    1.3309 H         1 <0>         0.0600
     42 H16         5.3082   -4.9526    0.3385 H         1 <0>         0.0947
     43 H17         4.7573   -6.9790    3.9655 H         1 <0>         0.1327
     44 H18         3.6935   -8.0122    5.9298 H         1 <0>         0.1348
     45 H19         3.4757   -4.1949    7.8279 H         1 <0>         0.1342
     46 H20         4.5483   -3.1565    5.8711 H         1 <0>         0.1310
@<TRIPOS>BOND
     1    1    6 ar
     2    1    2 ar
     3    1   28 1
     4    2    3 ar
     5    2   29 1
     6    3    4 ar
     7    3   30 1
     8    4    5 ar
     9    4    7 1
    10    5    6 ar
    11    5   31 1
    12    6   32 1
    13    7   13 am
    14    7    8 am
    15    8    9 2
    16    8   10 1
    17   10   11 1
    18   10   33 1
    19   10   34 1
    20   11   12 1
    21   11   13 1
    22   11   15 1
    23   13   14 2
    24   15   20 1
    25   15   16 1
    26   16   17 1
    27   16   35 1
    28   16   36 1
    29   17   18 1
    30   17   37 1
    31   17   38 1
    32   18   19 1
    33   18   21 1
    34   19   20 1
    35   19   39 1
    36   19   40 1
    37   20   41 1
    38   20   42 1
    39   21   26 ar
    40   21   22 ar
    41   22   23 ar
    42   22   43 1
    43   23   24 ar
    44   23   44 1
    45   24   25 ar
    46   24   27 1
    47   25   26 ar
    48   25   45 1
    49   26   46 1
@<TRIPOS>MOLECULE
ZINC18322617
   47    50     0     0     0
SMALL
USER_CHARGES

@<TRIPOS>ATOM
      1 C1         -0.0318    1.3884    0.0701 C.ar      1 <0>        -0.0934
      2 C2          0.3162    0.5532    1.1158 C.ar      1 <0>        -0.1037
      3 C3          1.5179   -0.1271    1.0876 C.ar      1 <0>        -0.0982
      4 C4          2.3765    0.0279    0.0078 C.ar      1 <0>         0.0819
      5 C5          2.0243    0.8668   -1.0408 C.ar      1 <0>        -0.0935
      6 C6          0.8214    1.5448   -1.0067 C.ar      1 <0>        -0.1015
      7 N1          3.5972   -0.6610   -0.0235 N.am      1 <0>        -0.5098
      8 C7          4.7765   -0.0400   -0.1495 C.2       1 <0>         0.5194
      9 O1          4.9321    1.1582   -0.2488 O.2       1 <0>        -0.4181
     10 C8          5.8845   -1.0705   -0.1477 C.3       1 <0>        -0.1700
     11 C9          5.1330   -2.4089    0.0027 C.3       1 <0>        -0.0082
     12 H1          5.3099   -3.0475   -0.8628 H         1 <0>         0.1923
     13 C10         3.6798   -1.9935    0.0758 C.2       1 <0>         0.5151
     14 O2          2.7393   -2.7479    0.2016 O.2       1 <0>        -0.4228
     15 N2          5.5367   -3.0924    1.2387 N.4       1 <0>        -0.3708
     16 C11         4.7987   -4.3560    1.3606 C.3       1 <0>        -0.0374
     17 C12         5.1330   -5.0141    2.7033 C.3       1 <0>         0.1032
     18 N3          6.5941   -5.1522    2.8040 N.pl3     1 <0>        -0.6442
     19 C13         7.4227   -3.9668    2.5347 C.3       1 <0>         0.1018
     20 C14         6.9803   -3.3581    1.1999 C.3       1 <0>        -0.0299
     21 C15         7.1788   -6.3755    3.1457 C.ar      1 <0>         0.1854
     22 C16         8.5479   -6.4547    3.3650 C.ar      1 <0>        -0.1556
     23 C17         9.1233   -7.6640    3.7028 C.ar      1 <0>        -0.1047
     24 C18         8.3362   -8.7969    3.8228 C.ar      1 <0>         0.0658
     25 C19         6.9710   -8.7202    3.6046 C.ar      1 <0>        -0.1044
     26 C20         6.3906   -7.5119    3.2717 C.ar      1 <0>        -0.1561
     27 F1          8.9011   -9.9788    4.1529 F         1 <0>        -0.1351
     28 H2         -0.9738    1.9162    0.0925 H         1 <0>         0.1382
     29 H3         -0.3522    0.4330    1.9556 H         1 <0>         0.1388
     30 H4          1.7894   -0.7788    1.9049 H         1 <0>         0.1249
     31 H5          2.6904    0.9896   -1.8820 H         1 <0>         0.1299
     32 H6          0.5470    2.1979   -1.8220 H         1 <0>         0.1401
     33 H7          6.4352   -1.0433   -1.0880 H         1 <0>         0.1652
     34 H8          6.5558   -0.9106    0.6960 H         1 <0>         0.1447
     35 H9          3.7281   -4.1580    1.3095 H         1 <0>         0.1558
     36 H10         5.0842   -5.0235    0.5476 H         1 <0>         0.1415
     37 H11         4.7671   -4.3898    3.5184 H         1 <0>         0.0907
     38 H12         4.6677   -5.9984    2.7547 H         1 <0>         0.1318
     39 H13         7.2879   -3.2367    3.3327 H         1 <0>         0.0915
     40 H14         8.4711   -4.2588    2.4745 H         1 <0>         0.1323
     41 H15         7.1998   -4.0559    0.3917 H         1 <0>         0.1436
     42 H16         7.5172   -2.4248    1.0303 H         1 <0>         0.1465
     43 H17         9.1622   -5.5714    3.2712 H         1 <0>         0.1339
     44 H18        10.1879   -7.7262    3.8732 H         1 <0>         0.1425
     45 H19         6.3590   -9.6051    3.6984 H         1 <0>         0.1425
     46 H20         5.3251   -7.4516    3.1060 H         1 <0>         0.1338
     47 H21         5.3254   -2.5046    2.0311 H         1 <0>         0.4243
@<TRIPOS>BOND
     1    1    6 ar
     2    1    2 ar
     3    1   28 1
     4    2    3 ar
     5    2   29 1
     6    3    4 ar
     7    3   30 1
     8    4    5 ar
     9    4    7 1
    10    5    6 ar
    11    5   31 1
    12    6   32 1
    13    7   13 am
    14    7    8 am
    15    8    9 2
    16    8   10 1
    17   10   11 1
    18   10   33 1
    19   10   34 1
    20   11   12 1
    21   11   13 1
    22   11   15 1
    23   13   14 2
    24   15   20 1
    25   15   16 1
    26   15   47 1
    27   16   17 1
    28   16   35 1
    29   16   36 1
    30   17   18 1
    31   17   37 1
    32   17   38 1
    33   18   19 1
    34   18   21 1
    35   19   20 1
    36   19   39 1
    37   19   40 1
    38   20   41 1
    39   20   42 1
    40   21   26 ar
    41   21   22 ar
    42   22   23 ar
    43   22   43 1
    44   23   24 ar
    45   23   44 1
    46   24   25 ar
    47   24   27 1
    48   25   26 ar
    49   25   45 1
    50   26   46 1
@<TRIPOS>MOLECULE
ZINC18121800
   47    50     0     0     0
SMALL
USER_CHARGES

@<TRIPOS>ATOM
      1 C1         -0.0692    1.2766    0.1168 C.ar      1 <0>        -0.1090
      2 C2          0.2855    0.4279    1.1493 C.ar      1 <0>        -0.1067
      3 C3          1.4997   -0.2297    1.1183 C.ar      1 <0>        -0.1016
      4 C4          2.3641   -0.0383    0.0490 C.ar      1 <0>         0.1039
      5 C5          2.0050    0.8140   -0.9864 C.ar      1 <0>        -0.1016
      6 C6          0.7897    1.4692   -0.9496 C.ar      1 <0>        -0.1066
      7 N1          3.5975   -0.7041    0.0150 N.am      1 <0>        -0.5265
      8 C7          4.7661   -0.0595   -0.0907 C.2       1 <0>         0.5231
      9 O1          4.9003    1.1429   -0.1675 O.2       1 <0>        -0.4624
     10 C8          5.8928   -1.0694   -0.0987 C.3       1 <0>        -0.1500
     11 C9          5.1650   -2.4238    0.0221 C.3       1 <0>         0.0556
     12 H1          5.4649   -2.9406    0.9337 H         1 <0>         0.1417
     13 C10         3.7039   -2.0364    0.0912 C.2       1 <0>         0.4945
     14 O2          2.7765   -2.8101    0.1963 O.2       1 <0>        -0.4601
     15 N2          5.4309   -3.2604   -1.1558 N.3       1 <0>        -0.4997
     16 C11         4.9535   -2.6089   -2.3828 C.3       1 <0>         0.0217
     17 C12         5.4082   -3.4225   -3.5993 C.3       1 <0>         0.1311
     18 N3          4.9667   -4.8142   -3.4220 N.pl3     1 <0>        -0.6321
     19 C13         5.2900   -5.4910   -2.1568 C.3       1 <0>         0.1274
     20 C14         4.8400   -4.5960   -0.9972 C.3       1 <0>         0.0282
     21 C15         4.2576   -5.4767   -4.4301 C.ar      1 <0>         0.2130
     22 C16         4.0762   -4.8696   -5.6658 C.ar      1 <0>        -0.1835
     23 C17         3.3765   -5.5244   -6.6603 C.ar      1 <0>        -0.0938
     24 C18         2.8552   -6.7881   -6.4253 C.ar      1 <0>         0.0427
     25 C19         3.0356   -7.3950   -5.1912 C.ar      1 <0>        -0.0934
     26 C20         3.7398   -6.7440   -4.1974 C.ar      1 <0>        -0.1823
     27 O3          2.1664   -7.4321   -7.4052 O.3       1 <0>        -0.4992
     28 H2         -1.0210    1.7865    0.1411 H         1 <0>         0.1311
     29 H3         -0.3874    0.2794    1.9809 H         1 <0>         0.1328
     30 H4          1.7765   -0.8919    1.9253 H         1 <0>         0.1256
     31 H5          2.6756    0.9651   -1.8193 H         1 <0>         0.1254
     32 H6          0.5099    2.1326   -1.7546 H         1 <0>         0.1330
     33 H7          6.4499   -1.0153   -1.0340 H         1 <0>         0.1346
     34 H8          6.5547   -0.9124    0.7530 H         1 <0>         0.1335
     35 H9          3.8649   -2.5561   -2.3668 H         1 <0>         0.0441
     36 H10         5.3660   -1.6018   -2.4440 H         1 <0>         0.0893
     37 H11         4.9619   -3.0092   -4.5037 H         1 <0>         0.0893
     38 H12         6.4950   -3.3900   -3.6760 H         1 <0>         0.0761
     39 H13         4.7656   -6.4453   -2.1076 H         1 <0>         0.0908
     40 H14         6.3655   -5.6573   -2.0949 H         1 <0>         0.0743
     41 H15         5.1702   -5.0300   -0.0534 H         1 <0>         0.0941
     42 H16         3.7530   -4.5155   -1.0004 H         1 <0>         0.0606
     43 H17         4.4817   -3.8856   -5.8488 H         1 <0>         0.1258
     44 H18         3.2350   -5.0523   -7.6213 H         1 <0>         0.1274
     45 H19         2.6290   -8.3788   -5.0089 H         1 <0>         0.1277
     46 H20         3.8843   -7.2187   -3.2381 H         1 <0>         0.1271
     47 H21         2.7185   -7.9822   -7.9777 H         1 <0>         0.3833
@<TRIPOS>BOND
     1    1    6 ar
     2    1    2 ar
     3    1   28 1
     4    2    3 ar
     5    2   29 1
     6    3    4 ar
     7    3   30 1
     8    4    5 ar
     9    4    7 1
    10    5    6 ar
    11    5   31 1
    12    6   32 1
    13    7   13 am
    14    7    8 am
    15    8    9 2
    16    8   10 1
    17   10   11 1
    18   10   33 1
    19   10   34 1
    20   11   12 1
    21   11   13 1
    22   11   15 1
    23   13   14 2
    24   15   20 1
    25   15   16 1
    26   16   17 1
    27   16   35 1
    28   16   36 1
    29   17   18 1
    30   17   37 1
    31   17   38 1
    32   18   19 1
    33   18   21 1
    34   19   20 1
    35   19   39 1
    36   19   40 1
    37   20   41 1
    38   20   42 1
    39   21   26 ar
    40   21   22 ar
    41   22   23 ar
    42   22   43 1
    43   23   24 ar
    44   23   44 1
    45   24   25 ar
    46   24   27 1
    47   25   26 ar
    48   25   45 1
    49   26   46 1
    50   27   47 1
