@<TRIPOS>MOLECULE
ZINC16052855
   42    46     0     0     0
SMALL
USER_CHARGES
2-[2-(3-quinolyl)-4-pyridyl]-1,5,6,7-tetrahydropyrrolo[3,2-c]pyridin-4-one
@<TRIPOS>ATOM
      1 C1         10.7572   -3.7819    0.0510 C.ar      1 <0>        -0.1174
      2 C2         10.0826   -4.9965   -0.0578 C.ar      1 <0>        -0.0943
      3 C3          8.7251   -5.0411   -0.1432 C.ar      1 <0>        -0.0961
      4 C4          7.9840   -3.8467   -0.1220 C.ar      1 <0>         0.1332
      5 C5          8.6723   -2.6122   -0.0112 C.ar      1 <0>        -0.1086
      6 C6         10.0749   -2.6042    0.0749 C.ar      1 <0>        -0.0904
      7 C7          7.9341   -1.4163    0.0035 C.ar      1 <0>        -0.0086
      8 C8          6.5519   -1.5034   -0.0804 C.ar      1 <0>        -0.1129
      9 C9          5.9436   -2.7641   -0.1873 C.ar      1 <0>         0.1529
     10 N1          6.6494   -3.8661   -0.2050 N.ar      1 <0>        -0.4708
     11 C10         5.7235   -0.2733   -0.0635 C.ar      1 <0>         0.1881
     12 C11         4.3369   -0.3774   -0.0487 C.ar      1 <0>        -0.1516
     13 C12         3.5718    0.7923   -0.0329 C.ar      1 <0>         0.0469
     14 C13         4.2419    2.0230   -0.0385 C.ar      1 <0>        -0.1854
     15 C14         5.6209    2.0383   -0.0474 C.ar      1 <0>         0.1223
     16 N2          6.3134    0.9162   -0.0622 N.ar      1 <0>        -0.4852
     17 C15         2.0948    0.7326   -0.0168 C.2       1 <0>         0.0138
     18 C16         1.3438   -0.4057   -0.0160 C.2       1 <0>        -0.0761
     19 C17         0.0021   -0.0041    0.0020 C.2       1 <0>        -0.2322
     20 C18        -0.0168    1.3870    0.0097 C.2       1 <0>         0.0794
     21 N3          1.2455    1.8183   -0.0001 N.pl3     1 <0>        -0.5112
     22 H1          1.5219    2.7481    0.0040 H         1 <0>         0.4196
     23 C19        -1.3188    2.1462    0.0206 C.3       1 <0>        -0.0709
     24 C20        -2.3876    1.3047   -0.6747 C.3       1 <0>         0.1238
     25 N4         -2.3915   -0.0842   -0.2366 N.am      1 <0>        -0.7361
     26 C21        -1.2539   -0.7742    0.0148 C.2       1 <0>         0.5971
     27 O1         -1.2683   -1.9693    0.2403 O.2       1 <0>        -0.5312
     28 H2         11.8351   -3.7749    0.1176 H         1 <0>         0.1302
     29 H3         10.6464   -5.9175   -0.0746 H         1 <0>         0.1323
     30 H4          8.2186   -5.9913   -0.2267 H         1 <0>         0.1378
     31 H5         10.6085   -1.6690    0.1592 H         1 <0>         0.1329
     32 H6          8.4274   -0.4588    0.0820 H         1 <0>         0.1521
     33 H7          4.8676   -2.8260   -0.2568 H         1 <0>         0.1632
     34 H8          3.8591   -1.3460   -0.0498 H         1 <0>         0.1448
     35 H9          3.6851    2.9484   -0.0315 H         1 <0>         0.1299
     36 H10         6.1419    2.9843   -0.0466 H         1 <0>         0.1625
     37 H11         1.7124   -1.4208   -0.0268 H         1 <0>         0.1545
     38 H12        -1.6218    2.3370    1.0501 H         1 <0>         0.0965
     39 H13        -1.1947    3.0919   -0.5070 H         1 <0>         0.0988
     40 H14        -2.2101    1.3333   -1.7498 H         1 <0>         0.0674
     41 H15        -3.3652    1.7406   -0.4691 H         1 <0>         0.0947
     42 H16        -3.2435   -0.5330   -0.1199 H         1 <0>         0.4042
@<TRIPOS>BOND
     1    1    6 ar
     2    1    2 ar
     3    1   28 1
     4    2    3 ar
     5    2   29 1
     6    3    4 ar
     7    3   30 1
     8    4   10 ar
     9    4    5 ar
    10    5    6 ar
    11    5    7 ar
    12    6   31 1
    13    7    8 ar
    14    7   32 1
    15    8    9 ar
    16    8   11 1
    17    9   10 ar
    18    9   33 1
    19   11   16 ar
    20   11   12 ar
    21   12   13 ar
    22   12   34 1
    23   13   14 ar
    24   13   17 1
    25   14   15 ar
    26   14   35 1
    27   15   16 ar
    28   15   36 1
    29   17   21 1
    30   17   18 2
    31   18   19 1
    32   18   37 1
    33   19   26 1
    34   19   20 2
    35   20   21 1
    36   20   23 1
    37   21   22 1
    38   23   24 1
    39   23   38 1
    40   23   39 1
    41   24   25 1
    42   24   40 1
    43   24   41 1
    44   25   26 am
    45   25   42 1
    46   26   27 2
