@<TRIPOS>MOLECULE
ZINC03814434
   62    69     0     0     0
SMALL
USER_CHARGES

@<TRIPOS>ATOM
      1 C1         -0.1295    1.5952   -0.2973 C.3       1 <0>        -0.1687
      2 C2         -0.0862    0.0696   -0.1900 C.3       1 <0>         0.3342
      3 C3          0.5692   -0.4501   -1.4637 C.3       1 <0>         0.0405
      4 H1          1.4796    0.1159   -1.6612 H         1 <0>         0.1372
      5 C4          0.9167   -1.9328   -1.2889 C.3       1 <0>        -0.0061
      6 H2          1.3963   -2.3075   -2.1932 H         1 <0>         0.1555
      7 C5          1.8785   -2.0596   -0.1021 C.3       1 <0>        -0.1827
      8 C6          1.2061   -1.5198    1.1541 C.3       1 <0>         0.2999
      9 H3          1.9797   -1.4243    1.9161 H         1 <0>         0.1550
     10 O1          0.6555   -0.2442    0.9666 O.3       1 <0>        -0.3234
     11 N1          0.2189   -2.4746    1.6600 N.pl3     1 <0>        -0.5366
     12 C7          0.4705   -3.5508    2.4739 C.ar      1 <0>         0.1469
     13 C8          1.6649   -4.0152    3.0240 C.ar      1 <0>        -0.1522
     14 C9          1.5948   -5.1456    3.8201 C.ar      1 <0>        -0.0582
     15 C10         0.4006   -5.7997    4.0696 C.ar      1 <0>        -0.1457
     16 C11        -0.7984   -5.3597    3.5358 C.ar      1 <0>        -0.0280
     17 C12        -0.7487   -4.2198    2.7307 C.ar      1 <0>        -0.1131
     18 C13        -1.7893   -3.4830    2.0197 C.ar      1 <0>         0.0276
     19 C14        -1.1442   -2.4197    1.3841 C.ar      1 <0>         0.0376
     20 C15        -1.8806   -1.5095    0.6175 C.ar      1 <0>         0.0894
     21 N2         -1.4718   -0.3951   -0.1095 N.pl3     1 <0>        -0.5183
     22 C16        -2.5611    0.1913   -0.7090 C.ar      1 <0>         0.1618
     23 C17        -2.6521    1.3277   -1.5118 C.ar      1 <0>        -0.1305
     24 C18        -3.9109    1.6745   -1.9733 C.ar      1 <0>        -0.0737
     25 C19        -5.0393    0.9368   -1.6616 C.ar      1 <0>        -0.1358
     26 C20        -4.9745   -0.1955   -0.8662 C.ar      1 <0>        -0.0503
     27 C21        -3.7147   -0.5596   -0.3919 C.ar      1 <0>        -0.1042
     28 C22        -3.2693   -1.6660    0.4845 C.ar      1 <0>        -0.0360
     29 C23        -3.9084   -2.7313    1.1102 C.ar      1 <0>        -0.0288
     30 C24        -3.1873   -3.6421    1.8754 C.ar      1 <0>        -0.1255
     31 C25        -4.1221   -4.6480    2.4030 C.2       1 <0>         0.5632
     32 O2         -3.8062   -5.5851    3.1110 O.2       1 <0>        -0.5106
     33 N3         -5.3744   -4.3851    1.9926 N.am      1 <0>        -0.7162
     34 C26        -5.3495   -3.1771    1.1601 C.3       1 <0>         0.1358
     35 N4         -0.3067   -2.7008   -1.0216 N.4       1 <0>        -0.5252
     36 C27         0.0145   -4.1336   -0.9773 C.3       1 <0>        -0.0497
     37 O3         -0.3340   -0.2979   -2.5607 O.3       1 <0>        -0.3614
     38 C28         0.3101   -0.0933   -3.8198 C.3       1 <0>         0.0162
     39 H4          0.8261    2.0094    0.0240 H         1 <0>         0.0984
     40 H5         -0.3202    1.8814   -1.3317 H         1 <0>         0.1036
     41 H6         -0.9255    1.9818    0.3392 H         1 <0>         0.0921
     42 H7          2.1370   -3.1081    0.0458 H         1 <0>         0.1233
     43 H8          2.7835   -1.4869   -0.3048 H         1 <0>         0.1455
     44 H9          2.6036   -3.5149    2.8368 H         1 <0>         0.1365
     45 H10         2.5026   -5.5304    4.2610 H         1 <0>         0.1359
     46 H11         0.4045   -6.6780    4.6980 H         1 <0>         0.1352
     47 H12        -1.7278   -5.8736    3.7323 H         1 <0>         0.1600
     48 H13        -1.7792    1.9122   -1.7624 H         1 <0>         0.1440
     49 H14        -4.0153    2.5500   -2.5970 H         1 <0>         0.1336
     50 H15        -5.9967    1.2527   -2.0488 H         1 <0>         0.1332
     51 H16        -5.8575   -0.7687   -0.6249 H         1 <0>         0.1415
     52 H17        -6.1628   -4.9065    2.2103 H         1 <0>         0.4348
     53 H18        -5.9671   -2.3994    1.6094 H         1 <0>         0.1115
     54 H19        -5.7060   -3.4063    0.1559 H         1 <0>         0.1103
     55 H20        -0.6958   -2.4158   -0.1353 H         1 <0>         0.4186
     56 H21         0.4349   -4.4415   -1.9347 H         1 <0>         0.1256
     57 H22         0.7403   -4.3189   -0.1854 H         1 <0>         0.1191
     58 H23        -0.8932   -4.7035   -0.7789 H         1 <0>         0.1256
     59 H24         0.9168    0.8112   -3.7748 H         1 <0>         0.0633
     60 H25         0.9482   -0.9479   -4.0446 H         1 <0>         0.0514
     61 H26        -0.4433    0.0130   -4.6003 H         1 <0>         0.1100
     62 H27        -0.9785   -2.5293   -1.7546 H         1 <0>         0.4274
@<TRIPOS>BOND
     1    1    2 1
     2    1   39 1
     3    1   40 1
     4    1   41 1
     5    2   10 1
     6    2   21 1
     7    2    3 1
     8    3    4 1
     9    3    5 1
    10    3   37 1
    11    5    6 1
    12    5    7 1
    13    5   35 1
    14    7    8 1
    15    7   42 1
    16    7   43 1
    17    8    9 1
    18    8   10 1
    19    8   11 1
    20   11   19 1
    21   11   12 1
    22   12   17 ar
    23   12   13 ar
    24   13   14 ar
    25   13   44 1
    26   14   15 ar
    27   14   45 1
    28   15   16 ar
    29   15   46 1
    30   16   17 ar
    31   16   47 1
    32   17   18 1
    33   18   30 ar
    34   18   19 ar
    35   19   20 ar
    36   20   28 ar
    37   20   21 1
    38   21   22 1
    39   22   27 ar
    40   22   23 ar
    41   23   24 ar
    42   23   48 1
    43   24   25 ar
    44   24   49 1
    45   25   26 ar
    46   25   50 1
    47   26   27 ar
    48   26   51 1
    49   27   28 1
    50   28   29 ar
    51   29   34 1
    52   29   30 ar
    53   30   31 1
    54   31   32 2
    55   31   33 am
    56   33   34 1
    57   33   52 1
    58   34   53 1
    59   34   54 1
    60   35   36 1
    61   35   55 1
    62   35   62 1
    63   36   56 1
    64   36   57 1
    65   36   58 1
    66   37   38 1
    67   38   59 1
    68   38   60 1
    69   38   61 1
@<TRIPOS>MOLECULE
ZINC03962029
   44    47     0     0     0
SMALL
USER_CHARGES
2-(2-aminoethyl)-5-[2-(3-quinolyl)-4-pyridyl]-pyrazole-3-carboxylic acid
@<TRIPOS>ATOM
      1 C1         -0.0126    1.0758    0.0080 C.ar      1 <0>        -0.1182
      2 C2         -1.2337    1.7471    0.0174 C.ar      1 <0>        -0.0954
      3 C3         -1.2880    3.1070    0.0315 C.ar      1 <0>        -0.0972
      4 C4         -0.0971    3.8538    0.0237 C.ar      1 <0>         0.1304
      5 C5          1.1441    3.1689    0.0081 C.ar      1 <0>        -0.1069
      6 C6          1.1621    1.7638    0.0004 C.ar      1 <0>        -0.0895
      7 C7          2.3362    3.9134    0.0003 C.ar      1 <0>        -0.0121
      8 C8          2.2394    5.2974    0.0073 C.ar      1 <0>        -0.1054
      9 C9          0.9726    5.9021    0.0227 C.ar      1 <0>         0.1511
     10 N1         -0.1261    5.1908    0.0302 N.ar      1 <0>        -0.4746
     11 C10         3.4655    6.1320   -0.0009 C.ar      1 <0>         0.1704
     12 C11         3.3584    7.5147    0.1120 C.ar      1 <0>        -0.1421
     13 C12         4.5218    8.2846    0.1030 C.ar      1 <0>         0.0535
     14 C13         5.7505    7.6276   -0.0199 C.ar      1 <0>        -0.1538
     15 C14         5.7714    6.2518   -0.1273 C.ar      1 <0>         0.1137
     16 N2          4.6544    5.5521   -0.1105 N.ar      1 <0>        -0.4808
     17 C15         4.4575    9.7626    0.2213 C.2       1 <0>         0.0606
     18 C16         5.5535   10.6444    0.2249 C.2       1 <0>        -0.1756
     19 C17         5.0055   11.9069    0.3545 C.2       1 <0>         0.0056
     20 N3          3.6505   11.7357    0.4209 N.pl3     1 <0>        -0.2782
     21 N4          3.3638   10.4868    0.3361 N.2       1 <0>        -0.2912
     22 C18         2.6715   12.8164    0.5618 C.3       1 <0>         0.1033
     23 C19         2.2463   13.3034   -0.8249 C.3       1 <0>        -0.0146
     24 C20         5.7355   13.1821    0.4100 C.2       1 <0>         0.5200
     25 O1          6.9489   13.1913    0.3389 O.co2     1 <0>        -0.5873
     26 H1          0.0021   -0.0041    0.0020 H         1 <0>         0.1300
     27 H2         -2.1522    1.1789    0.0188 H         1 <0>         0.1314
     28 H3         -2.2432    3.6108    0.0434 H         1 <0>         0.1360
     29 H4          2.1024    1.2327   -0.0110 H         1 <0>         0.1333
     30 H5          3.2984    3.4229   -0.0112 H         1 <0>         0.1529
     31 H6          0.9030    6.9798    0.0288 H         1 <0>         0.1611
     32 H7          2.3903    7.9843    0.2048 H         1 <0>         0.1411
     33 H8          6.6722    8.1904   -0.0311 H         1 <0>         0.1444
     34 H9          6.7178    5.7403   -0.2227 H         1 <0>         0.1650
     35 H10         6.5998   10.3895    0.1432 H         1 <0>         0.1635
     36 H11         1.7987   12.4480    1.1009 H         1 <0>         0.1048
     37 H12         3.1188   13.6420    1.1154 H         1 <0>         0.1482
     38 H13         3.1191   13.6718   -1.3640 H         1 <0>         0.1471
     39 H14         1.7991   12.4778   -1.3785 H         1 <0>         0.1309
     40 H15         1.6332   15.1375   -0.1188 H         1 <0>         0.4445
     41 H16         0.9679   14.7261   -1.5865 H         1 <0>         0.4409
     42 N5          1.2461   14.3746   -0.6717 N.4       1 <0>        -0.6358
     43 H17         0.4198   13.9987   -0.1918 H         1 <0>         0.4356
     44 O2          5.0590   14.3410    0.5397 O.co2     1 <0>        -0.7605
@<TRIPOS>BOND
     1    1    6 ar
     2    1    2 ar
     3    1   26 1
     4    2    3 ar
     5    2   27 1
     6    3    4 ar
     7    3   28 1
     8    4   10 ar
     9    4    5 ar
    10    5    6 ar
    11    5    7 ar
    12    6   29 1
    13    7    8 ar
    14    7   30 1
    15    8    9 ar
    16    8   11 1
    17    9   10 ar
    18    9   31 1
    19   11   16 ar
    20   11   12 ar
    21   12   13 ar
    22   12   32 1
    23   13   14 ar
    24   13   17 1
    25   14   15 ar
    26   14   33 1
    27   15   16 ar
    28   15   34 1
    29   17   21 2
    30   17   18 1
    31   18   19 2
    32   18   35 1
    33   19   20 1
    34   19   24 1
    35   20   21 1
    36   20   22 1
    37   22   23 1
    38   22   36 1
    39   22   37 1
    40   23   38 1
    41   23   39 1
    42   23   42 1
    43   24   25 2
    44   24   44 1
    45   40   42 1
    46   41   42 1
    47   42   43 1
@<TRIPOS>MOLECULE
ZINC16052718
   27    29     0     0     0
SMALL
USER_CHARGES
2-(4-pyridyl)-1,5,6,7-tetrahydropyrrolo[3,2-c]pyridin-4-one
@<TRIPOS>ATOM
      1 C1         -1.2211    1.7394    0.0173 C.ar      1 <0>        -0.1847
      2 C2         -0.0126    1.0758    0.0080 C.ar      1 <0>         0.1111
      3 N1          1.1266    1.7422    0.0007 N.ar      1 <0>        -0.4905
      4 C3          1.1665    3.0614    0.0069 C.ar      1 <0>         0.1119
      5 C4          0.0054    3.8049    0.0215 C.ar      1 <0>        -0.1618
      6 C5         -1.2265    3.1395    0.0297 C.ar      1 <0>         0.0379
      7 C6         -2.4974    3.8941    0.0449 C.2       1 <0>         0.0152
      8 C7         -2.6168    5.2527    0.0519 C.2       1 <0>        -0.0780
      9 C8         -3.9881    5.5373    0.0657 C.2       1 <0>        -0.2330
     10 C9         -4.6662    4.3225    0.0683 C.2       1 <0>         0.0775
     11 N2         -3.7609    3.3429    0.0484 N.pl3     1 <0>        -0.5119
     12 H1         -3.9600    2.3935    0.0405 H         1 <0>         0.4194
     13 C10        -6.1725    4.2736    0.0855 C.3       1 <0>        -0.0706
     14 C11        -6.6980    5.5192    0.7998 C.3       1 <0>         0.1242
     15 N3         -6.0502    6.7447    0.3531 N.am      1 <0>        -0.7362
     16 C12        -4.7270    6.8120    0.0741 C.2       1 <0>         0.5975
     17 O1         -4.1760    7.8712   -0.1574 O.2       1 <0>        -0.5324
     18 H2         -2.1495    1.1876    0.0191 H         1 <0>         0.1271
     19 H3          0.0021   -0.0041    0.0020 H         1 <0>         0.1582
     20 H4          2.1216    3.5654    0.0002 H         1 <0>         0.1618
     21 H5          0.0456    4.8841    0.0262 H         1 <0>         0.1422
     22 H6         -1.8098    5.9704    0.0479 H         1 <0>         0.1542
     23 H7         -6.5491    4.2527   -0.9371 H         1 <0>         0.0964
     24 H8         -6.5030    3.3798    0.6148 H         1 <0>         0.0985
     25 H9         -7.7696    5.6022    0.6183 H         1 <0>         0.0948
     26 H10        -6.5315    5.4063    1.8710 H         1 <0>         0.0675
     27 H11        -6.5885    7.5452    0.2514 H         1 <0>         0.4040
@<TRIPOS>BOND
     1    1    6 ar
     2    1    2 ar
     3    1   18 1
     4    2    3 ar
     5    2   19 1
     6    3    4 ar
     7    4    5 ar
     8    4   20 1
     9    5    6 ar
    10    5   21 1
    11    6    7 1
    12    7   11 1
    13    7    8 2
    14    8    9 1
    15    8   22 1
    16    9   16 1
    17    9   10 2
    18   10   11 1
    19   10   13 1
    20   11   12 1
    21   13   14 1
    22   13   23 1
    23   13   24 1
    24   14   15 1
    25   14   25 1
    26   14   26 1
    27   15   16 am
    28   15   27 1
    29   16   17 2
@<TRIPOS>MOLECULE
ZINC28645388
   27    29     0     0     0
SMALL
USER_CHARGES
2-(2-chloro-4-pyridyl)-1,5,6,7-tetrahydropyrrolo[3,2-c]pyridin-4-one
@<TRIPOS>ATOM
      1 C1          2.3495   -0.0455   -0.0201 C.ar      1 <0>        -0.1620
      2 C2          1.1302   -0.6889   -0.0124 C.ar      1 <0>         0.1346
      3 N1          0.0021   -0.0041    0.0020 N.ar      1 <0>        -0.4855
      4 C3         -0.0158    1.3166    0.0093 C.ar      1 <0>         0.1881
      5 C4          1.1591    2.0409    0.0020 C.ar      1 <0>        -0.1708
      6 C5          2.3789    1.3544   -0.0129 C.ar      1 <0>         0.0578
      7 C6          3.6627    2.0871   -0.0212 C.2       1 <0>         0.0005
      8 C7          4.9030    1.5203   -0.0365 C.2       1 <0>        -0.0745
      9 C8          5.8276    2.5724   -0.0403 C.2       1 <0>        -0.2382
     10 C9          5.1060    3.7618   -0.0252 C.2       1 <0>         0.0939
     11 N2          3.8071    3.4581   -0.0208 N.pl3     1 <0>        -0.5242
     12 H1          2.9173    4.1049   -0.0172 H         1 <0>         0.4470
     13 C10         5.8073    5.0960   -0.0217 C.3       1 <0>        -0.0721
     14 C11         7.1629    4.9385    0.6679 C.3       1 <0>         0.1286
     15 N3          7.9006    3.7698    0.2085 N.am      1 <0>        -0.7494
     16 C12         7.3008    2.5857   -0.0589 C.2       1 <0>         0.5960
     17 O1          7.9456    1.5835   -0.3018 O.2       1 <0>        -0.5370
     18 Cl1        -1.5373    2.1526    0.0210 Cl        1 <0>        -0.0269
     19 H2          3.2684   -0.6129   -0.0312 H         1 <0>         0.1502
     20 H3          1.0978   -1.7684   -0.0179 H         1 <0>         0.1724
     21 H4          1.1377    3.1207    0.0076 H         1 <0>         0.1375
     22 H5          5.1287    0.4642   -0.0440 H         1 <0>         0.1524
     23 H6          5.9534    5.4361   -1.0575 H         1 <0>         0.0965
     24 H7          5.1954    5.8305    0.5225 H         1 <0>         0.0988
     25 H8          7.7818    5.8254    0.4669 H         1 <0>         0.0943
     26 H9          7.0126    4.8345    1.7526 H         1 <0>         0.0660
     27 H10         8.9898    3.8280    0.0659 H         1 <0>         0.4261
@<TRIPOS>BOND
     1    1    6 ar
     2    1    2 ar
     3    1   19 1
     4    2    3 ar
     5    2   20 1
     6    3    4 ar
     7    4    5 ar
     8    4   18 1
     9    5    6 ar
    10    5   21 1
    11    6    7 1
    12    7   11 1
    13    7    8 2
    14    8    9 1
    15    8   22 1
    16    9   16 1
    17    9   10 2
    18   10   11 1
    19   10   13 1
    20   11   12 1
    21   13   14 1
    22   13   23 1
    23   13   24 1
    24   14   15 1
    25   14   25 1
    26   14   26 1
    27   15   16 am
    28   15   27 1
    29   16   17 2
@<TRIPOS>MOLECULE
ZINC16052855
   42    46     0     0     0
SMALL
USER_CHARGES
2-[2-(3-quinolyl)-4-pyridyl]-1,5,6,7-tetrahydropyrrolo[3,2-c]pyridin-4-one
@<TRIPOS>ATOM
      1 C1         10.7572   -3.7819    0.0510 C.ar      1 <0>        -0.1174
      2 C2         10.0826   -4.9965   -0.0578 C.ar      1 <0>        -0.0943
      3 C3          8.7251   -5.0411   -0.1432 C.ar      1 <0>        -0.0961
      4 C4          7.9840   -3.8467   -0.1220 C.ar      1 <0>         0.1332
      5 C5          8.6723   -2.6122   -0.0112 C.ar      1 <0>        -0.1086
      6 C6         10.0749   -2.6042    0.0749 C.ar      1 <0>        -0.0904
      7 C7          7.9341   -1.4163    0.0035 C.ar      1 <0>        -0.0086
      8 C8          6.5519   -1.5034   -0.0804 C.ar      1 <0>        -0.1129
      9 C9          5.9436   -2.7641   -0.1873 C.ar      1 <0>         0.1529
     10 N1          6.6494   -3.8661   -0.2050 N.ar      1 <0>        -0.4708
     11 C10         5.7235   -0.2733   -0.0635 C.ar      1 <0>         0.1881
     12 C11         4.3369   -0.3774   -0.0487 C.ar      1 <0>        -0.1516
     13 C12         3.5718    0.7923   -0.0329 C.ar      1 <0>         0.0469
     14 C13         4.2419    2.0230   -0.0385 C.ar      1 <0>        -0.1854
     15 C14         5.6209    2.0383   -0.0474 C.ar      1 <0>         0.1223
     16 N2          6.3134    0.9162   -0.0622 N.ar      1 <0>        -0.4852
     17 C15         2.0948    0.7326   -0.0168 C.2       1 <0>         0.0138
     18 C16         1.3438   -0.4057   -0.0160 C.2       1 <0>        -0.0761
     19 C17         0.0021   -0.0041    0.0020 C.2       1 <0>        -0.2322
     20 C18        -0.0168    1.3870    0.0097 C.2       1 <0>         0.0794
     21 N3          1.2455    1.8183   -0.0001 N.pl3     1 <0>        -0.5112
     22 H1          1.5219    2.7481    0.0040 H         1 <0>         0.4196
     23 C19        -1.3188    2.1462    0.0206 C.3       1 <0>        -0.0709
     24 C20        -2.3876    1.3047   -0.6747 C.3       1 <0>         0.1238
     25 N4         -2.3915   -0.0842   -0.2366 N.am      1 <0>        -0.7361
     26 C21        -1.2539   -0.7742    0.0148 C.2       1 <0>         0.5971
     27 O1         -1.2683   -1.9693    0.2403 O.2       1 <0>        -0.5312
     28 H2         11.8351   -3.7749    0.1176 H         1 <0>         0.1302
     29 H3         10.6464   -5.9175   -0.0746 H         1 <0>         0.1323
     30 H4          8.2186   -5.9913   -0.2267 H         1 <0>         0.1378
     31 H5         10.6085   -1.6690    0.1592 H         1 <0>         0.1329
     32 H6          8.4274   -0.4588    0.0820 H         1 <0>         0.1521
     33 H7          4.8676   -2.8260   -0.2568 H         1 <0>         0.1632
     34 H8          3.8591   -1.3460   -0.0498 H         1 <0>         0.1448
     35 H9          3.6851    2.9484   -0.0315 H         1 <0>         0.1299
     36 H10         6.1419    2.9843   -0.0466 H         1 <0>         0.1625
     37 H11         1.7124   -1.4208   -0.0268 H         1 <0>         0.1545
     38 H12        -1.6218    2.3370    1.0501 H         1 <0>         0.0965
     39 H13        -1.1947    3.0919   -0.5070 H         1 <0>         0.0988
     40 H14        -2.2101    1.3333   -1.7498 H         1 <0>         0.0674
     41 H15        -3.3652    1.7406   -0.4691 H         1 <0>         0.0947
     42 H16        -3.2435   -0.5330   -0.1199 H         1 <0>         0.4042
@<TRIPOS>BOND
     1    1    6 ar
     2    1    2 ar
     3    1   28 1
     4    2    3 ar
     5    2   29 1
     6    3    4 ar
     7    3   30 1
     8    4   10 ar
     9    4    5 ar
    10    5    6 ar
    11    5    7 ar
    12    6   31 1
    13    7    8 ar
    14    7   32 1
    15    8    9 ar
    16    8   11 1
    17    9   10 ar
    18    9   33 1
    19   11   16 ar
    20   11   12 ar
    21   12   13 ar
    22   12   34 1
    23   13   14 ar
    24   13   17 1
    25   14   15 ar
    26   14   35 1
    27   15   16 ar
    28   15   36 1
    29   17   21 1
    30   17   18 2
    31   18   19 1
    32   18   37 1
    33   19   26 1
    34   19   20 2
    35   20   21 1
    36   20   23 1
    37   21   22 1
    38   23   24 1
    39   23   38 1
    40   23   39 1
    41   24   25 1
    42   24   40 1
    43   24   41 1
    44   25   26 am
    45   25   42 1
    46   26   27 2
@<TRIPOS>MOLECULE
ZINC06094157
   29    31     0     0     0
SMALL
USER_CHARGES
hydroxyBLAHcarboxylic acid
@<TRIPOS>ATOM
      1 C1         -3.3991    2.4529    0.0450 C.ar      1 <0>        -0.1192
      2 C2         -2.4932    1.4070    0.0310 C.ar      1 <0>        -0.1039
      3 C3         -1.1405    1.7377    0.0163 C.ar      1 <0>         0.0973
      4 C4         -0.7246    3.0946    0.0249 C.ar      1 <0>        -0.0791
      5 C5         -1.6545    4.1390    0.0391 C.ar      1 <0>        -0.0960
      6 C6         -2.9951    3.7822    0.0489 C.ar      1 <0>         0.0823
      7 O1         -3.9397    4.7604    0.0631 O.3       1 <0>        -0.4995
      8 C7          0.7209    3.0675    0.0109 C.2       1 <0>        -0.1917
      9 C8          1.0970    1.7682    0.0011 C.2       1 <0>         0.0790
     10 N1         -0.0111    0.9658    0.0074 N.pl3     1 <0>        -0.5507
     11 H1          0.0021   -0.0041    0.0020 H         1 <0>         0.4339
     12 C9          2.5424    1.3301   -0.0123 C.3       1 <0>         0.0497
     13 H2          2.8179    1.0070   -1.0162 H         1 <0>         0.1531
     14 C10         3.0707    3.6690   -0.4087 C.3       1 <0>        -0.0016
     15 C11         1.6978    4.2163    0.0054 C.3       1 <0>        -0.0615
     16 C12         2.7367    0.1954    0.9602 C.2       1 <0>         0.4569
     17 O2          3.2029    0.4104    2.0540 O.co2     1 <0>        -0.6014
     18 H3         -4.4555    2.2284    0.0529 H         1 <0>         0.1331
     19 H4         -2.8213    0.3780    0.0280 H         1 <0>         0.1389
     20 H5         -1.3440    5.1734    0.0426 H         1 <0>         0.1375
     21 H6         -4.2208    5.0485   -0.8161 H         1 <0>         0.3882
     22 H7          3.0537    3.4076   -1.4668 H         1 <0>         0.1275
     23 H8          3.8326    4.4286   -0.2340 H         1 <0>         0.1341
     24 H9          1.3724    4.9733   -0.7081 H         1 <0>         0.1132
     25 H10         1.7596    4.6522    1.0025 H         1 <0>         0.0953
     26 N2          3.3897    2.4719    0.3965 N.4       1 <0>        -0.4947
     27 H11         4.3771    2.2259    0.2593 H         1 <0>         0.4374
     28 H12         3.2231    2.6780    1.3885 H         1 <0>         0.4386
     29 O3          2.3918   -1.0540    0.6114 O.co2     1 <0>        -0.6968
@<TRIPOS>BOND
     1    1    6 ar
     2    1    2 ar
     3    1   18 1
     4    2    3 ar
     5    2   19 1
     6    3   10 1
     7    3    4 ar
     8    4    5 ar
     9    4    8 1
    10    5    6 ar
    11    5   20 1
    12    6    7 1
    13    7   21 1
    14    8   15 1
    15    8    9 2
    16    9   10 1
    17    9   12 1
    18   10   11 1
    19   12   13 1
    20   12   16 1
    21   12   26 1
    22   14   15 1
    23   14   22 1
    24   14   23 1
    25   14   26 1
    26   15   24 1
    27   15   25 1
    28   16   17 2
    29   16   29 1
    30   26   27 1
    31   26   28 1
@<TRIPOS>MOLECULE
ZINC06094158
   29    31     0     0     0
SMALL
USER_CHARGES
hydroxyBLAHcarboxylic acid
@<TRIPOS>ATOM
      1 C1          1.1563    3.1772    0.0076 C.ar      1 <0>        -0.1165
      2 C2         -0.0370    3.8644    0.0218 C.ar      1 <0>        -0.1039
      3 C3         -1.2409    3.1695    0.0295 C.ar      1 <0>         0.0967
      4 C4         -1.2301    1.7607    0.0174 C.ar      1 <0>        -0.0747
      5 C5         -0.0126    1.0758    0.0080 C.ar      1 <0>        -0.1011
      6 C6          1.1716    1.7851    0.0005 C.ar      1 <0>         0.0864
      7 O1          2.3583    1.1211   -0.0135 O.3       1 <0>        -0.4970
      8 C7         -2.6288    1.3531    0.0362 C.2       1 <0>        -0.1955
      9 C8         -3.3778    2.4748    0.0476 C.2       1 <0>         0.0884
     10 N1         -2.5627    3.5685    0.0434 N.pl3     1 <0>        -0.5551
     11 H1         -2.8665    4.4897    0.0488 H         1 <0>         0.4330
     12 C9         -4.8889    2.4539    0.0604 C.3       1 <0>         0.0496
     13 H2         -5.2505    2.6759    1.0644 H         1 <0>         0.1539
     14 C10        -4.6817    0.0628    0.4499 C.3       1 <0>        -0.0021
     15 C11        -3.2059   -0.0394    0.0392 C.3       1 <0>        -0.0614
     16 C12        -5.4188    3.4790   -0.9088 C.2       1 <0>         0.4570
     17 O2         -5.7979    3.1361   -2.0036 O.co2     1 <0>        -0.6015
     18 H3          2.0883    3.7229    0.0023 H         1 <0>         0.1370
     19 H4         -0.0376    4.9444    0.0272 H         1 <0>         0.1316
     20 H5          0.0021   -0.0041    0.0020 H         1 <0>         0.1302
     21 H6          2.6935    0.9332   -0.9009 H         1 <0>         0.3898
     22 H7         -5.1760   -0.8919    0.2701 H         1 <0>         0.1341
     23 H8         -4.7478    0.3126    1.5089 H         1 <0>         0.1277
     24 H9         -3.1297   -0.4725   -0.9582 H         1 <0>         0.0947
     25 H10        -2.6663   -0.6608    0.7540 H         1 <0>         0.1133
     26 N2         -5.3479    1.1091   -0.3533 N.4       1 <0>        -0.4947
     27 H11        -5.1245    0.9665   -1.3453 H         1 <0>         0.4384
     28 H12        -6.3636    1.0427   -0.2182 H         1 <0>         0.4375
     29 O3         -5.4697    4.7731   -0.5558 O.co2     1 <0>        -0.6962
@<TRIPOS>BOND
     1    1    6 ar
     2    1    2 ar
     3    1   18 1
     4    2    3 ar
     5    2   19 1
     6    3   10 1
     7    3    4 ar
     8    4    5 ar
     9    4    8 1
    10    5    6 ar
    11    5   20 1
    12    6    7 1
    13    7   21 1
    14    8   15 1
    15    8    9 2
    16    9   10 1
    17    9   12 1
    18   10   11 1
    19   12   13 1
    20   12   16 1
    21   12   26 1
    22   14   15 1
    23   14   22 1
    24   14   23 1
    25   14   26 1
    26   15   24 1
    27   15   25 1
    28   16   17 2
    29   16   29 1
    30   26   27 1
    31   26   28 1
@<TRIPOS>MOLECULE
ZINC03874886
   66    69     0     0     0
SMALL
USER_CHARGES

@<TRIPOS>ATOM
      1 C1         -3.2064   -6.8800   -3.8436 C.3       1 <0>        -0.1078
      2 C2         -2.7956   -5.4579   -4.1263 C.ar      1 <0>        -0.1483
      3 C3         -1.9349   -4.7996   -3.2563 C.ar      1 <0>         0.1478
      4 C4         -1.5490   -3.4887   -3.5059 C.ar      1 <0>        -0.1300
      5 C5         -2.0187   -2.8262   -4.6244 C.ar      1 <0>         0.1751
      6 C6         -2.8904   -3.4844   -5.5119 C.ar      1 <0>        -0.2165
      7 C7         -3.2715   -4.8146   -5.2529 C.ar      1 <0>         0.1656
      8 O1         -4.1072   -5.4608   -6.1032 O.3       1 <0>        -0.4840
      9 C8         -3.3932   -2.7929   -6.6971 C.2       1 <0>         0.4171
     10 O2         -2.8274   -2.9253   -7.7627 O.2       1 <0>        -0.4425
     11 C9         -4.6142   -1.9153   -6.5962 C.3       1 <0>        -0.1955
     12 O3         -1.6412   -1.5462   -4.8655 O.3       1 <0>        -0.4743
     13 C10        -0.6154   -2.7864   -2.5539 C.3       1 <0>        -0.0211
     14 C11         0.7897   -2.8416   -3.0958 C.ar      1 <0>        -0.1509
     15 C12         1.2888   -1.7736   -3.8292 C.ar      1 <0>         0.1811
     16 C13         2.5918   -1.8227   -4.3324 C.ar      1 <0>        -0.1634
     17 C14         3.3948   -2.9442   -4.0996 C.ar      1 <0>         0.1953
     18 C15         2.8878   -4.0178   -3.3597 C.ar      1 <0>        -0.2048
     19 C16         1.5764   -3.9538   -2.8546 C.ar      1 <0>         0.1880
     20 O4          1.0796   -4.9888   -2.1324 O.3       1 <0>        -0.4722
     21 C17         3.7220   -5.2034   -3.1074 C.2       1 <0>         0.4520
     22 O5          3.7768   -6.0966   -3.9339 O.2       1 <0>        -0.4460
     23 C18         4.4863   -5.3095   -1.8628 C.2       1 <0>        -0.2247
     24 C19         5.3294   -6.3459   -1.6753 C.2       1 <0>        -0.0105
     25 C20         6.0975   -6.4526   -0.4245 C.ar      1 <0>        -0.0826
     26 C21         5.9518   -5.4847    0.5746 C.ar      1 <0>        -0.0966
     27 C22         6.6746   -5.5919    1.7438 C.ar      1 <0>        -0.1228
     28 C23         7.5425   -6.6539    1.9303 C.ar      1 <0>        -0.1050
     29 C24         7.6926   -7.6155    0.9462 C.ar      1 <0>        -0.1234
     30 C25         6.9726   -7.5255   -0.2263 C.ar      1 <0>        -0.0928
     31 O6          4.6537   -2.9651   -4.6000 O.3       1 <0>        -0.2967
     32 C26         4.8680   -2.3104   -5.8511 C.3       1 <0>         0.1466
     33 C27         4.2506   -0.9368   -5.8407 C.2       1 <0>        -0.1789
     34 C28         3.1562   -0.7047   -5.1177 C.2       1 <0>        -0.0892
     35 C29         6.3717   -2.1862   -6.1050 C.3       1 <0>        -0.1381
     36 C30         4.2348   -3.1400   -6.9700 C.3       1 <0>        -0.1736
     37 O7          0.5129   -0.6846   -4.0574 O.3       1 <0>        -0.4789
     38 O8         -1.4689   -5.4413   -2.1555 O.3       1 <0>        -0.4726
     39 H1         -2.4969   -7.5628   -4.3111 H         1 <0>         0.0729
     40 H2         -3.2166   -7.0479   -2.7667 H         1 <0>         0.0768
     41 H3         -4.2026   -7.0578   -4.2485 H         1 <0>         0.0719
     42 H4         -5.0444   -5.3557   -5.8893 H         1 <0>         0.3949
     43 H5         -4.3192   -0.9186   -6.2681 H         1 <0>         0.1038
     44 H6         -5.0956   -1.8491   -7.5718 H         1 <0>         0.0884
     45 H7         -5.3109   -2.3436   -5.8756 H         1 <0>         0.0842
     46 H8         -0.8388   -1.4667   -5.3993 H         1 <0>         0.3987
     47 H9         -0.9223   -1.7461   -2.4452 H         1 <0>         0.0963
     48 H10        -0.6496   -3.2787   -1.5820 H         1 <0>         0.1017
     49 H11         0.7349   -5.7144   -2.6706 H         1 <0>         0.3839
     50 H12         4.3750   -4.5582   -1.0950 H         1 <0>         0.1341
     51 H13         5.4407   -7.0973   -2.4430 H         1 <0>         0.1344
     52 H14         5.2753   -4.6553    0.4304 H         1 <0>         0.1280
     53 H15         6.5635   -4.8452    2.5161 H         1 <0>         0.1269
     54 H16         8.1059   -6.7323    2.8483 H         1 <0>         0.1255
     55 H17         8.3720   -8.4410    1.0989 H         1 <0>         0.1273
     56 H18         7.0873   -8.2790   -0.9914 H         1 <0>         0.1283
     57 H19         4.6952   -0.1402   -6.4187 H         1 <0>         0.1375
     58 H20         2.6948    0.2717   -5.1056 H         1 <0>         0.1397
     59 H21         6.8190   -3.1799   -6.1314 H         1 <0>         0.0717
     60 H22         6.5390   -1.6869   -7.0593 H         1 <0>         0.0840
     61 H23         6.8283   -1.6035   -5.3050 H         1 <0>         0.0696
     62 H24         3.1646   -3.2386   -6.7880 H         1 <0>         0.0601
     63 H25         4.3964   -2.6432   -7.9266 H         1 <0>         0.0786
     64 H26         4.6922   -4.1291   -6.9924 H         1 <0>         0.0726
     65 H27         0.6450    0.0325   -3.4222 H         1 <0>         0.4011
     66 H28        -0.7068   -6.0116   -2.3259 H         1 <0>         0.3825
@<TRIPOS>BOND
     1    1    2 1
     2    1   39 1
     3    1   40 1
     4    1   41 1
     5    2    7 ar
     6    2    3 ar
     7    3    4 ar
     8    3   38 1
     9    4    5 ar
    10    4   13 1
    11    5    6 ar
    12    5   12 1
    13    6    7 ar
    14    6    9 1
    15    7    8 1
    16    8   42 1
    17    9   10 2
    18    9   11 1
    19   11   43 1
    20   11   44 1
    21   11   45 1
    22   12   46 1
    23   13   14 1
    24   13   47 1
    25   13   48 1
    26   14   19 ar
    27   14   15 ar
    28   15   16 ar
    29   15   37 1
    30   16   34 1
    31   16   17 ar
    32   17   18 ar
    33   17   31 1
    34   18   19 ar
    35   18   21 1
    36   19   20 1
    37   20   49 1
    38   21   22 2
    39   21   23 1
    40   23   24 2
    41   23   50 1
    42   24   25 1
    43   24   51 1
    44   25   30 ar
    45   25   26 ar
    46   26   27 ar
    47   26   52 1
    48   27   28 ar
    49   27   53 1
    50   28   29 ar
    51   28   54 1
    52   29   30 ar
    53   29   55 1
    54   30   56 1
    55   31   32 1
    56   32   33 1
    57   32   35 1
    58   32   36 1
    59   33   34 2
    60   33   57 1
    61   34   58 1
    62   35   59 1
    63   35   60 1
    64   35   61 1
    65   36   62 1
    66   36   63 1
    67   36   64 1
    68   37   65 1
    69   38   66 1
@<TRIPOS>MOLECULE
ZINC03874886
   65    68     0     0     0
SMALL
USER_CHARGES

@<TRIPOS>ATOM
      1 C1         -0.0864    1.5060    0.0434 C.3       1 <0>        -0.0970
      2 C2         -0.0725   -0.0009    0.0305 C.ar      1 <0>        -0.1650
      3 C3         -0.0639   -0.6830   -1.1802 C.ar      1 <0>         0.1792
      4 C4         -0.0511   -2.0719   -1.2053 C.ar      1 <0>        -0.1185
      5 C5         -0.0468   -2.7890   -0.0237 C.ar      1 <0>         0.1741
      6 C6         -0.0550   -2.1073    1.2076 C.ar      1 <0>        -0.2369
      7 C7         -0.0627   -0.6997    1.2225 C.ar      1 <0>         0.1503
      8 O1         -0.0659   -0.0317    2.4027 O.3       1 <0>        -0.4883
      9 C8         -0.0511   -2.8560    2.4627 C.2       1 <0>         0.4256
     10 O2          0.9991   -3.2291    2.9434 O.2       1 <0>        -0.4527
     11 C9         -1.3509   -3.1648    3.1599 C.3       1 <0>        -0.1939
     12 O3         -0.0352   -4.1448   -0.0507 O.3       1 <0>        -0.4876
     13 C10        -0.0424   -2.7991   -2.5252 C.3       1 <0>         0.0030
     14 C11         1.3813   -3.0285   -2.9629 C.ar      1 <0>        -0.2590
     15 C12         2.0262   -2.0757   -3.7399 C.ar      1 <0>         0.3377
     16 C13         3.3467   -2.2863   -4.1467 C.ar      1 <0>        -0.2992
     17 C14         4.0208   -3.4539   -3.7735 C.ar      1 <0>         0.2289
     18 C15         3.3671   -4.4109   -2.9901 C.ar      1 <0>        -0.3307
     19 C16         2.0396   -4.1846   -2.5832 C.ar      1 <0>         0.2078
     20 O4          1.4009   -5.1058   -1.8196 O.3       1 <0>        -0.5022
     21 C17         4.0647   -5.6434   -2.5904 C.2       1 <0>         0.4724
     22 O5          4.0785   -6.6052   -3.3379 O.2       1 <0>        -0.4699
     23 C18         4.7423   -5.7137   -1.2942 C.2       1 <0>        -0.1932
     24 C19         5.2903   -6.8754   -0.8816 C.2       1 <0>        -0.0510
     25 C20         5.9713   -6.9460    0.4211 C.ar      1 <0>        -0.0644
     26 C21         6.0475   -5.8125    1.2368 C.ar      1 <0>        -0.1010
     27 C22         6.6869   -5.8869    2.4562 C.ar      1 <0>        -0.1197
     28 C23         7.2523   -7.0792    2.8736 C.ar      1 <0>        -0.1169
     29 C24         7.1815   -8.2053    2.0719 C.ar      1 <0>        -0.1249
     30 C25         6.5405   -8.1486    0.8524 C.ar      1 <0>        -0.1026
     31 O6          5.3000   -3.6323   -4.1827 O.3       1 <0>        -0.3163
     32 C26         5.6535   -3.1063   -5.4627 C.3       1 <0>         0.1640
     33 C27         5.1735   -1.6854   -5.6004 C.2       1 <0>        -0.2753
     34 C28         4.0645   -1.2942   -4.9747 C.2       1 <0>        -0.0093
     35 C29         7.1749   -3.1428   -5.6208 C.3       1 <0>        -0.1320
     36 C30         5.0124   -3.9640   -6.5555 C.3       1 <0>        -0.1670
     37 O7          1.3756   -0.9425   -4.1042 O.3       1 <0>        -0.6788
     38 O8         -0.0685    0.0121   -2.3453 O.3       1 <0>        -0.4813
     39 H1          0.9379    1.8788    0.0436 H         1 <0>         0.0654
     40 H2         -0.6062    1.8722   -0.8420 H         1 <0>         0.0726
     41 H3         -0.6009    1.8570    0.9379 H         1 <0>         0.0615
     42 H4         -0.9501    0.1536    2.7474 H         1 <0>         0.3845
     43 H5         -1.6916   -4.1587    2.8699 H         1 <0>         0.0991
     44 H6         -1.2009   -3.1327    4.2391 H         1 <0>         0.0848
     45 H7         -2.1003   -2.4264    2.8752 H         1 <0>         0.0798
     46 H8          0.8515   -4.5305   -0.0572 H         1 <0>         0.4006
     47 H9         -0.5476   -3.7586   -2.4147 H         1 <0>         0.0667
     48 H10        -0.5606   -2.1997   -3.2737 H         1 <0>         0.0871
     49 H11         0.9263   -5.7775   -2.3282 H         1 <0>         0.3886
     50 H12         4.8035   -4.8355   -0.6685 H         1 <0>         0.1286
     51 H13         5.2291   -7.7536   -1.5073 H         1 <0>         0.1304
     52 H14         5.6071   -4.8813    0.9123 H         1 <0>         0.1293
     53 H15         6.7469   -5.0123    3.0871 H         1 <0>         0.1243
     54 H16         7.7518   -7.1312    3.8297 H         1 <0>         0.1208
     55 H17         7.6254   -9.1320    2.4044 H         1 <0>         0.1224
     56 H18         6.4822   -9.0292    0.2299 H         1 <0>         0.1252
     57 H19         5.7283   -0.9840   -6.2059 H         1 <0>         0.1127
     58 H20         3.7006   -0.2818   -5.0695 H         1 <0>         0.1205
     59 H21         7.5240   -4.1722   -5.5399 H         1 <0>         0.0603
     60 H22         7.4484   -2.7420   -6.5968 H         1 <0>         0.0722
     61 H23         7.6361   -2.5402   -4.8383 H         1 <0>         0.0620
     62 H24         3.9286   -3.9481   -6.4408 H         1 <0>         0.0618
     63 H25         5.2801   -3.5654   -7.5340 H         1 <0>         0.0645
     64 H26         5.3718   -4.9895   -6.4702 H         1 <0>         0.0584
     65 H27         0.8136    0.2220   -2.6816 H         1 <0>         0.4076
@<TRIPOS>BOND
     1    1    2 1
     2    1   39 1
     3    1   40 1
     4    1   41 1
     5    2    7 ar
     6    2    3 ar
     7    3    4 ar
     8    3   38 1
     9    4    5 ar
    10    4   13 1
    11    5    6 ar
    12    5   12 1
    13    6    7 ar
    14    6    9 1
    15    7    8 1
    16    8   42 1
    17    9   10 2
    18    9   11 1
    19   11   43 1
    20   11   44 1
    21   11   45 1
    22   12   46 1
    23   13   14 1
    24   13   47 1
    25   13   48 1
    26   14   19 ar
    27   14   15 ar
    28   15   16 ar
    29   15   37 1
    30   16   34 1
    31   16   17 ar
    32   17   18 ar
    33   17   31 1
    34   18   19 ar
    35   18   21 1
    36   19   20 1
    37   20   49 1
    38   21   22 2
    39   21   23 1
    40   23   24 2
    41   23   50 1
    42   24   25 1
    43   24   51 1
    44   25   30 ar
    45   25   26 ar
    46   26   27 ar
    47   26   52 1
    48   27   28 ar
    49   27   53 1
    50   28   29 ar
    51   28   54 1
    52   29   30 ar
    53   29   55 1
    54   30   56 1
    55   31   32 1
    56   32   33 1
    57   32   35 1
    58   32   36 1
    59   33   34 2
    60   33   57 1
    61   34   58 1
    62   35   59 1
    63   35   60 1
    64   35   61 1
    65   36   62 1
    66   36   63 1
    67   36   64 1
    68   38   65 1
@<TRIPOS>MOLECULE
ZINC16052569
   50    53     0     0     0
SMALL
USER_CHARGES

@<TRIPOS>ATOM
      1 C1         -0.0184    1.5028    0.0103 C.3       1 <0>        -0.0807
      2 C2          0.0021   -0.0041    0.0020 C.2       1 <0>         0.1088
      3 C3          0.0083   -0.8581   -1.1820 C.ar      1 <0>        -0.1763
      4 C4         -0.0019   -0.6082   -2.5573 C.ar      1 <0>        -0.0083
      5 C5          0.0079   -1.6738   -3.4431 C.ar      1 <0>        -0.1061
      6 C6          0.0279   -2.9891   -2.9631 C.ar      1 <0>        -0.0534
      7 C7          0.0380   -3.2410   -1.6234 C.ar      1 <0>        -0.1371
      8 C8          0.0285   -2.1860   -0.7124 C.ar      1 <0>         0.1440
      9 N1          0.0337   -2.1193    0.6566 N.pl3     1 <0>        -0.5045
     10 H1          0.0468   -2.8812    1.2569 H         1 <0>         0.4444
     11 N2          0.0230   -0.7772    1.0497 N.2       1 <0>        -0.2435
     12 C9         -0.0034   -1.4202   -4.9053 C.ar      1 <0>        -0.0271
     13 C10         0.0004   -2.4846   -5.8096 C.ar      1 <0>        -0.1014
     14 C11        -0.0110   -2.1940   -7.1677 C.ar      1 <0>         0.0698
     15 C12        -0.0257   -0.8671   -7.5756 C.ar      1 <0>         0.0161
     16 N3         -0.0289    0.1132   -6.6940 N.ar      1 <0>        -0.4368
     17 C13        -0.0238   -0.1167   -5.3969 C.ar      1 <0>         0.0812
     18 O1         -0.0074   -3.1961   -8.0859 O.3       1 <0>        -0.3231
     19 C14        -0.0198   -2.8144   -9.4629 C.3       1 <0>         0.0274
     20 C15        -0.0136   -4.0682  -10.3397 C.3       1 <0>         0.0437
     21 H2          0.8359   -4.6958  -10.0703 H         1 <0>         0.1553
     22 C16         0.0989   -3.6615  -11.8104 C.3       1 <0>        -0.0972
     23 C17         0.2286   -4.8962  -12.6646 C.ar      1 <0>        -0.1303
     24 C18         1.4792   -5.4136  -12.9461 C.ar      1 <0>        -0.1030
     25 C19         1.5982   -6.5462  -13.7296 C.ar      1 <0>        -0.1053
     26 C20         0.4666   -7.1617  -14.2312 C.ar      1 <0>        -0.1014
     27 C21        -0.7840   -6.6448  -13.9490 C.ar      1 <0>        -0.1075
     28 C22        -0.9032   -5.5147  -13.1619 C.ar      1 <0>        -0.1401
     29 N4         -1.2605   -4.8167  -10.1327 N.4       1 <0>        -0.6365
     30 H3          1.0042    1.8801    0.0026 H         1 <0>         0.0878
     31 H4         -0.5455    1.8639   -0.8728 H         1 <0>         0.0842
     32 H5         -0.5286    1.8543    0.9071 H         1 <0>         0.0843
     33 H6         -0.0177    0.4067   -2.9264 H         1 <0>         0.1366
     34 H7          0.0350   -3.8127   -3.6617 H         1 <0>         0.1316
     35 H8          0.0531   -4.2604   -1.2670 H         1 <0>         0.1332
     36 H9          0.0123   -3.5071   -5.4619 H         1 <0>         0.1476
     37 H10        -0.0343   -0.6345   -8.6302 H         1 <0>         0.1565
     38 H11        -0.0314    0.7142   -4.7071 H         1 <0>         0.1670
     39 H12        -0.9167   -2.2306   -9.6700 H         1 <0>         0.0927
     40 H13         0.8631   -2.2138   -9.6814 H         1 <0>         0.1143
     41 H14        -0.7936   -3.1088  -12.1038 H         1 <0>         0.1038
     42 H15         0.9777   -3.0313  -11.9469 H         1 <0>         0.1255
     43 H16         2.3632   -4.9328  -12.5542 H         1 <0>         0.1308
     44 H17         2.5752   -6.9501  -13.9502 H         1 <0>         0.1335
     45 H18         0.5596   -8.0462  -14.8440 H         1 <0>         0.1330
     46 H19        -1.6681   -7.1255  -14.3411 H         1 <0>         0.1326
     47 H20        -1.8805   -5.1130  -12.9382 H         1 <0>         0.1228
     48 H21        -1.2564   -5.6436  -10.7110 H         1 <0>         0.4365
     49 H22        -1.3347   -5.0850   -9.1628 H         1 <0>         0.4422
     50 H23        -2.0469   -4.2358  -10.3821 H         1 <0>         0.4324
@<TRIPOS>BOND
     1    1    2 1
     2    1   30 1
     3    1   31 1
     4    1   32 1
     5    2   11 2
     6    2    3 1
     7    3    8 ar
     8    3    4 ar
     9    4    5 ar
    10    4   33 1
    11    5    6 ar
    12    5   12 1
    13    6    7 ar
    14    6   34 1
    15    7    8 ar
    16    7   35 1
    17    8    9 1
    18    9   10 1
    19    9   11 1
    20   12   17 ar
    21   12   13 ar
    22   13   14 ar
    23   13   36 1
    24   14   15 ar
    25   14   18 1
    26   15   16 ar
    27   15   37 1
    28   16   17 ar
    29   17   38 1
    30   18   19 1
    31   19   20 1
    32   19   39 1
    33   19   40 1
    34   20   21 1
    35   20   22 1
    36   20   29 1
    37   22   23 1
    38   22   41 1
    39   22   42 1
    40   23   28 ar
    41   23   24 ar
    42   24   25 ar
    43   24   43 1
    44   25   26 ar
    45   25   44 1
    46   26   27 ar
    47   26   45 1
    48   27   28 ar
    49   27   46 1
    50   28   47 1
    51   29   48 1
    52   29   49 1
    53   29   50 1
@<TRIPOS>MOLECULE
ZINC00120367
   32    34     0     0     0
SMALL
USER_CHARGES
(1S)-6-methoxy-2,3,4,9-tetrahydro-1H-pyrido[3,4-b]indole-1-carboxylic acid
@<TRIPOS>ATOM
      1 C1         -5.7735    1.4837    6.1349 C.3       1 <0>         0.0262
      2 O1         -4.4995    1.6141    5.5009 O.3       1 <0>        -0.3200
      3 C2         -4.4504    1.3865    4.1611 C.ar      1 <0>         0.1055
      4 C3         -5.6188    1.0455    3.4905 C.ar      1 <0>        -0.1771
      5 C4         -5.6424    0.8005    2.1292 C.ar      1 <0>        -0.0804
      6 C5         -4.4353    0.9096    1.4426 C.ar      1 <0>         0.0731
      7 C6         -3.2405    1.2576    2.1242 C.ar      1 <0>        -0.0550
      8 C7         -3.2357    1.5015    3.5016 C.ar      1 <0>        -0.1103
      9 C8         -2.2010    1.2779    1.1195 C.2       1 <0>        -0.1966
     10 C9         -2.7794    0.9609   -0.0615 C.2       1 <0>         0.0832
     11 N1         -4.1164    0.7378    0.1234 N.pl3     1 <0>        -0.5506
     12 H1         -4.7435    0.4941   -0.5753 H         1 <0>         0.4327
     13 C10        -2.0109    0.8814   -1.3594 C.3       1 <0>         0.0497
     14 H2         -1.8335   -0.1628   -1.6167 H         1 <0>         0.1529
     15 C11        -0.0127    1.0858    0.0080 C.3       1 <0>        -0.0019
     16 C12        -0.7313    1.5809    1.2707 C.3       1 <0>        -0.0606
     17 C13        -2.7987    1.5506   -2.4560 C.2       1 <0>         0.4570
     18 O2         -2.5350    2.6830   -2.7846 O.co2     1 <0>        -0.6016
     19 H3         -6.4740    2.1915    5.6918 H         1 <0>         0.0555
     20 H4         -6.1461    0.4688    5.9964 H         1 <0>         0.0553
     21 H5         -5.6722    1.6914    7.2001 H         1 <0>         0.1003
     22 H6         -6.5390    0.9689    4.0508 H         1 <0>         0.1331
     23 H7         -6.5576    0.5356    1.6206 H         1 <0>         0.1376
     24 H8         -2.3297    1.7663    4.0264 H         1 <0>         0.1392
     25 H9          0.0021   -0.0041    0.0020 H         1 <0>         0.1273
     26 H10         1.0099    1.4632    0.0003 H         1 <0>         0.1338
     27 H11        -0.3367    1.0644    2.1456 H         1 <0>         0.1135
     28 H12        -0.5861    2.6557    1.3798 H         1 <0>         0.0946
     29 N2         -0.7190    1.5824   -1.1908 N.4       1 <0>        -0.4946
     30 H13        -0.8919    2.5893   -1.0880 H         1 <0>         0.4385
     31 H14        -0.1350    1.4182   -2.0191 H         1 <0>         0.4369
     32 O3         -3.7933    0.8887   -3.0678 O.co2     1 <0>        -0.6973
@<TRIPOS>BOND
     1    1    2 1
     2    1   19 1
     3    1   20 1
     4    1   21 1
     5    2    3 1
     6    3    8 ar
     7    3    4 ar
     8    4    5 ar
     9    4   22 1
    10    5    6 ar
    11    5   23 1
    12    6   11 1
    13    6    7 ar
    14    7    8 ar
    15    7    9 1
    16    8   24 1
    17    9   16 1
    18    9   10 2
    19   10   11 1
    20   10   13 1
    21   11   12 1
    22   13   14 1
    23   13   17 1
    24   13   29 1
    25   15   16 1
    26   15   25 1
    27   15   26 1
    28   15   29 1
    29   16   27 1
    30   16   28 1
    31   17   18 2
    32   17   32 1
    33   29   30 1
    34   29   31 1
@<TRIPOS>MOLECULE
ZINC00120368
   32    34     0     0     0
SMALL
USER_CHARGES
(1R)-6-methoxy-2,3,4,9-tetrahydro-1H-pyrido[3,4-b]indole-1-carboxylic acid
@<TRIPOS>ATOM
      1 C1         -5.3064    4.3421    0.0780 C.3       1 <0>         0.0262
      2 O1         -3.9399    4.7601    0.0672 O.3       1 <0>        -0.3200
      3 C2         -2.9952    3.7820    0.0524 C.ar      1 <0>         0.1055
      4 C3         -3.3992    2.4523    0.0483 C.ar      1 <0>        -0.1771
      5 C4         -2.4935    1.4067    0.0333 C.ar      1 <0>        -0.0803
      6 C5         -1.1405    1.7377    0.0163 C.ar      1 <0>         0.0731
      7 C6         -0.7248    3.0943    0.0259 C.ar      1 <0>        -0.0551
      8 C7         -1.6551    4.1388    0.0415 C.ar      1 <0>        -0.1103
      9 C8          0.7207    3.0674    0.0109 C.2       1 <0>        -0.1969
     10 C9          1.0970    1.7682    0.0011 C.2       1 <0>         0.0833
     11 N1         -0.0111    0.9658    0.0074 N.pl3     1 <0>        -0.5503
     12 H1          0.0021   -0.0041    0.0020 H         1 <0>         0.4328
     13 C10         2.5425    1.3303   -0.0125 C.3       1 <0>         0.0497
     14 H2          2.8175    1.0062   -1.0162 H         1 <0>         0.1528
     15 C11         3.0701    3.6688   -0.4116 C.3       1 <0>        -0.0017
     16 C12         1.6975    4.2164    0.0031 C.3       1 <0>        -0.0607
     17 C13         2.7373    0.1967    0.9612 C.2       1 <0>         0.4573
     18 O2          3.2040    0.4129    2.0545 O.co2     1 <0>        -0.6018
     19 H3         -5.4950    3.7394    0.9664 H         1 <0>         0.0555
     20 H4         -5.9543    5.2185    0.0893 H         1 <0>         0.1003
     21 H5         -5.5122    3.7496   -0.8134 H         1 <0>         0.0553
     22 H6         -4.4556    2.2277    0.0566 H         1 <0>         0.1330
     23 H7         -2.8215    0.3778    0.0307 H         1 <0>         0.1376
     24 H8         -1.3447    5.1733    0.0453 H         1 <0>         0.1392
     25 H9          3.0522    3.4063   -1.4693 H         1 <0>         0.1273
     26 H10         3.8320    4.4287   -0.2383 H         1 <0>         0.1337
     27 H11         1.3713    4.9725   -0.7111 H         1 <0>         0.1134
     28 H12         1.7600    4.6536    0.9996 H         1 <0>         0.0947
     29 N2          3.3898    2.4728    0.3948 N.4       1 <0>        -0.4946
     30 H13         4.3772    2.2268    0.2573 H         1 <0>         0.4370
     31 H14         3.2235    2.6798    1.3866 H         1 <0>         0.4385
     32 O3          2.3924   -1.0531    0.6138 O.co2     1 <0>        -0.6973
@<TRIPOS>BOND
     1    1    2 1
     2    1   19 1
     3    1   20 1
     4    1   21 1
     5    2    3 1
     6    3    8 ar
     7    3    4 ar
     8    4    5 ar
     9    4   22 1
    10    5    6 ar
    11    5   23 1
    12    6   11 1
    13    6    7 ar
    14    7    8 ar
    15    7    9 1
    16    8   24 1
    17    9   16 1
    18    9   10 2
    19   10   11 1
    20   10   13 1
    21   11   12 1
    22   13   14 1
    23   13   17 1
    24   13   29 1
    25   15   16 1
    26   15   25 1
    27   15   26 1
    28   15   29 1
    29   16   27 1
    30   16   28 1
    31   17   18 2
    32   17   32 1
    33   29   30 1
    34   29   31 1
@<TRIPOS>MOLECULE
ZINC53064461
   58    62     0     0     0
SMALL
USER_CHARGES

@<TRIPOS>ATOM
      1 C1          1.2248    1.0418    0.0848 C.3       1 <0>        -0.0480
      2 N1          0.6575   -0.3066   -0.0490 N.4       1 <0>        -0.3850
      3 C2         -0.6972   -0.3242    0.5173 C.3       1 <0>        -0.0232
      4 C3         -1.3328   -1.6974    0.2759 C.3       1 <0>         0.0954
      5 N2         -0.4347   -2.7287    0.8181 N.pl3     1 <0>        -0.6419
      6 C4          0.9835   -2.6870    0.4292 C.3       1 <0>         0.0967
      7 C5          1.5098   -1.2671    0.6633 C.3       1 <0>        -0.0226
      8 C6         -0.9156   -3.7211    1.6796 C.ar      1 <0>         0.2117
      9 C7         -2.2253   -3.6670    2.1386 C.ar      1 <0>        -0.1615
     10 C8         -2.6997   -4.6458    2.9890 C.ar      1 <0>        -0.0696
     11 C9         -1.8674   -5.6847    3.3850 C.ar      1 <0>         0.0704
     12 C10        -0.5578   -5.7390    2.9256 C.ar      1 <0>        -0.0868
     13 C11        -0.0850   -4.7630    2.0711 C.ar      1 <0>        -0.1633
     14 N3         -2.3483   -6.6770    4.2476 N.pl3     1 <0>        -0.6164
     15 C12        -1.5359   -7.1721    5.2560 C.ar      1 <0>         0.3449
     16 C13        -0.3040   -6.5971    5.5292 C.ar      1 <0>        -0.2683
     17 C14         0.4859   -7.1161    6.5452 C.ar      1 <0>         0.2285
     18 N4          0.1024   -8.1451    7.2650 N.ar      1 <0>        -0.4995
     19 C15        -1.0724   -8.7504    7.0576 C.ar      1 <0>         0.1607
     20 C16        -1.9404   -8.2777    6.0435 C.ar      1 <0>        -0.1137
     21 C17        -3.1719   -8.9080    5.8314 C.ar      1 <0>        -0.0742
     22 C18        -3.5296   -9.9856    6.6224 C.ar      1 <0>        -0.0050
     23 C19        -2.6670  -10.4443    7.6299 C.ar      1 <0>        -0.0305
     24 C20        -1.4629   -9.8518    7.8408 C.ar      1 <0>        -0.1323
     25 C21        -4.8330  -10.6596    6.4045 C.ar      1 <0>        -0.0821
     26 C22        -5.6925  -10.2130    5.4025 C.ar      1 <0>        -0.1016
     27 C23        -6.9036  -10.8442    5.2039 C.ar      1 <0>        -0.1155
     28 C24        -7.2653  -11.9179    5.9975 C.ar      1 <0>        -0.0936
     29 C25        -6.4163  -12.3651    6.9939 C.ar      1 <0>        -0.1122
     30 C26        -5.2000  -11.7455    7.1973 C.ar      1 <0>        -0.0963
     31 H1          2.2274    1.0582   -0.3424 H         1 <0>         0.1276
     32 H2          0.5930    1.7558   -0.4435 H         1 <0>         0.1278
     33 H3          1.2748    1.3119    1.1397 H         1 <0>         0.1225
     34 H4         -0.6458   -0.1307    1.5887 H         1 <0>         0.1332
     35 H5         -1.3017    0.4455    0.0374 H         1 <0>         0.1450
     36 H6         -2.2969   -1.7487    0.7817 H         1 <0>         0.1277
     37 H7         -1.4682   -1.8553   -0.7940 H         1 <0>         0.0945
     38 H8          1.5507   -3.3925    1.0363 H         1 <0>         0.1266
     39 H9          1.0819   -2.9448   -0.6253 H         1 <0>         0.0937
     40 H10         2.5315   -1.1922    0.2910 H         1 <0>         0.1446
     41 H11         1.4944   -1.0451    1.7303 H         1 <0>         0.1328
     42 H12        -2.8725   -2.8591    1.8307 H         1 <0>         0.1378
     43 H13        -3.7179   -4.6033    3.3465 H         1 <0>         0.1397
     44 H14         0.0895   -6.5467    3.2337 H         1 <0>         0.1398
     45 H15         0.9320   -4.8074    1.7106 H         1 <0>         0.1376
     46 H16        -3.2499   -7.0180    4.1398 H         1 <0>         0.4270
     47 H17         0.0390   -5.7499    4.9540 H         1 <0>         0.1809
     48 H18         1.4438   -6.6609    6.7494 H         1 <0>         0.2059
     49 H19        -3.8376   -8.5561    5.0571 H         1 <0>         0.1463
     50 H20        -2.9602  -11.2863    8.2394 H         1 <0>         0.1585
     51 H21        -0.8107  -10.2178    8.6199 H         1 <0>         0.1612
     52 H22        -5.4114   -9.3743    4.7828 H         1 <0>         0.1211
     53 H23        -7.5705  -10.4989    4.4277 H         1 <0>         0.1322
     54 H24        -8.2142  -12.4086    5.8389 H         1 <0>         0.1336
     55 H25        -6.7039  -13.2037    7.6108 H         1 <0>         0.1351
     56 H26        -4.5359  -12.0985    7.9723 H         1 <0>         0.1300
     57 H27         0.6865   -8.4753    7.9655 H         1 <0>         0.4458
     58 H28         0.6145   -0.5567   -1.0255 H         1 <0>         0.4268
@<TRIPOS>BOND
     1    1    2 1
     2    1   31 1
     3    1   32 1
     4    1   33 1
     5    2    7 1
     6    2    3 1
     7    2   58 1
     8    3    4 1
     9    3   34 1
    10    3   35 1
    11    4    5 1
    12    4   36 1
    13    4   37 1
    14    5    6 1
    15    5    8 1
    16    6    7 1
    17    6   38 1
    18    6   39 1
    19    7   40 1
    20    7   41 1
    21    8   13 ar
    22    8    9 ar
    23    9   10 ar
    24    9   42 1
    25   10   11 ar
    26   10   43 1
    27   11   12 ar
    28   11   14 1
    29   12   13 ar
    30   12   44 1
    31   13   45 1
    32   14   15 1
    33   14   46 1
    34   15   20 ar
    35   15   16 ar
    36   16   17 ar
    37   16   47 1
    38   17   18 ar
    39   17   48 1
    40   18   19 ar
    41   18   57 1
    42   19   24 ar
    43   19   20 ar
    44   20   21 ar
    45   21   22 ar
    46   21   49 1
    47   22   23 ar
    48   22   25 1
    49   23   24 ar
    50   23   50 1
    51   24   51 1
    52   25   30 ar
    53   25   26 ar
    54   26   27 ar
    55   26   52 1
    56   27   28 ar
    57   27   53 1
    58   28   29 ar
    59   28   54 1
    60   29   30 ar
    61   29   55 1
    62   30   56 1
@<TRIPOS>MOLECULE
ZINC53064461
   57    61     0     0     0
SMALL
USER_CHARGES

@<TRIPOS>ATOM
      1 C1          1.2208    1.0676    0.1087 C.3       1 <0>         0.0233
      2 N1          0.6834   -0.2924   -0.0314 N.3       1 <0>        -0.5428
      3 C2         -0.6999   -0.3648    0.4577 C.3       1 <0>         0.0375
      4 C3         -1.2824   -1.7437    0.1298 C.3       1 <0>         0.1196
      5 N2         -0.3784   -2.7724    0.6663 N.pl3     1 <0>        -0.6200
      6 C4          1.0509   -2.6863    0.3306 C.3       1 <0>         0.1209
      7 C5          1.5416   -1.2703    0.6505 C.3       1 <0>         0.0382
      8 C6         -0.8655   -3.8060    1.4743 C.ar      1 <0>         0.2394
      9 C7         -2.1905   -3.7966    1.8903 C.ar      1 <0>        -0.1791
     10 C8         -2.6709   -4.8160    2.6879 C.ar      1 <0>        -0.0611
     11 C9         -1.8292   -5.8513    3.0738 C.ar      1 <0>         0.0285
     12 C10        -0.5043   -5.8609    2.6573 C.ar      1 <0>        -0.0782
     13 C11        -0.0253   -4.8441    1.8555 C.ar      1 <0>        -0.1810
     14 N3         -2.3162   -6.8848    3.8829 N.pl3     1 <0>        -0.5993
     15 C12        -1.5268   -7.3998    4.8995 C.ar      1 <0>         0.3432
     16 C13        -0.3178   -6.8096    5.2351 C.ar      1 <0>        -0.2650
     17 C14         0.4495   -7.3493    6.2577 C.ar      1 <0>         0.2241
     18 N4          0.0653   -8.4121    6.9262 N.ar      1 <0>        -0.5085
     19 C15        -1.0882   -9.0338    6.6571 C.ar      1 <0>         0.1651
     20 C16        -1.9324   -8.5421    5.6321 C.ar      1 <0>        -0.1172
     21 C17        -3.1420   -9.1899    5.3555 C.ar      1 <0>        -0.0678
     22 C18        -3.5016  -10.3034    6.0942 C.ar      1 <0>        -0.0161
     23 C19        -2.6628  -10.7811    7.1129 C.ar      1 <0>        -0.0328
     24 C20        -1.4798  -10.1716    7.3860 C.ar      1 <0>        -0.1364
     25 C21        -4.7817  -10.9962    5.8078 C.ar      1 <0>        -0.0756
     26 C22        -5.6173  -10.5308    4.7941 C.ar      1 <0>        -0.1028
     27 C23        -6.8068  -11.1795    4.5318 C.ar      1 <0>        -0.1147
     28 C24        -7.1705  -12.2893    5.2730 C.ar      1 <0>        -0.0982
     29 C25        -6.3453  -12.7553    6.2806 C.ar      1 <0>        -0.1135
     30 C26        -5.1505  -12.1182    6.5476 C.ar      1 <0>        -0.0993
     31 H1          2.2176    1.1115   -0.3301 H         1 <0>         0.0738
     32 H2          0.5663    1.7716   -0.4052 H         1 <0>         0.0735
     33 H3          1.2771    1.3290    1.1654 H         1 <0>         0.0277
     34 H4         -0.7126   -0.2118    1.5368 H         1 <0>         0.0395
     35 H5         -1.2978    0.4072   -0.0267 H         1 <0>         0.0912
     36 H6         -2.2656   -1.8445    0.5894 H         1 <0>         0.0892
     37 H7         -1.3669   -1.8580   -0.9509 H         1 <0>         0.0791
     38 H8          1.6105   -3.4103    0.9229 H         1 <0>         0.0879
     39 H9          1.1908   -2.8912   -0.7308 H         1 <0>         0.0783
     40 H10         2.5693   -1.1550    0.3060 H         1 <0>         0.0908
     41 H11         1.4977   -1.1047    1.7269 H         1 <0>         0.0391
     42 H12        -2.8450   -2.9916    1.5903 H         1 <0>         0.1372
     43 H13        -3.7011   -4.8083    3.0120 H         1 <0>         0.1324
     44 H14         0.1503   -6.6657    2.9577 H         1 <0>         0.1326
     45 H15         1.0039   -4.8537    1.5283 H         1 <0>         0.1368
     46 H16        -3.2060   -7.2404    3.7322 H         1 <0>         0.4233
     47 H17         0.0252   -5.9346    4.7031 H         1 <0>         0.1837
     48 H18         1.3897   -6.8820    6.5107 H         1 <0>         0.2042
     49 H19        -3.7893   -8.8236    4.5724 H         1 <0>         0.1456
     50 H20        -2.9572  -11.6510    7.6811 H         1 <0>         0.1552
     51 H21        -0.8458  -10.5525    8.1729 H         1 <0>         0.1582
     52 H22        -5.3346   -9.6640    4.2153 H         1 <0>         0.1225
     53 H23        -7.4551  -10.8197    3.7465 H         1 <0>         0.1315
     54 H24        -8.1025  -12.7936    5.0645 H         1 <0>         0.1315
     55 H25        -6.6344  -13.6220    6.8565 H         1 <0>         0.1328
     56 H26        -4.5047  -12.4858    7.3313 H         1 <0>         0.1290
     57 H27         0.6331   -8.7558    7.6336 H         1 <0>         0.4429
@<TRIPOS>BOND
     1    1    2 1
     2    1   31 1
     3    1   32 1
     4    1   33 1
     5    2    7 1
     6    2    3 1
     7    3    4 1
     8    3   34 1
     9    3   35 1
    10    4    5 1
    11    4   36 1
    12    4   37 1
    13    5    6 1
    14    5    8 1
    15    6    7 1
    16    6   38 1
    17    6   39 1
    18    7   40 1
    19    7   41 1
    20    8   13 ar
    21    8    9 ar
    22    9   10 ar
    23    9   42 1
    24   10   11 ar
    25   10   43 1
    26   11   12 ar
    27   11   14 1
    28   12   13 ar
    29   12   44 1
    30   13   45 1
    31   14   15 1
    32   14   46 1
    33   15   20 ar
    34   15   16 ar
    35   16   17 ar
    36   16   47 1
    37   17   18 ar
    38   17   48 1
    39   18   19 ar
    40   18   57 1
    41   19   24 ar
    42   19   20 ar
    43   20   21 ar
    44   21   22 ar
    45   21   49 1
    46   22   23 ar
    47   22   25 1
    48   23   24 ar
    49   23   50 1
    50   24   51 1
    51   25   30 ar
    52   25   26 ar
    53   26   27 ar
    54   26   52 1
    55   27   28 ar
    56   27   53 1
    57   28   29 ar
    58   28   54 1
    59   29   30 ar
    60   29   55 1
    61   30   56 1
