@<TRIPOS>MOLECULE
ZINC16052718
   27    29     0     0     0
SMALL
USER_CHARGES
2-(4-pyridyl)-1,5,6,7-tetrahydropyrrolo[3,2-c]pyridin-4-one
@<TRIPOS>ATOM
      1 C1         -1.2211    1.7394    0.0173 C.ar      1 <0>        -0.1847
      2 C2         -0.0126    1.0758    0.0080 C.ar      1 <0>         0.1111
      3 N1          1.1266    1.7422    0.0007 N.ar      1 <0>        -0.4905
      4 C3          1.1665    3.0614    0.0069 C.ar      1 <0>         0.1119
      5 C4          0.0054    3.8049    0.0215 C.ar      1 <0>        -0.1618
      6 C5         -1.2265    3.1395    0.0297 C.ar      1 <0>         0.0379
      7 C6         -2.4974    3.8941    0.0449 C.2       1 <0>         0.0152
      8 C7         -2.6168    5.2527    0.0519 C.2       1 <0>        -0.0780
      9 C8         -3.9881    5.5373    0.0657 C.2       1 <0>        -0.2330
     10 C9         -4.6662    4.3225    0.0683 C.2       1 <0>         0.0775
     11 N2         -3.7609    3.3429    0.0484 N.pl3     1 <0>        -0.5119
     12 H1         -3.9600    2.3935    0.0405 H         1 <0>         0.4194
     13 C10        -6.1725    4.2736    0.0855 C.3       1 <0>        -0.0706
     14 C11        -6.6980    5.5192    0.7998 C.3       1 <0>         0.1242
     15 N3         -6.0502    6.7447    0.3531 N.am      1 <0>        -0.7362
     16 C12        -4.7270    6.8120    0.0741 C.2       1 <0>         0.5975
     17 O1         -4.1760    7.8712   -0.1574 O.2       1 <0>        -0.5324
     18 H2         -2.1495    1.1876    0.0191 H         1 <0>         0.1271
     19 H3          0.0021   -0.0041    0.0020 H         1 <0>         0.1582
     20 H4          2.1216    3.5654    0.0002 H         1 <0>         0.1618
     21 H5          0.0456    4.8841    0.0262 H         1 <0>         0.1422
     22 H6         -1.8098    5.9704    0.0479 H         1 <0>         0.1542
     23 H7         -6.5491    4.2527   -0.9371 H         1 <0>         0.0964
     24 H8         -6.5030    3.3798    0.6148 H         1 <0>         0.0985
     25 H9         -7.7696    5.6022    0.6183 H         1 <0>         0.0948
     26 H10        -6.5315    5.4063    1.8710 H         1 <0>         0.0675
     27 H11        -6.5885    7.5452    0.2514 H         1 <0>         0.4040
@<TRIPOS>BOND
     1    1    6 ar
     2    1    2 ar
     3    1   18 1
     4    2    3 ar
     5    2   19 1
     6    3    4 ar
     7    4    5 ar
     8    4   20 1
     9    5    6 ar
    10    5   21 1
    11    6    7 1
    12    7   11 1
    13    7    8 2
    14    8    9 1
    15    8   22 1
    16    9   16 1
    17    9   10 2
    18   10   11 1
    19   10   13 1
    20   11   12 1
    21   13   14 1
    22   13   23 1
    23   13   24 1
    24   14   15 1
    25   14   25 1
    26   14   26 1
    27   15   16 am
    28   15   27 1
    29   16   17 2
@<TRIPOS>MOLECULE
ZINC16052855
   42    46     0     0     0
SMALL
USER_CHARGES
2-[2-(3-quinolyl)-4-pyridyl]-1,5,6,7-tetrahydropyrrolo[3,2-c]pyridin-4-one
@<TRIPOS>ATOM
      1 C1         10.7572   -3.7819    0.0510 C.ar      1 <0>        -0.1174
      2 C2         10.0826   -4.9965   -0.0578 C.ar      1 <0>        -0.0943
      3 C3          8.7251   -5.0411   -0.1432 C.ar      1 <0>        -0.0961
      4 C4          7.9840   -3.8467   -0.1220 C.ar      1 <0>         0.1332
      5 C5          8.6723   -2.6122   -0.0112 C.ar      1 <0>        -0.1086
      6 C6         10.0749   -2.6042    0.0749 C.ar      1 <0>        -0.0904
      7 C7          7.9341   -1.4163    0.0035 C.ar      1 <0>        -0.0086
      8 C8          6.5519   -1.5034   -0.0804 C.ar      1 <0>        -0.1129
      9 C9          5.9436   -2.7641   -0.1873 C.ar      1 <0>         0.1529
     10 N1          6.6494   -3.8661   -0.2050 N.ar      1 <0>        -0.4708
     11 C10         5.7235   -0.2733   -0.0635 C.ar      1 <0>         0.1881
     12 C11         4.3369   -0.3774   -0.0487 C.ar      1 <0>        -0.1516
     13 C12         3.5718    0.7923   -0.0329 C.ar      1 <0>         0.0469
     14 C13         4.2419    2.0230   -0.0385 C.ar      1 <0>        -0.1854
     15 C14         5.6209    2.0383   -0.0474 C.ar      1 <0>         0.1223
     16 N2          6.3134    0.9162   -0.0622 N.ar      1 <0>        -0.4852
     17 C15         2.0948    0.7326   -0.0168 C.2       1 <0>         0.0138
     18 C16         1.3438   -0.4057   -0.0160 C.2       1 <0>        -0.0761
     19 C17         0.0021   -0.0041    0.0020 C.2       1 <0>        -0.2322
     20 C18        -0.0168    1.3870    0.0097 C.2       1 <0>         0.0794
     21 N3          1.2455    1.8183   -0.0001 N.pl3     1 <0>        -0.5112
     22 H1          1.5219    2.7481    0.0040 H         1 <0>         0.4196
     23 C19        -1.3188    2.1462    0.0206 C.3       1 <0>        -0.0709
     24 C20        -2.3876    1.3047   -0.6747 C.3       1 <0>         0.1238
     25 N4         -2.3915   -0.0842   -0.2366 N.am      1 <0>        -0.7361
     26 C21        -1.2539   -0.7742    0.0148 C.2       1 <0>         0.5971
     27 O1         -1.2683   -1.9693    0.2403 O.2       1 <0>        -0.5312
     28 H2         11.8351   -3.7749    0.1176 H         1 <0>         0.1302
     29 H3         10.6464   -5.9175   -0.0746 H         1 <0>         0.1323
     30 H4          8.2186   -5.9913   -0.2267 H         1 <0>         0.1378
     31 H5         10.6085   -1.6690    0.1592 H         1 <0>         0.1329
     32 H6          8.4274   -0.4588    0.0820 H         1 <0>         0.1521
     33 H7          4.8676   -2.8260   -0.2568 H         1 <0>         0.1632
     34 H8          3.8591   -1.3460   -0.0498 H         1 <0>         0.1448
     35 H9          3.6851    2.9484   -0.0315 H         1 <0>         0.1299
     36 H10         6.1419    2.9843   -0.0466 H         1 <0>         0.1625
     37 H11         1.7124   -1.4208   -0.0268 H         1 <0>         0.1545
     38 H12        -1.6218    2.3370    1.0501 H         1 <0>         0.0965
     39 H13        -1.1947    3.0919   -0.5070 H         1 <0>         0.0988
     40 H14        -2.2101    1.3333   -1.7498 H         1 <0>         0.0674
     41 H15        -3.3652    1.7406   -0.4691 H         1 <0>         0.0947
     42 H16        -3.2435   -0.5330   -0.1199 H         1 <0>         0.4042
@<TRIPOS>BOND
     1    1    6 ar
     2    1    2 ar
     3    1   28 1
     4    2    3 ar
     5    2   29 1
     6    3    4 ar
     7    3   30 1
     8    4   10 ar
     9    4    5 ar
    10    5    6 ar
    11    5    7 ar
    12    6   31 1
    13    7    8 ar
    14    7   32 1
    15    8    9 ar
    16    8   11 1
    17    9   10 ar
    18    9   33 1
    19   11   16 ar
    20   11   12 ar
    21   12   13 ar
    22   12   34 1
    23   13   14 ar
    24   13   17 1
    25   14   15 ar
    26   14   35 1
    27   15   16 ar
    28   15   36 1
    29   17   21 1
    30   17   18 2
    31   18   19 1
    32   18   37 1
    33   19   26 1
    34   19   20 2
    35   20   21 1
    36   20   23 1
    37   21   22 1
    38   23   24 1
    39   23   38 1
    40   23   39 1
    41   24   25 1
    42   24   40 1
    43   24   41 1
    44   25   26 am
    45   25   42 1
    46   26   27 2
@<TRIPOS>MOLECULE
ZINC18825334
   48    52     0     0     0
SMALL
USER_CHARGES
4-[[9-chloro-7-(2,6-difluorophenyl)-5H-pyrimido[5,4-d][2]benzazepin-2-yl]amino]benzoic acid
@<TRIPOS>ATOM
      1 C1          2.2776    0.3903   -0.5698 C.ar      1 <0>        -0.0509
      2 C2          1.1421    1.1799   -0.5633 C.ar      1 <0>        -0.1622
      3 C3         -0.1043    0.6031   -0.4066 C.ar      1 <0>         0.1578
      4 C4         -0.2153   -0.7818   -0.2549 C.ar      1 <0>        -0.1229
      5 C5          0.9369   -1.5728   -0.2630 C.ar      1 <0>         0.1499
      6 C6          2.1761   -0.9809   -0.4208 C.ar      1 <0>        -0.1633
      7 F1          0.8397   -2.9124   -0.1175 F         1 <0>        -0.1231
      8 C7         -1.5453   -1.4071   -0.0861 C.2       1 <0>         0.2536
      9 N1         -2.1650   -1.7678   -1.1512 N.2       1 <0>        -0.4634
     10 C8         -3.4819   -2.3942   -1.1195 C.3       1 <0>         0.0964
     11 C9         -4.4898   -1.4068   -0.6038 C.ar      1 <0>        -0.2574
     12 C10        -5.5098   -0.9746   -1.4374 C.ar      1 <0>         0.2162
     13 N2         -6.3794   -0.0861   -0.9844 N.ar      1 <0>        -0.5366
     14 C11        -6.2835    0.3896    0.2490 C.ar      1 <0>         0.5701
     15 N3         -5.3286   -0.0031    1.0745 N.ar      1 <0>        -0.5552
     16 C12        -4.4183   -0.9022    0.6848 C.ar      1 <0>         0.2552
     17 C13        -3.3769   -1.3202    1.6484 C.ar      1 <0>        -0.0142
     18 C14        -2.0497   -1.5581    1.2881 C.ar      1 <0>        -0.0587
     19 C15        -1.1358   -1.9616    2.2712 C.ar      1 <0>        -0.0846
     20 C16        -1.5377   -2.1181    3.5805 C.ar      1 <0>        -0.0213
     21 C17        -2.8549   -1.8776    3.9370 C.ar      1 <0>        -0.0981
     22 C18        -3.7670   -1.4826    2.9833 C.ar      1 <0>        -0.0636
     23 Cl1        -0.3917   -2.6181    4.7848 Cl        1 <0>        -0.0577
     24 N4         -7.2095    1.3241    0.6851 N.pl3     1 <0>        -0.6261
     25 C19        -8.1519    1.8366   -0.2021 C.ar      1 <0>         0.1418
     26 C20        -9.4292    2.1564    0.2498 C.ar      1 <0>        -0.1598
     27 C21       -10.3616    2.6678   -0.6235 C.ar      1 <0>        -0.0590
     28 C22       -10.0281    2.8564   -1.9684 C.ar      1 <0>        -0.1232
     29 C23        -8.7457    2.5290   -2.4200 C.ar      1 <0>        -0.0681
     30 C24        -7.8166    2.0227   -1.5403 C.ar      1 <0>        -0.1261
     31 C25       -11.0259    3.3995   -2.9077 C.2       1 <0>         0.4893
     32 O1        -10.7345    3.5633   -4.0760 O.co2     1 <0>        -0.6323
     33 F2         -1.2128    1.3755   -0.4056 F         1 <0>        -0.1209
     34 H1          3.2486    0.8468   -0.6927 H         1 <0>         0.1483
     35 H2          1.2295    2.2500   -0.6806 H         1 <0>         0.1486
     36 H3          3.0673   -1.5909   -0.4273 H         1 <0>         0.1485
     37 H4         -3.4574   -3.2644   -0.4636 H         1 <0>         0.0791
     38 H5         -3.7607   -2.7058   -2.1261 H         1 <0>         0.1121
     39 H6         -5.5938   -1.3585   -2.4434 H         1 <0>         0.1778
     40 H7         -0.1076   -2.1514    2.0006 H         1 <0>         0.1393
     41 H8         -3.1667   -1.9996    4.9638 H         1 <0>         0.1452
     42 H9         -4.7921   -1.2962    3.2678 H         1 <0>         0.1468
     43 H10        -7.2009    1.6210    1.6085 H         1 <0>         0.4210
     44 H11        -9.6873    2.0066    1.2877 H         1 <0>         0.1185
     45 H12       -11.3510    2.9199   -0.2713 H         1 <0>         0.1349
     46 H13        -8.4848    2.6738   -3.4580 H         1 <0>         0.1294
     47 H14        -6.8261    1.7696   -1.8885 H         1 <0>         0.1253
     48 O2        -12.2611    3.7145   -2.4709 O.co2     1 <0>        -0.7564
@<TRIPOS>BOND
     1    1    6 ar
     2    1    2 ar
     3    1   34 1
     4    2    3 ar
     5    2   35 1
     6    3    4 ar
     7    3   33 1
     8    4    5 ar
     9    4    8 1
    10    5    6 ar
    11    5    7 1
    12    6   36 1
    13    8   18 1
    14    8    9 2
    15    9   10 1
    16   10   11 1
    17   10   37 1
    18   10   38 1
    19   11   16 ar
    20   11   12 ar
    21   12   13 ar
    22   12   39 1
    23   13   14 ar
    24   14   15 ar
    25   14   24 1
    26   15   16 ar
    27   16   17 1
    28   17   22 ar
    29   17   18 ar
    30   18   19 ar
    31   19   20 ar
    32   19   40 1
    33   20   21 ar
    34   20   23 1
    35   21   22 ar
    36   21   41 1
    37   22   42 1
    38   24   25 1
    39   24   43 1
    40   25   30 ar
    41   25   26 ar
    42   26   27 ar
    43   26   44 1
    44   27   28 ar
    45   27   45 1
    46   28   29 ar
    47   28   31 1
    48   29   30 ar
    49   29   46 1
    50   30   47 1
    51   31   32 2
    52   31   48 1
@<TRIPOS>MOLECULE
ZINC03874886
   66    69     0     0     0
SMALL
USER_CHARGES

@<TRIPOS>ATOM
      1 C1         -3.2064   -6.8800   -3.8436 C.3       1 <0>        -0.1078
      2 C2         -2.7956   -5.4579   -4.1263 C.ar      1 <0>        -0.1483
      3 C3         -1.9349   -4.7996   -3.2563 C.ar      1 <0>         0.1478
      4 C4         -1.5490   -3.4887   -3.5059 C.ar      1 <0>        -0.1300
      5 C5         -2.0187   -2.8262   -4.6244 C.ar      1 <0>         0.1751
      6 C6         -2.8904   -3.4844   -5.5119 C.ar      1 <0>        -0.2165
      7 C7         -3.2715   -4.8146   -5.2529 C.ar      1 <0>         0.1656
      8 O1         -4.1072   -5.4608   -6.1032 O.3       1 <0>        -0.4840
      9 C8         -3.3932   -2.7929   -6.6971 C.2       1 <0>         0.4171
     10 O2         -2.8274   -2.9253   -7.7627 O.2       1 <0>        -0.4425
     11 C9         -4.6142   -1.9153   -6.5962 C.3       1 <0>        -0.1955
     12 O3         -1.6412   -1.5462   -4.8655 O.3       1 <0>        -0.4743
     13 C10        -0.6154   -2.7864   -2.5539 C.3       1 <0>        -0.0211
     14 C11         0.7897   -2.8416   -3.0958 C.ar      1 <0>        -0.1509
     15 C12         1.2888   -1.7736   -3.8292 C.ar      1 <0>         0.1811
     16 C13         2.5918   -1.8227   -4.3324 C.ar      1 <0>        -0.1634
     17 C14         3.3948   -2.9442   -4.0996 C.ar      1 <0>         0.1953
     18 C15         2.8878   -4.0178   -3.3597 C.ar      1 <0>        -0.2048
     19 C16         1.5764   -3.9538   -2.8546 C.ar      1 <0>         0.1880
     20 O4          1.0796   -4.9888   -2.1324 O.3       1 <0>        -0.4722
     21 C17         3.7220   -5.2034   -3.1074 C.2       1 <0>         0.4520
     22 O5          3.7768   -6.0966   -3.9339 O.2       1 <0>        -0.4460
     23 C18         4.4863   -5.3095   -1.8628 C.2       1 <0>        -0.2247
     24 C19         5.3294   -6.3459   -1.6753 C.2       1 <0>        -0.0105
     25 C20         6.0975   -6.4526   -0.4245 C.ar      1 <0>        -0.0826
     26 C21         5.9518   -5.4847    0.5746 C.ar      1 <0>        -0.0966
     27 C22         6.6746   -5.5919    1.7438 C.ar      1 <0>        -0.1228
     28 C23         7.5425   -6.6539    1.9303 C.ar      1 <0>        -0.1050
     29 C24         7.6926   -7.6155    0.9462 C.ar      1 <0>        -0.1234
     30 C25         6.9726   -7.5255   -0.2263 C.ar      1 <0>        -0.0928
     31 O6          4.6537   -2.9651   -4.6000 O.3       1 <0>        -0.2967
     32 C26         4.8680   -2.3104   -5.8511 C.3       1 <0>         0.1466
     33 C27         4.2506   -0.9368   -5.8407 C.2       1 <0>        -0.1789
     34 C28         3.1562   -0.7047   -5.1177 C.2       1 <0>        -0.0892
     35 C29         6.3717   -2.1862   -6.1050 C.3       1 <0>        -0.1381
     36 C30         4.2348   -3.1400   -6.9700 C.3       1 <0>        -0.1736
     37 O7          0.5129   -0.6846   -4.0574 O.3       1 <0>        -0.4789
     38 O8         -1.4689   -5.4413   -2.1555 O.3       1 <0>        -0.4726
     39 H1         -2.4969   -7.5628   -4.3111 H         1 <0>         0.0729
     40 H2         -3.2166   -7.0479   -2.7667 H         1 <0>         0.0768
     41 H3         -4.2026   -7.0578   -4.2485 H         1 <0>         0.0719
     42 H4         -5.0444   -5.3557   -5.8893 H         1 <0>         0.3949
     43 H5         -4.3192   -0.9186   -6.2681 H         1 <0>         0.1038
     44 H6         -5.0956   -1.8491   -7.5718 H         1 <0>         0.0884
     45 H7         -5.3109   -2.3436   -5.8756 H         1 <0>         0.0842
     46 H8         -0.8388   -1.4667   -5.3993 H         1 <0>         0.3987
     47 H9         -0.9223   -1.7461   -2.4452 H         1 <0>         0.0963
     48 H10        -0.6496   -3.2787   -1.5820 H         1 <0>         0.1017
     49 H11         0.7349   -5.7144   -2.6706 H         1 <0>         0.3839
     50 H12         4.3750   -4.5582   -1.0950 H         1 <0>         0.1341
     51 H13         5.4407   -7.0973   -2.4430 H         1 <0>         0.1344
     52 H14         5.2753   -4.6553    0.4304 H         1 <0>         0.1280
     53 H15         6.5635   -4.8452    2.5161 H         1 <0>         0.1269
     54 H16         8.1059   -6.7323    2.8483 H         1 <0>         0.1255
     55 H17         8.3720   -8.4410    1.0989 H         1 <0>         0.1273
     56 H18         7.0873   -8.2790   -0.9914 H         1 <0>         0.1283
     57 H19         4.6952   -0.1402   -6.4187 H         1 <0>         0.1375
     58 H20         2.6948    0.2717   -5.1056 H         1 <0>         0.1397
     59 H21         6.8190   -3.1799   -6.1314 H         1 <0>         0.0717
     60 H22         6.5390   -1.6869   -7.0593 H         1 <0>         0.0840
     61 H23         6.8283   -1.6035   -5.3050 H         1 <0>         0.0696
     62 H24         3.1646   -3.2386   -6.7880 H         1 <0>         0.0601
     63 H25         4.3964   -2.6432   -7.9266 H         1 <0>         0.0786
     64 H26         4.6922   -4.1291   -6.9924 H         1 <0>         0.0726
     65 H27         0.6450    0.0325   -3.4222 H         1 <0>         0.4011
     66 H28        -0.7068   -6.0116   -2.3259 H         1 <0>         0.3825
@<TRIPOS>BOND
     1    1    2 1
     2    1   39 1
     3    1   40 1
     4    1   41 1
     5    2    7 ar
     6    2    3 ar
     7    3    4 ar
     8    3   38 1
     9    4    5 ar
    10    4   13 1
    11    5    6 ar
    12    5   12 1
    13    6    7 ar
    14    6    9 1
    15    7    8 1
    16    8   42 1
    17    9   10 2
    18    9   11 1
    19   11   43 1
    20   11   44 1
    21   11   45 1
    22   12   46 1
    23   13   14 1
    24   13   47 1
    25   13   48 1
    26   14   19 ar
    27   14   15 ar
    28   15   16 ar
    29   15   37 1
    30   16   34 1
    31   16   17 ar
    32   17   18 ar
    33   17   31 1
    34   18   19 ar
    35   18   21 1
    36   19   20 1
    37   20   49 1
    38   21   22 2
    39   21   23 1
    40   23   24 2
    41   23   50 1
    42   24   25 1
    43   24   51 1
    44   25   30 ar
    45   25   26 ar
    46   26   27 ar
    47   26   52 1
    48   27   28 ar
    49   27   53 1
    50   28   29 ar
    51   28   54 1
    52   29   30 ar
    53   29   55 1
    54   30   56 1
    55   31   32 1
    56   32   33 1
    57   32   35 1
    58   32   36 1
    59   33   34 2
    60   33   57 1
    61   34   58 1
    62   35   59 1
    63   35   60 1
    64   35   61 1
    65   36   62 1
    66   36   63 1
    67   36   64 1
    68   37   65 1
    69   38   66 1
@<TRIPOS>MOLECULE
ZINC03874886
   65    68     0     0     0
SMALL
USER_CHARGES

@<TRIPOS>ATOM
      1 C1         -0.0864    1.5060    0.0434 C.3       1 <0>        -0.0970
      2 C2         -0.0725   -0.0009    0.0305 C.ar      1 <0>        -0.1650
      3 C3         -0.0639   -0.6830   -1.1802 C.ar      1 <0>         0.1792
      4 C4         -0.0511   -2.0719   -1.2053 C.ar      1 <0>        -0.1185
      5 C5         -0.0468   -2.7890   -0.0237 C.ar      1 <0>         0.1741
      6 C6         -0.0550   -2.1073    1.2076 C.ar      1 <0>        -0.2369
      7 C7         -0.0627   -0.6997    1.2225 C.ar      1 <0>         0.1503
      8 O1         -0.0659   -0.0317    2.4027 O.3       1 <0>        -0.4883
      9 C8         -0.0511   -2.8560    2.4627 C.2       1 <0>         0.4256
     10 O2          0.9991   -3.2291    2.9434 O.2       1 <0>        -0.4527
     11 C9         -1.3509   -3.1648    3.1599 C.3       1 <0>        -0.1939
     12 O3         -0.0352   -4.1448   -0.0507 O.3       1 <0>        -0.4876
     13 C10        -0.0424   -2.7991   -2.5252 C.3       1 <0>         0.0030
     14 C11         1.3813   -3.0285   -2.9629 C.ar      1 <0>        -0.2590
     15 C12         2.0262   -2.0757   -3.7399 C.ar      1 <0>         0.3377
     16 C13         3.3467   -2.2863   -4.1467 C.ar      1 <0>        -0.2992
     17 C14         4.0208   -3.4539   -3.7735 C.ar      1 <0>         0.2289
     18 C15         3.3671   -4.4109   -2.9901 C.ar      1 <0>        -0.3307
     19 C16         2.0396   -4.1846   -2.5832 C.ar      1 <0>         0.2078
     20 O4          1.4009   -5.1058   -1.8196 O.3       1 <0>        -0.5022
     21 C17         4.0647   -5.6434   -2.5904 C.2       1 <0>         0.4724
     22 O5          4.0785   -6.6052   -3.3379 O.2       1 <0>        -0.4699
     23 C18         4.7423   -5.7137   -1.2942 C.2       1 <0>        -0.1932
     24 C19         5.2903   -6.8754   -0.8816 C.2       1 <0>        -0.0510
     25 C20         5.9713   -6.9460    0.4211 C.ar      1 <0>        -0.0644
     26 C21         6.0475   -5.8125    1.2368 C.ar      1 <0>        -0.1010
     27 C22         6.6869   -5.8869    2.4562 C.ar      1 <0>        -0.1197
     28 C23         7.2523   -7.0792    2.8736 C.ar      1 <0>        -0.1169
     29 C24         7.1815   -8.2053    2.0719 C.ar      1 <0>        -0.1249
     30 C25         6.5405   -8.1486    0.8524 C.ar      1 <0>        -0.1026
     31 O6          5.3000   -3.6323   -4.1827 O.3       1 <0>        -0.3163
     32 C26         5.6535   -3.1063   -5.4627 C.3       1 <0>         0.1640
     33 C27         5.1735   -1.6854   -5.6004 C.2       1 <0>        -0.2753
     34 C28         4.0645   -1.2942   -4.9747 C.2       1 <0>        -0.0093
     35 C29         7.1749   -3.1428   -5.6208 C.3       1 <0>        -0.1320
     36 C30         5.0124   -3.9640   -6.5555 C.3       1 <0>        -0.1670
     37 O7          1.3756   -0.9425   -4.1042 O.3       1 <0>        -0.6788
     38 O8         -0.0685    0.0121   -2.3453 O.3       1 <0>        -0.4813
     39 H1          0.9379    1.8788    0.0436 H         1 <0>         0.0654
     40 H2         -0.6062    1.8722   -0.8420 H         1 <0>         0.0726
     41 H3         -0.6009    1.8570    0.9379 H         1 <0>         0.0615
     42 H4         -0.9501    0.1536    2.7474 H         1 <0>         0.3845
     43 H5         -1.6916   -4.1587    2.8699 H         1 <0>         0.0991
     44 H6         -1.2009   -3.1327    4.2391 H         1 <0>         0.0848
     45 H7         -2.1003   -2.4264    2.8752 H         1 <0>         0.0798
     46 H8          0.8515   -4.5305   -0.0572 H         1 <0>         0.4006
     47 H9         -0.5476   -3.7586   -2.4147 H         1 <0>         0.0667
     48 H10        -0.5606   -2.1997   -3.2737 H         1 <0>         0.0871
     49 H11         0.9263   -5.7775   -2.3282 H         1 <0>         0.3886
     50 H12         4.8035   -4.8355   -0.6685 H         1 <0>         0.1286
     51 H13         5.2291   -7.7536   -1.5073 H         1 <0>         0.1304
     52 H14         5.6071   -4.8813    0.9123 H         1 <0>         0.1293
     53 H15         6.7469   -5.0123    3.0871 H         1 <0>         0.1243
     54 H16         7.7518   -7.1312    3.8297 H         1 <0>         0.1208
     55 H17         7.6254   -9.1320    2.4044 H         1 <0>         0.1224
     56 H18         6.4822   -9.0292    0.2299 H         1 <0>         0.1252
     57 H19         5.7283   -0.9840   -6.2059 H         1 <0>         0.1127
     58 H20         3.7006   -0.2818   -5.0695 H         1 <0>         0.1205
     59 H21         7.5240   -4.1722   -5.5399 H         1 <0>         0.0603
     60 H22         7.4484   -2.7420   -6.5968 H         1 <0>         0.0722
     61 H23         7.6361   -2.5402   -4.8383 H         1 <0>         0.0620
     62 H24         3.9286   -3.9481   -6.4408 H         1 <0>         0.0618
     63 H25         5.2801   -3.5654   -7.5340 H         1 <0>         0.0645
     64 H26         5.3718   -4.9895   -6.4702 H         1 <0>         0.0584
     65 H27         0.8136    0.2220   -2.6816 H         1 <0>         0.4076
@<TRIPOS>BOND
     1    1    2 1
     2    1   39 1
     3    1   40 1
     4    1   41 1
     5    2    7 ar
     6    2    3 ar
     7    3    4 ar
     8    3   38 1
     9    4    5 ar
    10    4   13 1
    11    5    6 ar
    12    5   12 1
    13    6    7 ar
    14    6    9 1
    15    7    8 1
    16    8   42 1
    17    9   10 2
    18    9   11 1
    19   11   43 1
    20   11   44 1
    21   11   45 1
    22   12   46 1
    23   13   14 1
    24   13   47 1
    25   13   48 1
    26   14   19 ar
    27   14   15 ar
    28   15   16 ar
    29   15   37 1
    30   16   34 1
    31   16   17 ar
    32   17   18 ar
    33   17   31 1
    34   18   19 ar
    35   18   21 1
    36   19   20 1
    37   20   49 1
    38   21   22 2
    39   21   23 1
    40   23   24 2
    41   23   50 1
    42   24   25 1
    43   24   51 1
    44   25   30 ar
    45   25   26 ar
    46   26   27 ar
    47   26   52 1
    48   27   28 ar
    49   27   53 1
    50   28   29 ar
    51   28   54 1
    52   29   30 ar
    53   29   55 1
    54   30   56 1
    55   31   32 1
    56   32   33 1
    57   32   35 1
    58   32   36 1
    59   33   34 2
    60   33   57 1
    61   34   58 1
    62   35   59 1
    63   35   60 1
    64   35   61 1
    65   36   62 1
    66   36   63 1
    67   36   64 1
    68   38   65 1
@<TRIPOS>MOLECULE
ZINC03982130
   50    51     0     0     0
SMALL
USER_CHARGES

@<TRIPOS>ATOM
      1 C1         -0.0187    1.5258    0.0104 C.3       1 <0>        -0.2007
      2 C2          0.0021   -0.0041    0.0020 C.3       1 <0>         0.1097
      3 H1         -1.0205   -0.3814    0.0098 H         1 <0>         0.1090
      4 C3          0.7184   -0.4976   -1.2566 C.3       1 <0>        -0.2162
      5 C4          0.6959    0.5849   -2.3049 C.2       1 <0>        -0.0297
      6 C5          1.8379    1.1456   -2.7085 C.2       1 <0>        -0.2557
      7 C6          3.1091    0.7098   -2.1312 C.2       1 <0>         0.3442
      8 O1          3.1248   -0.1613   -1.2868 O.2       1 <0>        -0.3603
      9 C7          4.3996    1.3422   -2.5852 C.3       1 <0>         0.0392
     10 H2          4.5012    1.2261   -3.6642 H         1 <0>         0.0775
     11 C8          5.5762    0.6586   -1.8857 C.3       1 <0>         0.1198
     12 H3          6.4968    0.8754   -2.4275 H         1 <0>         0.0624
     13 C9          5.6920    1.1829   -0.4529 C.3       1 <0>        -0.1050
     14 C10         4.8754    0.2904    0.4837 C.3       1 <0>        -0.1550
     15 C11         4.6033    1.0363    1.7918 C.3       1 <0>        -0.0800
     16 C12         3.9792    0.0908    2.7858 C.ar      1 <0>         0.0458
     17 C13         4.6753   -0.2820    3.9123 C.ar      1 <0>        -0.1782
     18 C14         4.1043   -1.1570    4.8317 C.ar      1 <0>         0.1845
     19 C15         2.8292   -1.6605    4.6193 C.ar      1 <0>        -0.2633
     20 C16         2.1178   -1.2926    3.4909 C.ar      1 <0>         0.2090
     21 C17         2.6912   -0.4075    2.5638 C.ar      1 <0>        -0.1956
     22 C18         1.9400   -0.0053    1.3643 C.2       1 <0>         0.5058
     23 O2          2.4428    0.7524    0.5579 O.2       1 <0>        -0.4686
     24 O3          0.6934   -0.4775    1.1595 O.3       1 <0>        -0.3323
     25 O4          0.8714   -1.7849    3.2811 O.3       1 <0>        -0.4782
     26 O5          4.7980   -1.5195    5.9403 O.3       1 <0>        -0.3085
     27 C19         4.1536   -2.4206    6.8430 C.3       1 <0>         0.0229
     28 O6          5.3599   -0.7537   -1.8602 O.3       1 <0>        -0.5347
     29 O7          4.3911    2.7323   -2.2543 O.3       1 <0>        -0.5349
     30 H4          1.0039    1.9031    0.0027 H         1 <0>         0.0946
     31 H5         -0.5459    1.8868   -0.8726 H         1 <0>         0.0679
     32 H6         -0.5289    1.8773    0.9072 H         1 <0>         0.0571
     33 H7          1.7513   -0.7459   -1.0129 H         1 <0>         0.1710
     34 H8          0.2121   -1.3840   -1.6387 H         1 <0>         0.0755
     35 H9         -0.2438    0.9071   -2.7287 H         1 <0>         0.1170
     36 H10         1.8233    1.9196   -3.4617 H         1 <0>         0.1256
     37 H11         6.7377    1.1718   -0.1454 H         1 <0>         0.0549
     38 H12         5.3105    2.2029   -0.4073 H         1 <0>         0.0882
     39 H13         3.9287    0.0345    0.0078 H         1 <0>         0.1651
     40 H14         5.4338   -0.6216    0.6949 H         1 <0>         0.0462
     41 H15         5.5413    1.4194    2.1938 H         1 <0>         0.0611
     42 H16         3.9226    1.8662    1.6024 H         1 <0>         0.0886
     43 H17         5.6687    0.1056    4.0837 H         1 <0>         0.1414
     44 H18         2.3915   -2.3405    5.3352 H         1 <0>         0.1416
     45 H19         0.1656   -1.2435    3.6604 H         1 <0>         0.3979
     46 H20         4.8154   -2.6276    7.6839 H         1 <0>         0.1051
     47 H21         3.2309   -1.9702    7.2090 H         1 <0>         0.0595
     48 H22         3.9229   -3.3512    6.3245 H         1 <0>         0.0604
     49 H23         5.2766   -1.1548   -2.7361 H         1 <0>         0.3677
     50 H24         3.6701    3.2297   -2.6639 H         1 <0>         0.3811
@<TRIPOS>BOND
     1    1    2 1
     2    1   30 1
     3    1   31 1
     4    1   32 1
     5    2    3 1
     6    2   24 1
     7    2    4 1
     8    4    5 1
     9    4   33 1
    10    4   34 1
    11    5    6 2
    12    5   35 1
    13    6    7 1
    14    6   36 1
    15    7    8 2
    16    7    9 1
    17    9   10 1
    18    9   11 1
    19    9   29 1
    20   11   12 1
    21   11   13 1
    22   11   28 1
    23   13   14 1
    24   13   37 1
    25   13   38 1
    26   14   15 1
    27   14   39 1
    28   14   40 1
    29   15   16 1
    30   15   41 1
    31   15   42 1
    32   16   21 ar
    33   16   17 ar
    34   17   18 ar
    35   17   43 1
    36   18   19 ar
    37   18   26 1
    38   19   20 ar
    39   19   44 1
    40   20   21 ar
    41   20   25 1
    42   21   22 1
    43   22   23 2
    44   22   24 1
    45   25   45 1
    46   26   27 1
    47   27   46 1
    48   27   47 1
    49   27   48 1
    50   28   49 1
    51   29   50 1
