@<TRIPOS>MOLECULE
ZINC36269777
   83    88     0     0     0
SMALL
USER_CHARGES

@<TRIPOS>ATOM
      1 C1          0.7340    0.6110    2.2920 C.ar      1 <0>        -0.1181
      2 C2          1.9434    1.2783    2.3544 C.ar      1 <0>        -0.1189
      3 C3          3.1170    0.5996    2.0961 C.ar      1 <0>        -0.1117
      4 C4          3.0909   -0.7499    1.7752 C.ar      1 <0>        -0.1181
      5 C5          1.8853   -1.4154    1.7166 C.ar      1 <0>        -0.0796
      6 C6          0.7064   -0.7318    1.9736 C.ar      1 <0>        -0.1155
      7 C7          1.8074   -2.8832    1.3837 C.3       1 <0>        -0.1064
      8 C8          3.1164   -3.3430    0.7413 C.3       1 <0>         0.0748
      9 H1          3.2123   -2.9016   -0.2507 H         1 <0>         0.1037
     10 N1          4.2342   -2.9001    1.5896 N.3       1 <0>        -0.6507
     11 C9          4.3973   -1.4459    1.4962 C.3       1 <0>         0.0974
     12 C10         3.1250   -4.8458    0.6296 C.2       1 <0>         0.5267
     13 O1          3.7295   -5.5110    1.4438 O.2       1 <0>        -0.5023
     14 N2          2.4609   -5.4507   -0.3752 N.am      1 <0>        -0.7185
     15 C11         2.4692   -6.9116   -0.4838 C.3       1 <0>         0.1371
     16 H2          2.4697   -7.3502    0.5141 H         1 <0>         0.1135
     17 C12         3.7225   -7.3598   -1.2384 C.3       1 <0>        -0.0856
     18 C13         4.9487   -6.9455   -0.4664 C.ar      1 <0>        -0.0648
     19 C14         5.5259   -5.7108   -0.6971 C.ar      1 <0>        -0.0936
     20 C15         6.6505   -5.3303    0.0105 C.ar      1 <0>        -0.0871
     21 C16         7.1985   -6.1854    0.9500 C.ar      1 <0>        -0.0276
     22 C17         6.6204   -7.4211    1.1804 C.ar      1 <0>        -0.1026
     23 C18         5.4925   -7.7981    0.4761 C.ar      1 <0>        -0.0922
     24 Cl1         8.6114   -5.7084    1.8388 Cl        1 <0>        -0.0782
     25 C19         1.2428   -7.3668   -1.2319 C.2       1 <0>         0.5164
     26 O2          0.6842   -6.6104   -1.9980 O.2       1 <0>        -0.5338
     27 N3          0.7666   -8.6144   -1.0498 N.am      1 <0>        -0.6055
     28 C20         1.3630   -9.5038   -0.0439 C.3       1 <0>         0.1062
     29 C21         0.2541  -10.0170    0.8801 C.3       1 <0>        -0.1347
     30 C22        -0.8453  -10.6684    0.0380 C.3       1 <0>        -0.0605
     31 C23        -1.4484   -9.6285   -0.9091 C.3       1 <0>        -0.1233
     32 C24        -0.3627   -9.1088   -1.8491 C.3       1 <0>         0.1068
     33 C25        -0.2490  -11.8165   -0.7787 C.3       1 <0>         0.1261
     34 N4          0.4502  -12.7412    0.1169 N.pl3     1 <0>        -0.3670
     35 C26         0.2458  -14.0652    0.2275 C.2       1 <0>         0.2539
     36 N5          1.0678  -14.5287    1.1337 N.2       1 <0>        -0.5400
     37 C27         1.8094  -13.5351    1.6216 C.2       1 <0>         0.1971
     38 N6          1.4717  -12.4215    1.0263 N.2       1 <0>        -0.3102
     39 C28        -1.9383  -11.2128    0.9598 C.3       1 <0>        -0.0740
     40 C29        -1.3037  -12.0905    2.0405 C.3       1 <0>        -0.1304
     41 C30        -2.3967  -12.6350    2.9623 C.3       1 <0>        -0.1189
     42 C31        -3.3854  -13.4681    2.1443 C.3       1 <0>        -0.1184
     43 C32        -4.0201  -12.5905    1.0636 C.3       1 <0>        -0.1186
     44 C33        -2.9271  -12.0460    0.1418 C.3       1 <0>        -0.1186
     45 H3         -0.1863    1.1381    2.4963 H         1 <0>         0.1231
     46 H4          1.9695    2.3286    2.6045 H         1 <0>         0.1233
     47 H5          4.0610    1.1220    2.1437 H         1 <0>         0.1241
     48 H6         -0.2383   -1.2528    1.9242 H         1 <0>         0.1211
     49 H7          1.6327   -3.4526    2.2966 H         1 <0>         0.0831
     50 H8          0.9843   -3.0536    0.6897 H         1 <0>         0.0852
     51 H9          4.0977   -3.1878    2.5470 H         1 <0>         0.3542
     52 H10         4.7376   -1.1851    0.4941 H         1 <0>         0.0888
     53 H11         5.1417   -1.1194    2.2224 H         1 <0>         0.0927
     54 H12         1.9773   -4.9187   -1.0264 H         1 <0>         0.4083
     55 H13         3.7118   -8.4441   -1.3488 H         1 <0>         0.0862
     56 H14         3.7391   -6.8944   -2.2239 H         1 <0>         0.0836
     57 H15         5.0982   -5.0435   -1.4307 H         1 <0>         0.1187
     58 H16         7.1016   -4.3657   -0.1700 H         1 <0>         0.1269
     59 H17         7.0479   -8.0892    1.9134 H         1 <0>         0.1270
     60 H18         5.0383   -8.7607    0.6593 H         1 <0>         0.1231
     61 H19         1.8440  -10.3465   -0.5405 H         1 <0>         0.0772
     62 H20         2.0996   -8.9525    0.5406 H         1 <0>         0.0875
     63 H21         0.6671  -10.7522    1.5707 H         1 <0>         0.1175
     64 H22        -0.1649   -9.1832    1.4434 H         1 <0>         0.0637
     65 H23        -2.2471  -10.0872   -1.4920 H         1 <0>         0.0836
     66 H24        -1.8514   -8.7984   -0.3289 H         1 <0>         0.0775
     67 H25        -0.7644   -8.2969   -2.4554 H         1 <0>         0.0980
     68 H26        -0.0256   -9.9185   -2.4962 H         1 <0>         0.0695
     69 H27        -1.0479  -12.3470   -1.2969 H         1 <0>         0.1064
     70 H28         0.4544  -11.4161   -1.5088 H         1 <0>         0.0916
     71 H29        -0.4723  -14.6451   -0.3334 H         1 <0>         0.2126
     72 H30         2.5694  -13.6345    2.3826 H         1 <0>         0.2143
     73 H31        -2.4648  -10.3819    1.4294 H         1 <0>         0.0739
     74 H32        -0.7772  -12.9214    1.5709 H         1 <0>         0.0755
     75 H33        -0.5993  -11.4969    2.6232 H         1 <0>         0.0627
     76 H34        -1.9445  -13.2602    3.7322 H         1 <0>         0.0590
     77 H35        -2.9231  -11.8041    3.4319 H         1 <0>         0.0576
     78 H36        -2.8589  -14.2991    1.6747 H         1 <0>         0.0595
     79 H37        -4.1641  -13.8560    2.8010 H         1 <0>         0.0602
     80 H38        -4.7245  -13.1841    0.4808 H         1 <0>         0.0623
     81 H39        -4.5466  -11.7596    1.5332 H         1 <0>         0.0614
     82 H40        -3.3792  -11.4208   -0.6281 H         1 <0>         0.0661
     83 H41        -2.4006  -12.8769   -0.3278 H         1 <0>         0.0589
@<TRIPOS>BOND
     1    1    6 ar
     2    1    2 ar
     3    1   45 1
     4    2    3 ar
     5    2   46 1
     6    3    4 ar
     7    3   47 1
     8    4   11 1
     9    4    5 ar
    10    5    6 ar
    11    5    7 1
    12    6   48 1
    13    7    8 1
    14    7   49 1
    15    7   50 1
    16    8    9 1
    17    8   10 1
    18    8   12 1
    19   10   11 1
    20   10   51 1
    21   11   52 1
    22   11   53 1
    23   12   13 2
    24   12   14 am
    25   14   15 1
    26   14   54 1
    27   15   16 1
    28   15   17 1
    29   15   25 1
    30   17   18 1
    31   17   55 1
    32   17   56 1
    33   18   23 ar
    34   18   19 ar
    35   19   20 ar
    36   19   57 1
    37   20   21 ar
    38   20   58 1
    39   21   22 ar
    40   21   24 1
    41   22   23 ar
    42   22   59 1
    43   23   60 1
    44   25   26 2
    45   25   27 am
    46   27   32 1
    47   27   28 1
    48   28   29 1
    49   28   61 1
    50   28   62 1
    51   29   30 1
    52   29   63 1
    53   29   64 1
    54   30   31 1
    55   30   33 1
    56   30   39 1
    57   31   32 1
    58   31   65 1
    59   31   66 1
    60   32   67 1
    61   32   68 1
    62   33   34 1
    63   33   69 1
    64   33   70 1
    65   34   38 1
    66   34   35 1
    67   35   36 2
    68   35   71 1
    69   36   37 1
    70   37   38 2
    71   37   72 1
    72   39   44 1
    73   39   40 1
    74   39   73 1
    75   40   41 1
    76   40   74 1
    77   40   75 1
    78   41   42 1
    79   41   76 1
    80   41   77 1
    81   42   43 1
    82   42   78 1
    83   42   79 1
    84   43   44 1
    85   43   80 1
    86   43   81 1
    87   44   82 1
    88   44   83 1
