@<TRIPOS>MOLECULE
ZINC00603684
   58    61     0     0     0
SMALL
USER_CHARGES
N-[6-(dimethylaminomethyl)tetralin-2-yl]-4-(4-fluorophenyl)-benzamide
@<TRIPOS>ATOM
      1 C1        -11.7949   -3.6816   -1.1065 C.3       1 <0>        -0.0436
      2 C2        -10.8285   -2.4052   -2.9230 C.3       1 <0>        -0.0463
      3 C3        -10.8862   -1.4768   -0.6875 C.3       1 <0>        -0.0028
      4 C4         -9.5996   -0.6584   -0.8137 C.3       1 <0>        -0.1167
      5 H1         -9.3810   -0.4784   -1.8663 H         1 <0>         0.0987
      6 C5         -9.7655    0.6801   -0.0846 C.3       1 <0>        -0.1094
      7 C6         -8.5699    1.5664   -0.4273 C.3       1 <0>        -0.0818
      8 C7         -7.2783    0.8279   -0.1910 C.ar      1 <0>        -0.0543
      9 C8         -6.1168    1.5796   -0.0793 C.ar      1 <0>        -0.1472
     10 C9         -4.8947    0.9591    0.1255 C.ar      1 <0>         0.1642
     11 C10        -4.8365   -0.4250    0.2304 C.ar      1 <0>        -0.1185
     12 C11        -5.9932   -1.1667    0.1268 C.ar      1 <0>        -0.0944
     13 C12        -7.2180   -0.5437   -0.0815 C.ar      1 <0>        -0.1088
     14 C13        -8.4417   -1.4180   -0.1699 C.3       1 <0>        -0.0808
     15 N1         -3.7276    1.7221    0.2317 N.am      1 <0>        -0.6736
     16 C14        -2.7259    1.3132    1.0354 C.2       1 <0>         0.5645
     17 O1         -2.8720    0.3312    1.7372 O.2       1 <0>        -0.5120
     18 C15        -1.4511    2.0579    1.0636 C.ar      1 <0>        -0.1465
     19 C16        -0.4123    1.6344    1.8967 C.ar      1 <0>        -0.0471
     20 C17         0.7774    2.3263    1.9183 C.ar      1 <0>        -0.1192
     21 C18         0.9445    3.4532    1.1127 C.ar      1 <0>        -0.0035
     22 C19        -0.0939    3.8798    0.2841 C.ar      1 <0>        -0.1196
     23 C20        -1.2844    3.1894    0.2608 C.ar      1 <0>        -0.0783
     24 C21         2.2263    4.1975    1.1368 C.ar      1 <0>        -0.0736
     25 C22         3.2637    3.7767    1.9679 C.ar      1 <0>        -0.0736
     26 C23         4.4560    4.4701    1.9841 C.ar      1 <0>        -0.1512
     27 C24         4.6204    5.5889    1.1830 C.ar      1 <0>         0.1107
     28 C25         3.5903    6.0137    0.3590 C.ar      1 <0>        -0.1519
     29 C26         2.3960    5.3240    0.3329 C.ar      1 <0>        -0.0743
     30 F1          5.7882    6.2677    1.2057 F         1 <0>        -0.1338
     31 H2        -12.7804   -3.2863   -1.3529 H         1 <0>         0.1238
     32 H3        -11.6303   -4.6119   -1.6502 H         1 <0>         0.1224
     33 H4        -11.7374   -3.8720   -0.0348 H         1 <0>         0.1218
     34 H5        -10.0129   -1.7334   -3.1901 H         1 <0>         0.1213
     35 H6        -10.7374   -3.3311   -3.4908 H         1 <0>         0.1226
     36 H7        -11.7816   -1.9295   -3.1542 H         1 <0>         0.1244
     37 H8        -11.0495   -1.7381    0.3580 H         1 <0>         0.1313
     38 H9        -11.7285   -0.8879   -1.0506 H         1 <0>         0.1345
     39 H10        -9.8001    0.5102    0.9916 H         1 <0>         0.0799
     40 H11       -10.6865    1.1642   -0.4095 H         1 <0>         0.0808
     41 H12        -8.5932    2.4590    0.1979 H         1 <0>         0.0869
     42 H13        -8.6292    1.8606   -1.4752 H         1 <0>         0.0824
     43 H14        -6.1652    2.6557   -0.1571 H         1 <0>         0.1288
     44 H15        -3.8890   -0.9174    0.3922 H         1 <0>         0.1395
     45 H16        -5.9475   -2.2426    0.2085 H         1 <0>         0.1256
     46 H17        -8.2118   -2.2985   -0.7698 H         1 <0>         0.0681
     47 H18        -8.7317   -1.7327    0.8326 H         1 <0>         0.0875
     48 H19        -3.6389    2.5456   -0.2731 H         1 <0>         0.4129
     49 H20        -0.5412    0.7620    2.5201 H         1 <0>         0.1414
     50 H21         1.5821    1.9966    2.5588 H         1 <0>         0.1378
     51 H22         0.0368    4.7517   -0.3396 H         1 <0>         0.1363
     52 H23        -2.0880    3.5198   -0.3807 H         1 <0>         0.1276
     53 H24         3.1352    2.9071    2.5953 H         1 <0>         0.1386
     54 H25         5.2613    4.1431    2.6252 H         1 <0>         0.1420
     55 H26         3.7227    6.8863   -0.2634 H         1 <0>         0.1415
     56 H27         1.5936    5.6562   -0.3091 H         1 <0>         0.1376
     57 N2        -10.7406   -2.7156   -1.4805 N.4       1 <0>        -0.4009
     58 H28        -9.8225   -3.1313   -1.2841 H         1 <0>         0.4284
@<TRIPOS>BOND
     1    1   31 1
     2    1   32 1
     3    1   33 1
     4    1   57 1
     5    2   34 1
     6    2   35 1
     7    2   36 1
     8    2   57 1
     9    3    4 1
    10    3   37 1
    11    3   38 1
    12    3   57 1
    13    4    5 1
    14    4   14 1
    15    4    6 1
    16    6    7 1
    17    6   39 1
    18    6   40 1
    19    7    8 1
    20    7   41 1
    21    7   42 1
    22    8   13 ar
    23    8    9 ar
    24    9   10 ar
    25    9   43 1
    26   10   11 ar
    27   10   15 1
    28   11   12 ar
    29   11   44 1
    30   12   13 ar
    31   12   45 1
    32   13   14 1
    33   14   46 1
    34   14   47 1
    35   15   16 am
    36   15   48 1
    37   16   17 2
    38   16   18 1
    39   18   23 ar
    40   18   19 ar
    41   19   20 ar
    42   19   49 1
    43   20   21 ar
    44   20   50 1
    45   21   22 ar
    46   21   24 1
    47   22   23 ar
    48   22   51 1
    49   23   52 1
    50   24   29 ar
    51   24   25 ar
    52   25   26 ar
    53   25   53 1
    54   26   27 ar
    55   26   54 1
    56   27   28 ar
    57   27   30 1
    58   28   29 ar
    59   28   55 1
    60   29   56 1
    61   57   58 1
@<TRIPOS>MOLECULE
ZINC03972273
   58    61     0     0     0
SMALL
USER_CHARGES

@<TRIPOS>ATOM
      1 C1         -1.9664    1.2095    0.6391 C.3       1 <0>        -0.0456
      2 C2          0.4408    1.1351    0.3888 C.3       1 <0>        -0.0438
      3 C3         -0.6282    3.1409    1.2234 C.3       1 <0>        -0.0031
      4 C4         -1.4662    3.6397    2.4023 C.3       1 <0>        -0.1166
      5 H1         -2.4794    3.2451    2.3254 H         1 <0>         0.0985
      6 C5         -1.5063    5.1724    2.3956 C.3       1 <0>        -0.1093
      7 C6         -2.5354    5.6316    3.4264 C.3       1 <0>        -0.0819
      8 C7         -2.2841    4.9709    4.7567 C.ar      1 <0>        -0.0540
      9 C8         -2.8729    5.5365    5.8791 C.ar      1 <0>        -0.1472
     10 C9         -2.6904    4.9692    7.1303 C.ar      1 <0>         0.1644
     11 C10        -1.9113    3.8263    7.2588 C.ar      1 <0>        -0.1183
     12 C11        -1.3262    3.2699    6.1423 C.ar      1 <0>        -0.0943
     13 C12        -1.5084    3.8404    4.8881 C.ar      1 <0>        -0.1089
     14 C13        -0.8335    3.1801    3.7141 C.3       1 <0>        -0.0809
     15 N1         -3.2867    5.5443    8.2570 N.am      1 <0>        -0.6738
     16 C14        -2.6653    5.4869    9.4515 C.2       1 <0>         0.5646
     17 O1         -1.5460    5.0192    9.5327 O.2       1 <0>        -0.5120
     18 C15        -3.3439    5.9922   10.6618 C.ar      1 <0>        -0.1465
     19 C16        -4.6281    6.5351   10.5682 C.ar      1 <0>        -0.0783
     20 C17        -5.2619    7.0005   11.6979 C.ar      1 <0>        -0.1196
     21 C18        -4.6181    6.9409   12.9343 C.ar      1 <0>        -0.0035
     22 C19        -3.3336    6.4043   13.0281 C.ar      1 <0>        -0.1192
     23 C20        -2.7001    5.9330   11.9006 C.ar      1 <0>        -0.0472
     24 C21        -5.2992    7.4486   14.1492 C.ar      1 <0>        -0.0736
     25 C22        -4.6604    7.3854   15.3870 C.ar      1 <0>        -0.0736
     26 C23        -5.2965    7.8626   16.5141 C.ar      1 <0>        -0.1511
     27 C24        -6.5721    8.3957   16.4191 C.ar      1 <0>         0.1106
     28 C25        -7.2128    8.4561   15.1918 C.ar      1 <0>        -0.1519
     29 C26        -6.5828    7.9854   14.0586 C.ar      1 <0>        -0.0743
     30 F1         -7.1932    8.8575   17.5265 F         1 <0>        -0.1339
     31 H2         -1.9770    0.1199    0.6123 H         1 <0>         0.1226
     32 H3         -2.1033    1.5990   -0.3697 H         1 <0>         0.1244
     33 H4         -2.7742    1.5652    1.2786 H         1 <0>         0.1211
     34 H5          0.3070    1.3943   -0.6614 H         1 <0>         0.1240
     35 H6          1.3763    1.5606    0.7518 H         1 <0>         0.1220
     36 H7          0.4698    0.0506    0.4945 H         1 <0>         0.1222
     37 H8          0.4050    3.4647    1.3493 H         1 <0>         0.1315
     38 H9         -1.0267    3.5505    0.2952 H         1 <0>         0.1346
     39 H10        -0.5241    5.5664    2.6565 H         1 <0>         0.0799
     40 H11        -1.7940    5.5278    1.4061 H         1 <0>         0.0808
     41 H12        -3.5345    5.3698    3.0781 H         1 <0>         0.0825
     42 H13        -2.4678    6.7132    3.5438 H         1 <0>         0.0870
     43 H14        -3.4776    6.4255    5.7767 H         1 <0>         0.1289
     44 H15        -1.7645    3.3761    8.2295 H         1 <0>         0.1390
     45 H16        -0.7203    2.3814    6.2426 H         1 <0>         0.1256
     46 H17        -0.9353    2.0985    3.8027 H         1 <0>         0.0680
     47 H18         0.2245    3.4425    3.7142 H         1 <0>         0.0876
     48 H19        -4.1476    5.9844    8.1787 H         1 <0>         0.4129
     49 H20        -5.1248    6.5854    9.6105 H         1 <0>         0.1276
     50 H21        -6.2561    7.4164   11.6265 H         1 <0>         0.1363
     51 H22        -2.8364    6.3583   13.9857 H         1 <0>         0.1378
     52 H23        -1.7057    5.5180   11.9733 H         1 <0>         0.1414
     53 H24        -3.6678    6.9667   15.4626 H         1 <0>         0.1386
     54 H25        -4.8013    7.8169   17.4728 H         1 <0>         0.1420
     55 H26        -8.2071    8.8720   15.1226 H         1 <0>         0.1415
     56 H27        -7.0832    8.0322   13.1027 H         1 <0>         0.1376
     57 N2         -0.6763    1.6639    1.1995 N.4       1 <0>        -0.4012
     58 H28        -0.5874    1.3117    2.1598 H         1 <0>         0.4282
@<TRIPOS>BOND
     1    1   31 1
     2    1   32 1
     3    1   33 1
     4    1   57 1
     5    2   34 1
     6    2   35 1
     7    2   36 1
     8    2   57 1
     9    3    4 1
    10    3   37 1
    11    3   38 1
    12    3   57 1
    13    4    5 1
    14    4   14 1
    15    4    6 1
    16    6    7 1
    17    6   39 1
    18    6   40 1
    19    7    8 1
    20    7   41 1
    21    7   42 1
    22    8   13 ar
    23    8    9 ar
    24    9   10 ar
    25    9   43 1
    26   10   11 ar
    27   10   15 1
    28   11   12 ar
    29   11   44 1
    30   12   13 ar
    31   12   45 1
    32   13   14 1
    33   14   46 1
    34   14   47 1
    35   15   16 am
    36   15   48 1
    37   16   17 2
    38   16   18 1
    39   18   23 ar
    40   18   19 ar
    41   19   20 ar
    42   19   49 1
    43   20   21 ar
    44   20   50 1
    45   21   22 ar
    46   21   24 1
    47   22   23 ar
    48   22   51 1
    49   23   52 1
    50   24   29 ar
    51   24   25 ar
    52   25   26 ar
    53   25   53 1
    54   26   27 ar
    55   26   54 1
    56   27   28 ar
    57   27   30 1
    58   28   29 ar
    59   28   55 1
    60   29   56 1
    61   57   58 1
@<TRIPOS>MOLECULE
ZINC03961870
   57    60     0     0     0
SMALL
USER_CHARGES

@<TRIPOS>ATOM
      1 C1         -1.2666    0.4432    0.5823 C.3       1 <0>         0.1083
      2 N1          0.0021   -0.0041    0.0020 N.pl3     1 <0>        -0.6766
      3 C2          1.2692    0.3682    0.6361 C.3       1 <0>         0.1068
      4 C3          0.0035   -0.7752   -1.1405 C.ar      1 <0>         0.6033
      5 C4          0.0431   -0.1734   -2.4234 C.ar      1 <0>        -0.1837
      6 C5          0.0828    1.2149   -2.5907 C.ar      1 <0>        -0.0158
      7 C6          0.1203    1.7396   -3.8494 C.ar      1 <0>        -0.1225
      8 C7          0.1192    0.9124   -4.9687 C.ar      1 <0>        -0.0114
      9 C8          0.0806   -0.4443   -4.8394 C.ar      1 <0>        -0.1535
     10 C9          0.0425   -1.0168   -3.5607 C.ar      1 <0>         0.1913
     11 N2          0.0047   -2.3454   -3.3797 N.ar      1 <0>        -0.5649
     12 C10        -0.0317   -2.8528   -2.1625 C.ar      1 <0>         0.6628
     13 N3         -0.0266   -2.0975   -1.0674 N.ar      1 <0>        -0.5488
     14 N4         -0.0709   -4.2279   -2.0188 N.pl3     1 <0>        -0.6587
     15 C11        -0.0714   -5.0885   -3.2044 C.3       1 <0>         0.1192
     16 C12         1.3687   -5.3246   -3.6639 C.3       1 <0>        -0.1369
     17 C13         1.3681   -6.2234   -4.9021 C.3       1 <0>        -0.1270
     18 C14         0.7161   -7.5642   -4.5586 C.3       1 <0>         0.1419
     19 C15        -0.7241   -7.3282   -4.0990 C.3       1 <0>        -0.1296
     20 C16        -0.7234   -6.4293   -2.8609 C.3       1 <0>        -0.1228
     21 N5          0.7155   -8.4249   -5.7441 N.am      1 <0>        -0.7247
     22 C17         0.6773   -9.7648   -5.6041 C.2       1 <0>         0.5675
     23 O1          0.6433  -10.2593   -4.4940 O.2       1 <0>        -0.5209
     24 C18         0.6767  -10.6327   -6.7996 C.ar      1 <0>        -0.1256
     25 C19         0.7214  -10.0673   -8.0757 C.ar      1 <0>        -0.0674
     26 C20         0.7206  -10.8807   -9.1887 C.ar      1 <0>        -0.1311
     27 C21         0.6756  -12.2585   -9.0439 C.ar      1 <0>         0.1011
     28 C22         0.6305  -12.8270   -7.7781 C.ar      1 <0>         0.0668
     29 C23         0.6371  -12.0212   -6.6571 C.ar      1 <0>        -0.0647
     30 F1          0.5858  -14.1705   -7.6431 F         1 <0>        -0.1178
     31 F2          0.6750  -13.0508  -10.1382 F         1 <0>        -0.1167
     32 H1         -1.4995    1.4441    0.2188 H         1 <0>         0.0620
     33 H2         -2.0615   -0.2433    0.2908 H         1 <0>         0.0650
     34 H3         -1.1827    0.4616    1.6689 H         1 <0>         0.0832
     35 H4          1.5461   -0.3907    1.3678 H         1 <0>         0.0586
     36 H5          2.0476    0.4419   -0.1234 H         1 <0>         0.0644
     37 H6          1.1566    1.3305    1.1355 H         1 <0>         0.0887
     38 H7          0.0833    1.8666   -1.7295 H         1 <0>         0.1585
     39 H8          0.1509    2.8113   -3.9790 H         1 <0>         0.1545
     40 H9          0.1489    1.3520   -5.9548 H         1 <0>         0.1575
     41 H10         0.0799   -1.0739   -5.7168 H         1 <0>         0.1562
     42 H11        -0.0980   -4.6224   -1.1331 H         1 <0>         0.4436
     43 H12        -0.6334   -4.6055   -4.0038 H         1 <0>         0.0923
     44 H13         1.8332   -4.3693   -3.9087 H         1 <0>         0.0712
     45 H14         1.9306   -5.8076   -2.8646 H         1 <0>         0.0923
     46 H15         0.8061   -5.7404   -5.7015 H         1 <0>         0.0763
     47 H16         2.3940   -6.3916   -5.2295 H         1 <0>         0.0894
     48 H17         1.2780   -8.0473   -3.7592 H         1 <0>         0.0988
     49 H18        -1.2860   -6.8451   -4.8984 H         1 <0>         0.0736
     50 H19        -1.1886   -8.2834   -3.8543 H         1 <0>         0.0893
     51 H20        -0.1615   -6.9124   -2.0615 H         1 <0>         0.0888
     52 H21        -1.7494   -6.2612   -2.5335 H         1 <0>         0.0871
     53 H22         0.7426   -8.0304   -6.6298 H         1 <0>         0.4025
     54 H23         0.7562   -8.9940   -8.1906 H         1 <0>         0.1425
     55 H24         0.7549  -10.4435  -10.1756 H         1 <0>         0.1568
     56 H25         0.6073  -12.4635   -5.6724 H         1 <0>         0.1616
     57 H26         0.0037   -2.9368   -4.1486 H         1 <0>         0.4377
@<TRIPOS>BOND
     1    1    2 1
     2    1   32 1
     3    1   33 1
     4    1   34 1
     5    2    3 1
     6    2    4 1
     7    3   35 1
     8    3   36 1
     9    3   37 1
    10    4   13 ar
    11    4    5 ar
    12    5   10 ar
    13    5    6 ar
    14    6    7 ar
    15    6   38 1
    16    7    8 ar
    17    7   39 1
    18    8    9 ar
    19    8   40 1
    20    9   10 ar
    21    9   41 1
    22   10   11 ar
    23   11   12 ar
    24   11   57 1
    25   12   13 ar
    26   12   14 1
    27   14   15 1
    28   14   42 1
    29   15   20 1
    30   15   16 1
    31   15   43 1
    32   16   17 1
    33   16   44 1
    34   16   45 1
    35   17   18 1
    36   17   46 1
    37   17   47 1
    38   18   19 1
    39   18   21 1
    40   18   48 1
    41   19   20 1
    42   19   49 1
    43   19   50 1
    44   20   51 1
    45   20   52 1
    46   21   22 am
    47   21   53 1
    48   22   23 2
    49   22   24 1
    50   24   29 ar
    51   24   25 ar
    52   25   26 ar
    53   25   54 1
    54   26   27 ar
    55   26   55 1
    56   27   28 ar
    57   27   31 1
    58   28   29 ar
    59   28   30 1
    60   29   56 1
@<TRIPOS>MOLECULE
ZINC13581280
   62    65     0     0     0
SMALL
USER_CHARGES
(2R)-2-(2,4-dichlorophenoxy)-N-[2-(4-ethylpiperazin-1-yl)-4-methyl-6-quinolyl]propanamide
@<TRIPOS>ATOM
      1 C1          4.2634  -17.0267    2.5220 C.3       1 <0>        -0.1548
      2 C2          4.0149  -16.0338    3.6592 C.3       1 <0>         0.0496
      3 N1          4.0422  -14.6644    3.1283 N.3       1 <0>        -0.5422
      4 C3          3.5760  -13.7000    4.1345 C.3       1 <0>         0.0549
      5 C4          3.5440  -12.2994    3.5184 C.3       1 <0>         0.0160
      6 N2          4.8877  -11.9473    3.0386 N.pl3     1 <0>        -0.4719
      7 C5          5.3539  -12.9116    2.0324 C.3       1 <0>         0.0552
      8 C6          5.3859  -14.3123    2.6484 C.3       1 <0>         0.0436
      9 C7          4.9135  -10.6537    2.5371 C.ar      1 <0>         0.4269
     10 C8          6.1161  -10.1394    2.0314 C.ar      1 <0>        -0.1893
     11 C9          6.1563   -8.8711    1.5358 C.ar      1 <0>         0.0872
     12 C10         4.9690   -8.1100    1.5496 C.ar      1 <0>        -0.0778
     13 C11         4.9419   -6.7979    1.0540 C.ar      1 <0>        -0.1018
     14 C12         3.7628   -6.0857    1.0840 C.ar      1 <0>         0.1794
     15 C13         2.5992   -6.6587    1.6081 C.ar      1 <0>        -0.0450
     16 C14         2.6012   -7.9306    2.0893 C.ar      1 <0>        -0.1211
     17 C15         3.7864   -8.6862    2.0739 C.ar      1 <0>         0.1406
     18 N3          3.8081   -9.9383    2.5468 N.ar      1 <0>        -0.5234
     19 N4          3.7303   -4.7759    0.5912 N.am      1 <0>        -0.6862
     20 C16         2.6312   -4.3215   -0.0428 C.2       1 <0>         0.5275
     21 O1          1.6430   -5.0205   -0.1197 O.2       1 <0>        -0.4849
     22 C17         2.6301   -2.9450   -0.6561 C.3       1 <0>         0.0647
     23 H1          2.8420   -2.1836    0.1090 H         1 <0>         0.1121
     24 C18         3.6450   -2.8954   -1.8000 C.3       1 <0>        -0.1792
     25 O2          1.3268   -2.6502   -1.1627 O.3       1 <0>        -0.2757
     26 C19         0.9938   -1.3377   -1.2833 C.ar      1 <0>         0.1398
     27 C20         1.8656   -0.3561   -0.8359 C.ar      1 <0>        -0.1912
     28 C21         1.5258    0.9772   -0.9597 C.ar      1 <0>        -0.0614
     29 C22         0.3164    1.3344   -1.5296 C.ar      1 <0>        -0.0583
     30 C23        -0.5551    0.3574   -1.9768 C.ar      1 <0>        -0.0610
     31 C24        -0.2190   -0.9781   -1.8548 C.ar      1 <0>        -0.0542
     32 Cl1        -1.3123   -2.2040   -2.4164 Cl        1 <0>        -0.0347
     33 Cl2        -0.1074    3.0107   -1.6842 Cl        1 <0>        -0.0471
     34 C25         7.4366   -8.2959    0.9874 C.3       1 <0>        -0.1484
     35 H2          4.2430  -18.0521    2.9196 H         1 <0>         0.0683
     36 H3          5.2465  -16.8281    2.0702 H         1 <0>         0.0561
     37 H4          3.4794  -16.9137    1.7587 H         1 <0>         0.0663
     38 H5          3.0318  -16.2324    4.1110 H         1 <0>         0.0834
     39 H6          4.7988  -16.1468    4.4225 H         1 <0>         0.0426
     40 H7          2.5654  -13.9780    4.4682 H         1 <0>         0.1038
     41 H8          4.2613  -13.7076    4.9949 H         1 <0>         0.0579
     42 H9          2.8373  -12.2857    2.6755 H         1 <0>         0.0819
     43 H10         3.2226  -11.5718    4.2782 H         1 <0>         0.1020
     44 H11         4.6686  -12.9039    1.1720 H         1 <0>         0.0806
     45 H12         6.3645  -12.6336    1.6986 H         1 <0>         0.1108
     46 H13         6.0920  -14.3270    3.4918 H         1 <0>         0.0571
     47 H14         5.7066  -15.0406    1.8890 H         1 <0>         0.1078
     48 H15         7.0085  -10.7476    2.0344 H         1 <0>         0.1814
     49 H16         5.8385   -6.3493    0.6524 H         1 <0>         0.1617
     50 H17         1.6852   -6.0839    1.6276 H         1 <0>         0.1661
     51 H18         1.6929   -8.3590    2.4866 H         1 <0>         0.1565
     52 H19         4.6018   -4.1175    0.7214 H         1 <0>         0.4490
     53 H20         3.6441   -1.8906   -2.2476 H         1 <0>         0.0863
     54 H21         3.3722   -3.6377   -2.5646 H         1 <0>         0.0820
     55 H22         4.6483   -3.1223   -1.4101 H         1 <0>         0.0834
     56 H23         2.8098   -0.6340   -0.3913 H         1 <0>         0.1476
     57 H24         2.2046    1.7416   -0.6114 H         1 <0>         0.1469
     58 H25        -1.4965    0.6383   -2.4254 H         1 <0>         0.1547
     59 H26         7.2574   -7.2677    0.6399 H         1 <0>         0.0906
     60 H27         7.7843   -8.9122    0.1452 H         1 <0>         0.1079
     61 H28         8.2027   -8.2879    1.7768 H         1 <0>         0.1083
     62 H29         2.8786  -10.3677    2.9489 H         1 <0>         0.4710
@<TRIPOS>BOND
     1    1    2 1
     2    1   35 1
     3    1   36 1
     4    1   37 1
     5    2    3 1
     6    2   38 1
     7    2   39 1
     8    3    8 1
     9    3    4 1
    10    4    5 1
    11    4   40 1
    12    4   41 1
    13    5    6 1
    14    5   42 1
    15    5   43 1
    16    6    7 1
    17    6    9 1
    18    7    8 1
    19    7   44 1
    20    7   45 1
    21    8   46 1
    22    8   47 1
    23    9   18 ar
    24    9   10 ar
    25   10   11 ar
    26   10   48 1
    27   11   12 ar
    28   11   34 1
    29   12   17 ar
    30   12   13 ar
    31   13   14 ar
    32   13   49 1
    33   14   15 ar
    34   14   19 1
    35   15   16 ar
    36   15   50 1
    37   16   17 ar
    38   16   51 1
    39   17   18 ar
    40   18   62 1
    41   19   20 am
    42   19   52 1
    43   20   21 2
    44   20   22 1
    45   22   23 1
    46   22   24 1
    47   22   25 1
    48   24   53 1
    49   24   54 1
    50   24   55 1
    51   25   26 1
    52   26   31 ar
    53   26   27 ar
    54   27   28 ar
    55   27   56 1
    56   28   29 ar
    57   28   57 1
    58   29   30 ar
    59   29   33 1
    60   30   31 ar
    61   30   58 1
    62   31   32 1
    63   34   59 1
    64   34   60 1
    65   34   61 1
@<TRIPOS>MOLECULE
ZINC13581280
   62    65     0     0     0
SMALL
USER_CHARGES
(2R)-2-(2,4-dichlorophenoxy)-N-[2-(4-ethylpiperazin-1-yl)-4-methyl-6-quinolyl]propanamide
@<TRIPOS>ATOM
      1 C1          4.2634  -17.0267    2.5220 C.3       1 <0>        -0.1907
      2 C2          4.0149  -16.0338    3.6592 C.3       1 <0>        -0.0072
      3 N1          4.0422  -14.6644    3.1283 N.4       1 <0>        -0.4039
      4 C3          3.5760  -13.7000    4.1345 C.3       1 <0>        -0.0024
      5 C4          3.5440  -12.2994    3.5184 C.3       1 <0>         0.0370
      6 N2          4.8877  -11.9473    3.0386 N.pl3     1 <0>        -0.4766
      7 C5          5.3539  -12.9116    2.0324 C.3       1 <0>         0.0281
      8 C6          5.3859  -14.3123    2.6484 C.3       1 <0>        -0.0019
      9 C7          4.9135  -10.6537    2.5371 C.ar      1 <0>         0.3225
     10 C8          6.1161  -10.1394    2.0314 C.ar      1 <0>        -0.1840
     11 C9          6.1563   -8.8711    1.5358 C.ar      1 <0>         0.0046
     12 C10         4.9690   -8.1100    1.5496 C.ar      1 <0>        -0.0897
     13 C11         4.9419   -6.7979    1.0540 C.ar      1 <0>        -0.1279
     14 C12         3.7628   -6.0857    1.0840 C.ar      1 <0>         0.1666
     15 C13         2.5992   -6.6587    1.6081 C.ar      1 <0>        -0.0881
     16 C14         2.6012   -7.9306    2.0893 C.ar      1 <0>        -0.0828
     17 C15         3.7864   -8.6862    2.0739 C.ar      1 <0>         0.1448
     18 N3          3.8081   -9.9383    2.5468 N.ar      1 <0>        -0.5091
     19 N4          3.7303   -4.7759    0.5912 N.am      1 <0>        -0.6842
     20 C16         2.6312   -4.3215   -0.0428 C.2       1 <0>         0.5244
     21 O1          1.6430   -5.0205   -0.1197 O.2       1 <0>        -0.4892
     22 C17         2.6301   -2.9450   -0.6561 C.3       1 <0>         0.0643
     23 H1          2.8420   -2.1836    0.1090 H         1 <0>         0.1090
     24 C18         3.6450   -2.8954   -1.8000 C.3       1 <0>        -0.1777
     25 O2          1.3268   -2.6502   -1.1627 O.3       1 <0>        -0.2747
     26 C19         0.9938   -1.3377   -1.2833 C.ar      1 <0>         0.1429
     27 C20         1.8656   -0.3561   -0.8359 C.ar      1 <0>        -0.1919
     28 C21         1.5258    0.9772   -0.9597 C.ar      1 <0>        -0.0612
     29 C22         0.3164    1.3344   -1.5296 C.ar      1 <0>        -0.0603
     30 C23        -0.5551    0.3574   -1.9768 C.ar      1 <0>        -0.0613
     31 C24        -0.2190   -0.9781   -1.8548 C.ar      1 <0>        -0.0557
     32 Cl1        -1.3123   -2.2040   -2.4164 Cl        1 <0>        -0.0358
     33 Cl2        -0.1074    3.0107   -1.6842 Cl        1 <0>        -0.0500
     34 C25         7.4366   -8.2959    0.9874 C.3       1 <0>        -0.1306
     35 H2          4.2430  -18.0521    2.9196 H         1 <0>         0.1074
     36 H3          5.2465  -16.8281    2.0702 H         1 <0>         0.0797
     37 H4          3.4794  -16.9137    1.7587 H         1 <0>         0.0810
     38 H5          3.0318  -16.2324    4.1110 H         1 <0>         0.1320
     39 H6          4.7988  -16.1468    4.4225 H         1 <0>         0.1279
     40 H7          2.5654  -13.9780    4.4682 H         1 <0>         0.1405
     41 H8          4.2613  -13.7076    4.9949 H         1 <0>         0.1355
     42 H9          2.8373  -12.2857    2.6755 H         1 <0>         0.0769
     43 H10         3.2226  -11.5718    4.2782 H         1 <0>         0.1332
     44 H11         4.6686  -12.9039    1.1720 H         1 <0>         0.0724
     45 H12         6.3645  -12.6336    1.6986 H         1 <0>         0.1307
     46 H13         6.0920  -14.3270    3.4918 H         1 <0>         0.1382
     47 H14         5.7066  -15.0406    1.8890 H         1 <0>         0.1420
     48 H15         7.0085  -10.7476    2.0344 H         1 <0>         0.1396
     49 H16         5.8385   -6.3493    0.6524 H         1 <0>         0.1413
     50 H17         1.6852   -6.0839    1.6276 H         1 <0>         0.1496
     51 H18         1.6929   -8.3590    2.4866 H         1 <0>         0.1405
     52 H19         4.6018   -4.1175    0.7214 H         1 <0>         0.4406
     53 H20         3.6441   -1.8906   -2.2476 H         1 <0>         0.0833
     54 H21         3.3722   -3.6377   -2.5646 H         1 <0>         0.0809
     55 H22         4.6483   -3.1223   -1.4101 H         1 <0>         0.0834
     56 H23         2.8098   -0.6340   -0.3913 H         1 <0>         0.1480
     57 H24         2.2046    1.7416   -0.6114 H         1 <0>         0.1461
     58 H25        -1.4965    0.6383   -2.4254 H         1 <0>         0.1537
     59 H26         7.2574   -7.2677    0.6399 H         1 <0>         0.0784
     60 H27         7.7843   -8.9122    0.1452 H         1 <0>         0.0846
     61 H28         8.2027   -8.2879    1.7768 H         1 <0>         0.0863
     62 H29         3.3534  -14.6215    2.2718 H         1 <0>         0.4391
@<TRIPOS>BOND
     1    1    2 1
     2    1   35 1
     3    1   36 1
     4    1   37 1
     5    2    3 1
     6    2   38 1
     7    2   39 1
     8    3    8 1
     9    3    4 1
    10    3   62 1
    11    4    5 1
    12    4   40 1
    13    4   41 1
    14    5    6 1
    15    5   42 1
    16    5   43 1
    17    6    7 1
    18    6    9 1
    19    7    8 1
    20    7   44 1
    21    7   45 1
    22    8   46 1
    23    8   47 1
    24    9   18 ar
    25    9   10 ar
    26   10   11 ar
    27   10   48 1
    28   11   12 ar
    29   11   34 1
    30   12   17 ar
    31   12   13 ar
    32   13   14 ar
    33   13   49 1
    34   14   15 ar
    35   14   19 1
    36   15   16 ar
    37   15   50 1
    38   16   17 ar
    39   16   51 1
    40   17   18 ar
    41   19   20 am
    42   19   52 1
    43   20   21 2
    44   20   22 1
    45   22   23 1
    46   22   24 1
    47   22   25 1
    48   24   53 1
    49   24   54 1
    50   24   55 1
    51   25   26 1
    52   26   31 ar
    53   26   27 ar
    54   27   28 ar
    55   27   56 1
    56   28   29 ar
    57   28   57 1
    58   29   30 ar
    59   29   33 1
    60   30   31 ar
    61   30   58 1
    62   31   32 1
    63   34   59 1
    64   34   60 1
    65   34   61 1
@<TRIPOS>MOLECULE
ZINC13581280
   61    64     0     0     0
SMALL
USER_CHARGES
(2R)-2-(2,4-dichlorophenoxy)-N-[2-(4-ethylpiperazin-1-yl)-4-methyl-6-quinolyl]propanamide
@<TRIPOS>ATOM
      1 C1          4.2634  -17.0267    2.5220 C.3       1 <0>        -0.1518
      2 C2          4.0149  -16.0338    3.6592 C.3       1 <0>         0.0497
      3 N1          4.0422  -14.6644    3.1283 N.3       1 <0>        -0.5412
      4 C3          3.5760  -13.7000    4.1345 C.3       1 <0>         0.0513
      5 C4          3.5440  -12.2994    3.5184 C.3       1 <0>         0.0691
      6 N2          4.8877  -11.9473    3.0386 N.pl3     1 <0>        -0.4782
      7 C5          5.3539  -12.9116    2.0324 C.3       1 <0>         0.0613
      8 C6          5.3859  -14.3123    2.6484 C.3       1 <0>         0.0523
      9 C7          4.9135  -10.6537    2.5371 C.ar      1 <0>         0.3446
     10 C8          6.1161  -10.1394    2.0314 C.ar      1 <0>        -0.1795
     11 C9          6.1563   -8.8711    1.5358 C.ar      1 <0>        -0.0083
     12 C10         4.9690   -8.1100    1.5496 C.ar      1 <0>        -0.1028
     13 C11         4.9419   -6.7979    1.0540 C.ar      1 <0>        -0.1205
     14 C12         3.7628   -6.0857    1.0840 C.ar      1 <0>         0.1471
     15 C13         2.5992   -6.6587    1.6081 C.ar      1 <0>        -0.0931
     16 C14         2.6012   -7.9306    2.0893 C.ar      1 <0>        -0.0839
     17 C15         3.7864   -8.6862    2.0739 C.ar      1 <0>         0.1524
     18 N3          3.8081   -9.9383    2.5468 N.ar      1 <0>        -0.5167
     19 N4          3.7303   -4.7759    0.5912 N.am      1 <0>        -0.6808
     20 C16         2.6312   -4.3215   -0.0428 C.2       1 <0>         0.5212
     21 O1          1.6430   -5.0205   -0.1197 O.2       1 <0>        -0.4903
     22 C17         2.6301   -2.9450   -0.6561 C.3       1 <0>         0.0646
     23 H1          2.8420   -2.1836    0.1090 H         1 <0>         0.1070
     24 C18         3.6450   -2.8954   -1.8000 C.3       1 <0>        -0.1771
     25 O2          1.3268   -2.6502   -1.1627 O.3       1 <0>        -0.2734
     26 C19         0.9938   -1.3377   -1.2833 C.ar      1 <0>         0.1463
     27 C20         1.8656   -0.3561   -0.8359 C.ar      1 <0>        -0.1924
     28 C21         1.5258    0.9772   -0.9597 C.ar      1 <0>        -0.0614
     29 C22         0.3164    1.3344   -1.5296 C.ar      1 <0>        -0.0624
     30 C23        -0.5551    0.3574   -1.9768 C.ar      1 <0>        -0.0617
     31 C24        -0.2190   -0.9781   -1.8548 C.ar      1 <0>        -0.0570
     32 Cl1        -1.3123   -2.2040   -2.4164 Cl        1 <0>        -0.0351
     33 Cl2        -0.1074    3.0107   -1.6842 Cl        1 <0>        -0.0540
     34 C25         7.4366   -8.2959    0.9874 C.3       1 <0>        -0.1240
     35 H2          4.2430  -18.0521    2.9196 H         1 <0>         0.0608
     36 H3          5.2465  -16.8281    2.0702 H         1 <0>         0.0547
     37 H4          3.4794  -16.9137    1.7587 H         1 <0>         0.0641
     38 H5          3.0318  -16.2324    4.1110 H         1 <0>         0.0767
     39 H6          4.7988  -16.1468    4.4225 H         1 <0>         0.0349
     40 H7          2.5654  -13.9780    4.4682 H         1 <0>         0.0863
     41 H8          4.2613  -13.7076    4.9949 H         1 <0>         0.0432
     42 H9          2.8373  -12.2857    2.6755 H         1 <0>         0.0621
     43 H10         3.2226  -11.5718    4.2782 H         1 <0>         0.0921
     44 H11         4.6686  -12.9039    1.1720 H         1 <0>         0.0575
     45 H12         6.3645  -12.6336    1.6986 H         1 <0>         0.0895
     46 H13         6.0920  -14.3270    3.4918 H         1 <0>         0.0460
     47 H14         5.7066  -15.0406    1.8890 H         1 <0>         0.0902
     48 H15         7.0085  -10.7476    2.0344 H         1 <0>         0.1382
     49 H16         5.8385   -6.3493    0.6524 H         1 <0>         0.1359
     50 H17         1.6852   -6.0839    1.6276 H         1 <0>         0.1442
     51 H18         1.6929   -8.3590    2.4866 H         1 <0>         0.1384
     52 H19         4.6018   -4.1175    0.7214 H         1 <0>         0.4359
     53 H20         3.6441   -1.8906   -2.2476 H         1 <0>         0.0806
     54 H21         3.3722   -3.6377   -2.5646 H         1 <0>         0.0810
     55 H22         4.6483   -3.1223   -1.4101 H         1 <0>         0.0840
     56 H23         2.8098   -0.6340   -0.3913 H         1 <0>         0.1487
     57 H24         2.2046    1.7416   -0.6114 H         1 <0>         0.1451
     58 H25        -1.4965    0.6383   -2.4254 H         1 <0>         0.1525
     59 H26         7.2574   -7.2677    0.6399 H         1 <0>         0.0740
     60 H27         7.7843   -8.9122    0.1452 H         1 <0>         0.0807
     61 H28         8.2027   -8.2879    1.7768 H         1 <0>         0.0814
@<TRIPOS>BOND
     1    1    2 1
     2    1   35 1
     3    1   36 1
     4    1   37 1
     5    2    3 1
     6    2   38 1
     7    2   39 1
     8    3    8 1
     9    3    4 1
    10    4    5 1
    11    4   40 1
    12    4   41 1
    13    5    6 1
    14    5   42 1
    15    5   43 1
    16    6    7 1
    17    6    9 1
    18    7    8 1
    19    7   44 1
    20    7   45 1
    21    8   46 1
    22    8   47 1
    23    9   18 ar
    24    9   10 ar
    25   10   11 ar
    26   10   48 1
    27   11   12 ar
    28   11   34 1
    29   12   17 ar
    30   12   13 ar
    31   13   14 ar
    32   13   49 1
    33   14   15 ar
    34   14   19 1
    35   15   16 ar
    36   15   50 1
    37   16   17 ar
    38   16   51 1
    39   17   18 ar
    40   19   20 am
    41   19   52 1
    42   20   21 2
    43   20   22 1
    44   22   23 1
    45   22   24 1
    46   22   25 1
    47   24   53 1
    48   24   54 1
    49   24   55 1
    50   25   26 1
    51   26   31 ar
    52   26   27 ar
    53   27   28 ar
    54   27   56 1
    55   28   29 ar
    56   28   57 1
    57   29   30 ar
    58   29   33 1
    59   30   31 ar
    60   30   58 1
    61   31   32 1
    62   34   59 1
    63   34   60 1
    64   34   61 1
@<TRIPOS>MOLECULE
ZINC13581280
   63    66     0     0     0
SMALL
USER_CHARGES

@<TRIPOS>ATOM
      1 C1         -0.2267    1.0665    0.3703 C.3       1 <0>        -0.1919
      2 C2         -0.1479   -0.4610    0.3325 C.3       1 <0>        -0.0116
      3 N1          0.5299   -0.8860   -0.8995 N.4       1 <0>        -0.3872
      4 C3          1.9207   -0.4156   -0.8782 C.3       1 <0>        -0.0251
      5 C4          2.5952   -0.7584   -2.2106 C.3       1 <0>         0.0762
      6 N2          2.4462   -2.2020   -2.4509 N.pl3     1 <0>        -0.6172
      7 C5          1.1030   -2.7898   -2.3307 C.3       1 <0>         0.0896
      8 C6          0.4989   -2.3511   -0.9926 C.3       1 <0>        -0.0238
      9 C7          3.5414   -2.9870   -2.7821 C.ar      1 <0>         0.4986
     10 C8          3.3827   -4.3768   -2.8814 C.ar      1 <0>        -0.2348
     11 C9          4.4491   -5.1598   -3.2058 C.ar      1 <0>         0.1237
     12 C10         5.6928   -4.5348   -3.4333 C.ar      1 <0>        -0.0869
     13 C11         6.8304   -5.2832   -3.7713 C.ar      1 <0>        -0.0683
     14 C12         8.0280   -4.6370   -3.9864 C.ar      1 <0>         0.1729
     15 C13         8.1162   -3.2456   -3.8699 C.ar      1 <0>        -0.0510
     16 C14         7.0267   -2.5005   -3.5429 C.ar      1 <0>        -0.1194
     17 C15         5.7886   -3.1268   -3.3174 C.ar      1 <0>         0.1383
     18 N3          4.7041   -2.4088   -3.0009 N.ar      1 <0>        -0.5134
     19 N4          9.1662   -5.3788   -4.3239 N.am      1 <0>        -0.6728
     20 C16         9.0481   -6.4863   -5.0828 C.2       1 <0>         0.5229
     21 O1          7.9707   -6.7889   -5.5506 O.2       1 <0>        -0.4803
     22 C17        10.2547   -7.3487   -5.3502 C.3       1 <0>         0.0649
     23 H1         11.0492   -6.7387   -5.7801 H         1 <0>         0.1128
     24 C18        10.7402   -7.9675   -4.0379 C.3       1 <0>        -0.1771
     25 O2          9.9038   -8.3881   -6.2659 O.3       1 <0>        -0.2708
     26 C19        10.8723   -8.8098   -7.1216 C.ar      1 <0>         0.1337
     27 C20        12.1685   -8.3331   -6.9927 C.ar      1 <0>        -0.1890
     28 C21        13.1515   -8.7627   -7.8631 C.ar      1 <0>        -0.0616
     29 C22        12.8443   -9.6681   -8.8635 C.ar      1 <0>        -0.0554
     30 C23        11.5524  -10.1452   -8.9945 C.ar      1 <0>        -0.0613
     31 C24        10.5668   -9.7223   -8.1219 C.ar      1 <0>        -0.0517
     32 Cl1         8.9472  -10.3265   -8.2817 Cl        1 <0>        -0.0358
     33 Cl2        14.0817  -10.2055   -9.9561 Cl        1 <0>        -0.0429
     34 C25         4.3038   -6.6555   -3.3181 C.3       1 <0>        -0.1525
     35 H2          0.7804    1.4830    0.3474 H         1 <0>         0.0797
     36 H3         -0.7870    1.4229   -0.4941 H         1 <0>         0.0846
     37 H4         -0.7295    1.3819    1.2845 H         1 <0>         0.1143
     38 H5          0.4124   -0.8174    1.1969 H         1 <0>         0.1332
     39 H6         -1.1549   -0.8774    0.3554 H         1 <0>         0.1400
     40 H7          1.9369    0.6642   -0.7298 H         1 <0>         0.1596
     41 H8          2.4567   -0.9026   -0.0636 H         1 <0>         0.1409
     42 H9          2.1176   -0.2016   -3.0168 H         1 <0>         0.1235
     43 H10         3.6537   -0.5025   -2.1618 H         1 <0>         0.1208
     44 H11         0.4747   -2.4382   -3.1490 H         1 <0>         0.1205
     45 H12         1.1749   -3.8770   -2.3612 H         1 <0>         0.1448
     46 H13         1.0779   -2.7796   -0.1745 H         1 <0>         0.1412
     47 H14        -0.5326   -2.6976   -0.9285 H         1 <0>         0.1600
     48 H15         2.4170   -4.8254   -2.7008 H         1 <0>         0.1812
     49 H16         6.7678   -6.3575   -3.8618 H         1 <0>         0.1707
     50 H17         9.0635   -2.7563   -4.0418 H         1 <0>         0.1630
     51 H18         7.1126   -1.4273   -3.4568 H         1 <0>         0.1598
     52 H19        10.0398   -5.0957   -4.0116 H         1 <0>         0.4255
     53 H20        11.6129   -8.5912   -4.2313 H         1 <0>         0.0889
     54 H21        11.0079   -7.1746   -3.3395 H         1 <0>         0.0823
     55 H22         9.9457   -8.5775   -3.6080 H         1 <0>         0.0807
     56 H23        12.4090   -7.6262   -6.2124 H         1 <0>         0.1469
     57 H24        14.1607   -8.3912   -7.7629 H         1 <0>         0.1482
     58 H25        11.3145  -10.8515   -9.7761 H         1 <0>         0.1559
     59 H26         4.0372   -6.9188   -4.3417 H         1 <0>         0.1191
     60 H27         5.2474   -7.1331   -3.0542 H         1 <0>         0.0996
     61 H28         3.5218   -6.9966   -2.6398 H         1 <0>         0.1019
     62 H29         0.0555   -0.4895   -1.6969 H         1 <0>         0.4281
     63 H30         4.7769   -1.4443   -2.9276 H         1 <0>         0.4332
@<TRIPOS>BOND
     1    1    2 1
     2    1   35 1
     3    1   36 1
     4    1   37 1
     5    2    3 1
     6    2   38 1
     7    2   39 1
     8    3    8 1
     9    3    4 1
    10    3   62 1
    11    4    5 1
    12    4   40 1
    13    4   41 1
    14    5    6 1
    15    5   42 1
    16    5   43 1
    17    6    7 1
    18    6    9 1
    19    7    8 1
    20    7   44 1
    21    7   45 1
    22    8   46 1
    23    8   47 1
    24    9   18 ar
    25    9   10 ar
    26   10   11 ar
    27   10   48 1
    28   11   12 ar
    29   11   34 1
    30   12   17 ar
    31   12   13 ar
    32   13   14 ar
    33   13   49 1
    34   14   15 ar
    35   14   19 1
    36   15   16 ar
    37   15   50 1
    38   16   17 ar
    39   16   51 1
    40   17   18 ar
    41   18   63 1
    42   19   20 am
    43   19   52 1
    44   20   21 2
    45   20   22 1
    46   22   23 1
    47   22   24 1
    48   22   25 1
    49   24   53 1
    50   24   54 1
    51   24   55 1
    52   25   26 1
    53   26   31 ar
    54   26   27 ar
    55   27   28 ar
    56   27   56 1
    57   28   29 ar
    58   28   57 1
    59   29   30 ar
    60   29   33 1
    61   30   31 ar
    62   30   58 1
    63   31   32 1
    64   34   59 1
    65   34   60 1
    66   34   61 1
@<TRIPOS>MOLECULE
ZINC13581282
   62    65     0     0     0
SMALL
USER_CHARGES
(2S)-2-(2,4-dichlorophenoxy)-N-[2-(4-ethylpiperazin-1-yl)-4-methyl-6-quinolyl]propanamide
@<TRIPOS>ATOM
      1 C1          0.1772   15.6776    5.5415 C.3       1 <0>        -0.1547
      2 C2         -0.0973   15.2807    4.0896 C.3       1 <0>         0.0494
      3 N1          0.0516   13.8266    3.9430 N.3       1 <0>        -0.5421
      4 C3         -0.4313   13.3775    2.6297 C.3       1 <0>         0.0547
      5 C4         -0.3332   11.8524    2.5473 C.3       1 <0>         0.0161
      6 N2          1.0615   11.4416    2.7610 N.pl3     1 <0>        -0.4718
      7 C5          1.5444   11.8907    4.0743 C.3       1 <0>         0.0555
      8 C6          1.4463   13.4158    4.1567 C.3       1 <0>         0.0434
      9 C7          1.2022   10.0681    2.6225 C.ar      1 <0>         0.4264
     10 C8          2.4682    9.4891    2.7912 C.ar      1 <0>        -0.1887
     11 C9          2.6212    8.1421    2.6578 C.ar      1 <0>         0.0867
     12 C10         1.4836    7.3672    2.3501 C.ar      1 <0>        -0.0759
     13 C11         1.5716    5.9746    2.2044 C.ar      1 <0>        -0.1040
     14 C12         0.4392    5.2519    1.8985 C.ar      1 <0>         0.1824
     15 C13        -0.7939    5.8942    1.7431 C.ar      1 <0>        -0.0455
     16 C14        -0.9034    7.2422    1.8848 C.ar      1 <0>        -0.1191
     17 C15         0.2325    8.0113    2.1920 C.ar      1 <0>         0.1395
     18 N3          0.1438    9.3393    2.3353 N.ar      1 <0>        -0.5230
     19 N4          0.5220    3.8626    1.7478 N.am      1 <0>        -0.6864
     20 C16        -0.2698    3.2330    0.8572 C.2       1 <0>         0.5268
     21 O1         -0.9868    3.8775    0.1213 O.2       1 <0>        -0.4829
     22 C17        -0.2643    1.7282    0.7759 C.3       1 <0>         0.0649
     23 H1         -0.5384    1.2901    1.7469 H         1 <0>         0.1124
     24 C18         1.1104    1.2479    0.3063 C.3       1 <0>        -0.1811
     25 O2         -1.2619    1.2977   -0.1523 O.3       1 <0>        -0.2758
     26 C19        -1.7416    0.0347   -0.0011 C.ar      1 <0>         0.1398
     27 C20        -1.3009   -0.7542    1.0510 C.ar      1 <0>        -0.1912
     28 C21        -1.7926   -2.0360    1.2056 C.ar      1 <0>        -0.0615
     29 C22        -2.7171   -2.5369    0.3061 C.ar      1 <0>        -0.0582
     30 C23        -3.1546   -1.7542   -0.7474 C.ar      1 <0>        -0.0610
     31 C24        -2.6687   -0.4692   -0.9029 C.ar      1 <0>        -0.0543
     32 Cl1        -3.2171    0.5129   -2.2252 Cl        1 <0>        -0.0346
     33 Cl2        -3.3286   -4.1501    0.4996 Cl        1 <0>        -0.0472
     34 C25         3.9713    7.4964    2.8349 C.3       1 <0>        -0.1483
     35 H2          0.0657   16.7664    5.6513 H         1 <0>         0.0683
     36 H3          1.2018   15.3845    5.8143 H         1 <0>         0.0561
     37 H4         -0.5385   15.1672    6.2027 H         1 <0>         0.0662
     38 H5         -1.1219   15.5738    3.8168 H         1 <0>         0.0834
     39 H6          0.6184   15.7911    3.4283 H         1 <0>         0.0427
     40 H7         -1.4790   13.6861    2.4991 H         1 <0>         0.1039
     41 H8          0.1852   13.8288    1.8384 H         1 <0>         0.0580
     42 H9         -0.9719   11.4016    3.3211 H         1 <0>         0.0818
     43 H10        -0.6674   11.5166    1.5546 H         1 <0>         0.1021
     44 H11         0.9279   11.4394    4.8656 H         1 <0>         0.0805
     45 H12         2.5921   11.5821    4.2049 H         1 <0>         0.1107
     46 H13         2.0843   13.8676    3.3828 H         1 <0>         0.0571
     47 H14         1.7798   13.7526    5.1494 H         1 <0>         0.1078
     48 H15         3.3200   10.1097    3.0269 H         1 <0>         0.1815
     49 H16         2.5202    5.4734    2.3277 H         1 <0>         0.1618
     50 H17        -1.6717    5.3109    1.5074 H         1 <0>         0.1618
     51 H18        -1.8631    7.7219    1.7617 H         1 <0>         0.1567
     52 H19         1.2333    3.2848    2.3563 H         1 <0>         0.4488
     53 H20         1.1144    0.1495    0.2469 H         1 <0>         0.0868
     54 H21         1.8783    1.5793    1.0207 H         1 <0>         0.0832
     55 H22         1.3267    1.6696   -0.6864 H         1 <0>         0.0829
     56 H23        -0.5765   -0.3653    1.7513 H         1 <0>         0.1476
     57 H24        -1.4522   -2.6489    2.0271 H         1 <0>         0.1469
     58 H25        -3.8757   -2.1472   -1.4488 H         1 <0>         0.1548
     59 H26         3.8805    6.4102    2.6869 H         1 <0>         0.0906
     60 H27         4.3439    7.6983    3.8500 H         1 <0>         0.1081
     61 H28         4.6749    7.9095    2.0971 H         1 <0>         0.1080
     62 H29        -0.8373    9.8203    2.2084 H         1 <0>         0.4710
@<TRIPOS>BOND
     1    1    2 1
     2    1   35 1
     3    1   36 1
     4    1   37 1
     5    2    3 1
     6    2   38 1
     7    2   39 1
     8    3    8 1
     9    3    4 1
    10    4    5 1
    11    4   40 1
    12    4   41 1
    13    5    6 1
    14    5   42 1
    15    5   43 1
    16    6    7 1
    17    6    9 1
    18    7    8 1
    19    7   44 1
    20    7   45 1
    21    8   46 1
    22    8   47 1
    23    9   18 ar
    24    9   10 ar
    25   10   11 ar
    26   10   48 1
    27   11   12 ar
    28   11   34 1
    29   12   17 ar
    30   12   13 ar
    31   13   14 ar
    32   13   49 1
    33   14   15 ar
    34   14   19 1
    35   15   16 ar
    36   15   50 1
    37   16   17 ar
    38   16   51 1
    39   17   18 ar
    40   18   62 1
    41   19   20 am
    42   19   52 1
    43   20   21 2
    44   20   22 1
    45   22   23 1
    46   22   24 1
    47   22   25 1
    48   24   53 1
    49   24   54 1
    50   24   55 1
    51   25   26 1
    52   26   31 ar
    53   26   27 ar
    54   27   28 ar
    55   27   56 1
    56   28   29 ar
    57   28   57 1
    58   29   30 ar
    59   29   33 1
    60   30   31 ar
    61   30   58 1
    62   31   32 1
    63   34   59 1
    64   34   60 1
    65   34   61 1
@<TRIPOS>MOLECULE
ZINC13581282
   62    65     0     0     0
SMALL
USER_CHARGES
(2S)-2-(2,4-dichlorophenoxy)-N-[2-(4-ethylpiperazin-1-yl)-4-methyl-6-quinolyl]propanamide
@<TRIPOS>ATOM
      1 C1          0.1772   15.6776    5.5415 C.3       1 <0>        -0.1906
      2 C2         -0.0973   15.2807    4.0896 C.3       1 <0>        -0.0074
      3 N1          0.0516   13.8266    3.9430 N.4       1 <0>        -0.4036
      4 C3         -0.4313   13.3775    2.6297 C.3       1 <0>        -0.0026
      5 C4         -0.3332   11.8524    2.5473 C.3       1 <0>         0.0372
      6 N2          1.0615   11.4416    2.7610 N.pl3     1 <0>        -0.4766
      7 C5          1.5444   11.8907    4.0743 C.3       1 <0>         0.0284
      8 C6          1.4463   13.4158    4.1567 C.3       1 <0>        -0.0022
      9 C7          1.2022   10.0681    2.6225 C.ar      1 <0>         0.3220
     10 C8          2.4682    9.4891    2.7912 C.ar      1 <0>        -0.1833
     11 C9          2.6212    8.1421    2.6578 C.ar      1 <0>         0.0041
     12 C10         1.4836    7.3672    2.3501 C.ar      1 <0>        -0.0881
     13 C11         1.5716    5.9746    2.2044 C.ar      1 <0>        -0.1297
     14 C12         0.4392    5.2519    1.8985 C.ar      1 <0>         0.1694
     15 C13        -0.7939    5.8942    1.7431 C.ar      1 <0>        -0.0885
     16 C14        -0.9034    7.2422    1.8848 C.ar      1 <0>        -0.0807
     17 C15         0.2325    8.0113    2.1920 C.ar      1 <0>         0.1438
     18 N3          0.1438    9.3393    2.3353 N.ar      1 <0>        -0.5088
     19 N4          0.5220    3.8626    1.7478 N.am      1 <0>        -0.6846
     20 C16        -0.2698    3.2330    0.8572 C.2       1 <0>         0.5236
     21 O1         -0.9868    3.8775    0.1213 O.2       1 <0>        -0.4866
     22 C17        -0.2643    1.7282    0.7759 C.3       1 <0>         0.0648
     23 H1         -0.5384    1.2901    1.7469 H         1 <0>         0.1092
     24 C18         1.1104    1.2479    0.3063 C.3       1 <0>        -0.1797
     25 O2         -1.2619    1.2977   -0.1523 O.3       1 <0>        -0.2746
     26 C19        -1.7416    0.0347   -0.0011 C.ar      1 <0>         0.1430
     27 C20        -1.3009   -0.7542    1.0510 C.ar      1 <0>        -0.1920
     28 C21        -1.7926   -2.0360    1.2056 C.ar      1 <0>        -0.0615
     29 C22        -2.7171   -2.5369    0.3061 C.ar      1 <0>        -0.0604
     30 C23        -3.1546   -1.7542   -0.7474 C.ar      1 <0>        -0.0612
     31 C24        -2.6687   -0.4692   -0.9029 C.ar      1 <0>        -0.0557
     32 Cl1        -3.2171    0.5129   -2.2252 Cl        1 <0>        -0.0352
     33 Cl2        -3.3286   -4.1501    0.4996 Cl        1 <0>        -0.0502
     34 C25         3.9713    7.4964    2.8349 C.3       1 <0>        -0.1306
     35 H2          0.0657   16.7664    5.6513 H         1 <0>         0.1074
     36 H3          1.2018   15.3845    5.8143 H         1 <0>         0.0797
     37 H4         -0.5385   15.1672    6.2027 H         1 <0>         0.0809
     38 H5         -1.1219   15.5738    3.8168 H         1 <0>         0.1320
     39 H6          0.6184   15.7911    3.4283 H         1 <0>         0.1279
     40 H7         -1.4790   13.6861    2.4991 H         1 <0>         0.1406
     41 H8          0.1852   13.8288    1.8384 H         1 <0>         0.1355
     42 H9         -0.9719   11.4016    3.3211 H         1 <0>         0.0768
     43 H10        -0.6674   11.5166    1.5546 H         1 <0>         0.1333
     44 H11         0.9279   11.4394    4.8656 H         1 <0>         0.0722
     45 H12         2.5921   11.5821    4.2049 H         1 <0>         0.1306
     46 H13         2.0843   13.8676    3.3828 H         1 <0>         0.1382
     47 H14         1.7798   13.7526    5.1494 H         1 <0>         0.1421
     48 H15         3.3200   10.1097    3.0269 H         1 <0>         0.1397
     49 H16         2.5202    5.4734    2.3277 H         1 <0>         0.1414
     50 H17        -1.6717    5.3109    1.5074 H         1 <0>         0.1452
     51 H18        -1.8631    7.7219    1.7617 H         1 <0>         0.1408
     52 H19         1.2333    3.2848    2.3563 H         1 <0>         0.4402
     53 H20         1.1144    0.1495    0.2469 H         1 <0>         0.0838
     54 H21         1.8783    1.5793    1.0207 H         1 <0>         0.0830
     55 H22         1.3267    1.6696   -0.6864 H         1 <0>         0.0821
     56 H23        -0.5765   -0.3653    1.7513 H         1 <0>         0.1479
     57 H24        -1.4522   -2.6489    2.0271 H         1 <0>         0.1460
     58 H25        -3.8757   -2.1472   -1.4488 H         1 <0>         0.1537
     59 H26         3.8805    6.4102    2.6869 H         1 <0>         0.0785
     60 H27         4.3439    7.6983    3.8500 H         1 <0>         0.0848
     61 H28         4.6749    7.9095    2.0971 H         1 <0>         0.0860
     62 H29        -0.5665   13.3452    4.7151 H         1 <0>         0.4388
@<TRIPOS>BOND
     1    1    2 1
     2    1   35 1
     3    1   36 1
     4    1   37 1
     5    2    3 1
     6    2   38 1
     7    2   39 1
     8    3    8 1
     9    3    4 1
    10    3   62 1
    11    4    5 1
    12    4   40 1
    13    4   41 1
    14    5    6 1
    15    5   42 1
    16    5   43 1
    17    6    7 1
    18    6    9 1
    19    7    8 1
    20    7   44 1
    21    7   45 1
    22    8   46 1
    23    8   47 1
    24    9   18 ar
    25    9   10 ar
    26   10   11 ar
    27   10   48 1
    28   11   12 ar
    29   11   34 1
    30   12   17 ar
    31   12   13 ar
    32   13   14 ar
    33   13   49 1
    34   14   15 ar
    35   14   19 1
    36   15   16 ar
    37   15   50 1
    38   16   17 ar
    39   16   51 1
    40   17   18 ar
    41   19   20 am
    42   19   52 1
    43   20   21 2
    44   20   22 1
    45   22   23 1
    46   22   24 1
    47   22   25 1
    48   24   53 1
    49   24   54 1
    50   24   55 1
    51   25   26 1
    52   26   31 ar
    53   26   27 ar
    54   27   28 ar
    55   27   56 1
    56   28   29 ar
    57   28   57 1
    58   29   30 ar
    59   29   33 1
    60   30   31 ar
    61   30   58 1
    62   31   32 1
    63   34   59 1
    64   34   60 1
    65   34   61 1
@<TRIPOS>MOLECULE
ZINC13581282
   61    64     0     0     0
SMALL
USER_CHARGES
(2S)-2-(2,4-dichlorophenoxy)-N-[2-(4-ethylpiperazin-1-yl)-4-methyl-6-quinolyl]propanamide
@<TRIPOS>ATOM
      1 C1          0.1772   15.6776    5.5415 C.3       1 <0>        -0.1516
      2 C2         -0.0973   15.2807    4.0896 C.3       1 <0>         0.0495
      3 N1          0.0516   13.8266    3.9430 N.3       1 <0>        -0.5411
      4 C3         -0.4313   13.3775    2.6297 C.3       1 <0>         0.0510
      5 C4         -0.3332   11.8524    2.5473 C.3       1 <0>         0.0693
      6 N2          1.0615   11.4416    2.7610 N.pl3     1 <0>        -0.4782
      7 C5          1.5444   11.8907    4.0743 C.3       1 <0>         0.0616
      8 C6          1.4463   13.4158    4.1567 C.3       1 <0>         0.0521
      9 C7          1.2022   10.0681    2.6225 C.ar      1 <0>         0.3442
     10 C8          2.4682    9.4891    2.7912 C.ar      1 <0>        -0.1789
     11 C9          2.6212    8.1421    2.6578 C.ar      1 <0>        -0.0087
     12 C10         1.4836    7.3672    2.3501 C.ar      1 <0>        -0.1014
     13 C11         1.5716    5.9746    2.2044 C.ar      1 <0>        -0.1221
     14 C12         0.4392    5.2519    1.8985 C.ar      1 <0>         0.1498
     15 C13        -0.7939    5.8942    1.7431 C.ar      1 <0>        -0.0934
     16 C14        -0.9034    7.2422    1.8848 C.ar      1 <0>        -0.0818
     17 C15         0.2325    8.0113    2.1920 C.ar      1 <0>         0.1515
     18 N3          0.1438    9.3393    2.3353 N.ar      1 <0>        -0.5164
     19 N4          0.5220    3.8626    1.7478 N.am      1 <0>        -0.6812
     20 C16        -0.2698    3.2330    0.8572 C.2       1 <0>         0.5208
     21 O1         -0.9868    3.8775    0.1213 O.2       1 <0>        -0.4887
     22 C17        -0.2643    1.7282    0.7759 C.3       1 <0>         0.0647
     23 H1         -0.5384    1.2901    1.7469 H         1 <0>         0.1076
     24 C18         1.1104    1.2479    0.3063 C.3       1 <0>        -0.1787
     25 O2         -1.2619    1.2977   -0.1523 O.3       1 <0>        -0.2734
     26 C19        -1.7416    0.0347   -0.0011 C.ar      1 <0>         0.1462
     27 C20        -1.3009   -0.7542    1.0510 C.ar      1 <0>        -0.1924
     28 C21        -1.7926   -2.0360    1.2056 C.ar      1 <0>        -0.0615
     29 C22        -2.7171   -2.5369    0.3061 C.ar      1 <0>        -0.0624
     30 C23        -3.1546   -1.7542   -0.7474 C.ar      1 <0>        -0.0617
     31 C24        -2.6687   -0.4692   -0.9029 C.ar      1 <0>        -0.0570
     32 Cl1        -3.2171    0.5129   -2.2252 Cl        1 <0>        -0.0351
     33 Cl2        -3.3286   -4.1501    0.4996 Cl        1 <0>        -0.0541
     34 C25         3.9713    7.4964    2.8349 C.3       1 <0>        -0.1240
     35 H2          0.0657   16.7664    5.6513 H         1 <0>         0.0608
     36 H3          1.2018   15.3845    5.8143 H         1 <0>         0.0547
     37 H4         -0.5385   15.1672    6.2027 H         1 <0>         0.0639
     38 H5         -1.1219   15.5738    3.8168 H         1 <0>         0.0768
     39 H6          0.6184   15.7911    3.4283 H         1 <0>         0.0350
     40 H7         -1.4790   13.6861    2.4991 H         1 <0>         0.0864
     41 H8          0.1852   13.8288    1.8384 H         1 <0>         0.0433
     42 H9         -0.9719   11.4016    3.3211 H         1 <0>         0.0620
     43 H10        -0.6674   11.5166    1.5546 H         1 <0>         0.0922
     44 H11         0.9279   11.4394    4.8656 H         1 <0>         0.0573
     45 H12         2.5921   11.5821    4.2049 H         1 <0>         0.0895
     46 H13         2.0843   13.8676    3.3828 H         1 <0>         0.0460
     47 H14         1.7798   13.7526    5.1494 H         1 <0>         0.0902
     48 H15         3.3200   10.1097    3.0269 H         1 <0>         0.1383
     49 H16         2.5202    5.4734    2.3277 H         1 <0>         0.1360
     50 H17        -1.6717    5.3109    1.5074 H         1 <0>         0.1398
     51 H18        -1.8631    7.7219    1.7617 H         1 <0>         0.1386
     52 H19         1.2333    3.2848    2.3563 H         1 <0>         0.4357
     53 H20         1.1144    0.1495    0.2469 H         1 <0>         0.0811
     54 H21         1.8783    1.5793    1.0207 H         1 <0>         0.0836
     55 H22         1.3267    1.6696   -0.6864 H         1 <0>         0.0817
     56 H23        -0.5765   -0.3653    1.7513 H         1 <0>         0.1487
     57 H24        -1.4522   -2.6489    2.0271 H         1 <0>         0.1451
     58 H25        -3.8757   -2.1472   -1.4488 H         1 <0>         0.1525
     59 H26         3.8805    6.4102    2.6869 H         1 <0>         0.0741
     60 H27         4.3439    7.6983    3.8500 H         1 <0>         0.0809
     61 H28         4.6749    7.9095    2.0971 H         1 <0>         0.0812
@<TRIPOS>BOND
     1    1    2 1
     2    1   35 1
     3    1   36 1
     4    1   37 1
     5    2    3 1
     6    2   38 1
     7    2   39 1
     8    3    8 1
     9    3    4 1
    10    4    5 1
    11    4   40 1
    12    4   41 1
    13    5    6 1
    14    5   42 1
    15    5   43 1
    16    6    7 1
    17    6    9 1
    18    7    8 1
    19    7   44 1
    20    7   45 1
    21    8   46 1
    22    8   47 1
    23    9   18 ar
    24    9   10 ar
    25   10   11 ar
    26   10   48 1
    27   11   12 ar
    28   11   34 1
    29   12   17 ar
    30   12   13 ar
    31   13   14 ar
    32   13   49 1
    33   14   15 ar
    34   14   19 1
    35   15   16 ar
    36   15   50 1
    37   16   17 ar
    38   16   51 1
    39   17   18 ar
    40   19   20 am
    41   19   52 1
    42   20   21 2
    43   20   22 1
    44   22   23 1
    45   22   24 1
    46   22   25 1
    47   24   53 1
    48   24   54 1
    49   24   55 1
    50   25   26 1
    51   26   31 ar
    52   26   27 ar
    53   27   28 ar
    54   27   56 1
    55   28   29 ar
    56   28   57 1
    57   29   30 ar
    58   29   33 1
    59   30   31 ar
    60   30   58 1
    61   31   32 1
    62   34   59 1
    63   34   60 1
    64   34   61 1
@<TRIPOS>MOLECULE
ZINC13581282
   63    66     0     0     0
SMALL
USER_CHARGES

@<TRIPOS>ATOM
      1 C1         -0.0744    1.4957   -0.0401 C.3       1 <0>        -0.1919
      2 C2         -0.0569   -0.0340   -0.0671 C.3       1 <0>        -0.0116
      3 N1          0.6476   -0.4945   -1.2711 N.4       1 <0>        -0.3872
      4 C3          2.0548   -0.0810   -1.2009 C.3       1 <0>        -0.0252
      5 C4          2.7631   -0.4598   -2.5057 C.3       1 <0>         0.0762
      6 N2          2.5639   -1.8978   -2.7440 N.pl3     1 <0>        -0.6170
      7 C5          1.1943   -2.4295   -2.6704 C.3       1 <0>         0.0896
      8 C6          0.5600   -1.9576   -1.3578 C.3       1 <0>        -0.0238
      9 C7          3.6375   -2.7289   -3.0305 C.ar      1 <0>         0.4989
     10 C8          3.4231   -4.1102   -3.1424 C.ar      1 <0>        -0.2348
     11 C9          4.4676   -4.9382   -3.4233 C.ar      1 <0>         0.1237
     12 C10         5.7460   -4.3674   -3.5940 C.ar      1 <0>        -0.0869
     13 C11         6.8637   -5.1638   -3.8853 C.ar      1 <0>        -0.0681
     14 C12         8.0965   -4.5699   -4.0455 C.ar      1 <0>         0.1732
     15 C13         8.2398   -3.1840   -3.9195 C.ar      1 <0>        -0.0505
     16 C14         7.1704   -2.3928   -3.6371 C.ar      1 <0>        -0.1194
     17 C15         5.8977   -2.9651   -3.4682 C.ar      1 <0>         0.1387
     18 N3          4.8325   -2.2014   -3.1961 N.ar      1 <0>        -0.5135
     19 N4          9.2150   -5.3598   -4.3363 N.am      1 <0>        -0.6732
     20 C16         9.0837   -6.4545   -5.1114 C.2       1 <0>         0.5263
     21 O1          8.0199   -6.6994   -5.6399 O.2       1 <0>        -0.4797
     22 C17        10.2588   -7.3744   -5.3213 C.3       1 <0>         0.0658
     23 H1         10.6426   -7.7001   -4.3545 H         1 <0>         0.1127
     24 C18        11.3585   -6.6313   -6.0825 C.3       1 <0>        -0.1823
     25 O2          9.8428   -8.5137   -6.0770 O.3       1 <0>        -0.2717
     26 C19        10.5776   -9.6489   -5.9372 C.ar      1 <0>         0.1354
     27 C20        11.6170   -9.6948   -5.0200 C.ar      1 <0>        -0.1898
     28 C21        12.3627  -10.8492   -4.8792 C.ar      1 <0>        -0.0614
     29 C22        12.0737  -11.9598   -5.6524 C.ar      1 <0>        -0.0560
     30 C23        11.0375  -11.9169   -6.5680 C.ar      1 <0>        -0.0608
     31 C24        10.2851  -10.7655   -6.7081 C.ar      1 <0>        -0.0526
     32 Cl1         8.9803  -10.7139   -7.8520 Cl        1 <0>        -0.0352
     33 Cl2        13.0130  -13.4087   -5.4735 Cl        1 <0>        -0.0432
     34 C25         4.2626   -6.4259   -3.5480 C.3       1 <0>        -0.1525
     35 H2          0.9491    1.8706   -0.0280 H         1 <0>         0.0797
     36 H3         -0.5875    1.8689   -0.9264 H         1 <0>         0.0847
     37 H4         -0.5971    1.8374    0.8533 H         1 <0>         0.1143
     38 H5          0.4562   -0.4072    0.8192 H         1 <0>         0.1331
     39 H6         -1.0803   -0.4089   -0.0793 H         1 <0>         0.1400
     40 H7          2.1098    0.9981   -1.0575 H         1 <0>         0.1596
     41 H8          2.5401   -0.5841   -0.3646 H         1 <0>         0.1409
     42 H9          2.3386    0.1106   -3.3319 H         1 <0>         0.1237
     43 H10         3.8286   -0.2470   -2.4192 H         1 <0>         0.1207
     44 H11         0.6114   -2.0579   -3.5131 H         1 <0>         0.1206
     45 H12         1.2226   -3.5189   -2.6927 H         1 <0>         0.1449
     46 H13         1.0905   -2.4039   -0.5167 H         1 <0>         0.1412
     47 H14        -0.4865   -2.2614   -1.3300 H         1 <0>         0.1601
     48 H15         2.4319   -4.5168   -3.0057 H         1 <0>         0.1813
     49 H16         6.7586   -6.2342   -3.9829 H         1 <0>         0.1697
     50 H17         9.2140   -2.7359   -4.0481 H         1 <0>         0.1633
     51 H18         7.2990   -1.3246   -3.5430 H         1 <0>         0.1600
     52 H19        10.0845   -5.1192   -3.9800 H         1 <0>         0.4256
     53 H20        11.6758   -5.7623   -5.5061 H         1 <0>         0.0819
     54 H21        12.2085   -7.2967   -6.2344 H         1 <0>         0.0887
     55 H22        10.9748   -6.3056   -7.0493 H         1 <0>         0.0821
     56 H23        11.8435   -8.8283   -4.4163 H         1 <0>         0.1464
     57 H24        13.1723  -10.8847   -4.1652 H         1 <0>         0.1479
     58 H25        10.8137  -12.7846   -7.1709 H         1 <0>         0.1559
     59 H26         4.0297   -6.6751   -4.5833 H         1 <0>         0.1192
     60 H27         5.1722   -6.9447   -3.2453 H         1 <0>         0.0994
     61 H28         3.4377   -6.7342   -2.9057 H         1 <0>         0.1020
     62 H29         0.2193   -0.0842   -2.0875 H         1 <0>         0.4281
     63 H30         4.9438   -1.2412   -3.1158 H         1 <0>         0.4332
@<TRIPOS>BOND
     1    1    2 1
     2    1   35 1
     3    1   36 1
     4    1   37 1
     5    2    3 1
     6    2   38 1
     7    2   39 1
     8    3    8 1
     9    3    4 1
    10    3   62 1
    11    4    5 1
    12    4   40 1
    13    4   41 1
    14    5    6 1
    15    5   42 1
    16    5   43 1
    17    6    7 1
    18    6    9 1
    19    7    8 1
    20    7   44 1
    21    7   45 1
    22    8   46 1
    23    8   47 1
    24    9   18 ar
    25    9   10 ar
    26   10   11 ar
    27   10   48 1
    28   11   12 ar
    29   11   34 1
    30   12   17 ar
    31   12   13 ar
    32   13   14 ar
    33   13   49 1
    34   14   15 ar
    35   14   19 1
    36   15   16 ar
    37   15   50 1
    38   16   17 ar
    39   16   51 1
    40   17   18 ar
    41   18   63 1
    42   19   20 am
    43   19   52 1
    44   20   21 2
    45   20   22 1
    46   22   23 1
    47   22   24 1
    48   22   25 1
    49   24   53 1
    50   24   54 1
    51   24   55 1
    52   25   26 1
    53   26   31 ar
    54   26   27 ar
    55   27   28 ar
    56   27   56 1
    57   28   29 ar
    58   28   57 1
    59   29   30 ar
    60   29   33 1
    61   30   31 ar
    62   30   58 1
    63   31   32 1
    64   34   59 1
    65   34   60 1
    66   34   61 1
@<TRIPOS>MOLECULE
ZINC13581278
   59    62     0     0     0
SMALL
USER_CHARGES
2-(4-chlorophenoxy)-N-[2-(4-ethylpiperazin-1-yl)-4-methyl-6-quinolyl]acetamide
@<TRIPOS>ATOM
      1 C1         -5.8916    3.2521   13.3354 C.3       1 <0>        -0.1547
      2 C2         -5.3360    4.3954   12.4839 C.3       1 <0>         0.0494
      3 N1         -4.6979    3.8446   11.2808 N.3       1 <0>        -0.5421
      4 C3         -4.3635    4.9112   10.3268 C.3       1 <0>         0.0547
      5 C4         -3.7752    4.2906    9.0575 C.3       1 <0>         0.0161
      6 N2         -2.5820    3.5068    9.4062 N.pl3     1 <0>        -0.4718
      7 C5         -2.9163    2.4402   10.3602 C.3       1 <0>         0.0555
      8 C6         -3.5047    3.0608   11.6295 C.3       1 <0>         0.0434
      9 C7         -1.9792    2.9865    8.2698 C.ar      1 <0>         0.4268
     10 C8         -0.8218    2.2064    8.4050 C.ar      1 <0>        -0.1893
     11 C9         -0.2196    1.6888    7.2981 C.ar      1 <0>         0.0871
     12 C10        -0.7908    1.9603    6.0375 C.ar      1 <0>        -0.0778
     13 C11        -0.2231    1.4536    4.8589 C.ar      1 <0>        -0.1023
     14 C12        -0.8066    1.7451    3.6453 C.ar      1 <0>         0.1792
     15 C13        -1.9623    2.5309    3.5824 C.ar      1 <0>        -0.0456
     16 C14        -2.5324    3.0283    4.7124 C.ar      1 <0>        -0.1212
     17 C15        -1.9607    2.7551    5.9671 C.ar      1 <0>         0.1404
     18 N3         -2.5078    3.2366    7.0900 N.ar      1 <0>        -0.5234
     19 N4         -0.2416    1.2460    2.4658 N.am      1 <0>        -0.6878
     20 C16        -0.2786    1.9815    1.3370 C.2       1 <0>         0.5244
     21 O1         -0.8731    3.0386    1.3212 O.2       1 <0>        -0.4895
     22 C17         0.4187    1.4906    0.0945 C.3       1 <0>         0.0389
     23 O2          0.2365    2.4378   -0.9598 O.3       1 <0>        -0.2880
     24 C18         0.8068    2.1446   -2.1582 C.ar      1 <0>         0.1271
     25 C19         1.5316    0.9721   -2.3140 C.ar      1 <0>        -0.1979
     26 C20         2.1065    0.6735   -3.5342 C.ar      1 <0>        -0.0684
     27 C21         1.9685    1.5481   -4.5975 C.ar      1 <0>        -0.0677
     28 C22         1.2504    2.7206   -4.4425 C.ar      1 <0>        -0.0671
     29 C23         0.6696    3.0202   -3.2254 C.ar      1 <0>        -0.1307
     30 Cl1         2.6969    1.1736   -6.1281 Cl        1 <0>        -0.0603
     31 C24         1.0247    0.8471    7.4176 C.3       1 <0>        -0.1484
     32 H1         -6.3694    3.6646   14.2363 H         1 <0>         0.0683
     33 H2         -5.0706    2.5819   13.6300 H         1 <0>         0.0560
     34 H3         -6.6342    2.6879   12.7521 H         1 <0>         0.0662
     35 H4         -6.1570    5.0656   12.1893 H         1 <0>         0.0834
     36 H5         -4.5934    4.9596   13.0672 H         1 <0>         0.0427
     37 H6         -5.2735    5.4746   10.0729 H         1 <0>         0.1039
     38 H7         -3.6262    5.5904   10.7797 H         1 <0>         0.0580
     39 H8         -4.5232    3.6333    8.5901 H         1 <0>         0.0819
     40 H9         -3.4978    5.0890    8.3536 H         1 <0>         0.1021
     41 H10        -3.6535    1.7610    9.9072 H         1 <0>         0.0805
     42 H11        -2.0062    1.8769   10.6142 H         1 <0>         0.1107
     43 H12        -2.7576    3.7188   12.0974 H         1 <0>         0.0571
     44 H13        -3.7830    2.2630   12.3338 H         1 <0>         0.1078
     45 H14        -0.4088    2.0161    9.3846 H         1 <0>         0.1815
     46 H15         0.6665    0.8427    4.9023 H         1 <0>         0.1618
     47 H16        -2.4083    2.7454    2.6225 H         1 <0>         0.1671
     48 H17        -3.4248    3.6329    4.6457 H         1 <0>         0.1567
     49 H18         0.2326    0.2535    2.4602 H         1 <0>         0.4506
     50 H19         1.4929    1.3722    0.2994 H         1 <0>         0.1055
     51 H20        -0.0062    0.5215   -0.2058 H         1 <0>         0.1057
     52 H21         1.6429    0.2911   -1.4832 H         1 <0>         0.1365
     53 H22         2.6674   -0.2412   -3.6571 H         1 <0>         0.1400
     54 H23         1.1435    3.4018   -5.2737 H         1 <0>         0.1452
     55 H24         0.1089    3.9353   -3.1049 H         1 <0>         0.1438
     56 H25         1.3500    0.5293    6.4160 H         1 <0>         0.0906
     57 H26         0.8099   -0.0397    8.0319 H         1 <0>         0.1082
     58 H27         1.8225    1.4374    7.8921 H         1 <0>         0.1080
     59 H28        -3.4164    3.8519    7.0137 H         1 <0>         0.4710
@<TRIPOS>BOND
     1    1    2 1
     2    1   32 1
     3    1   33 1
     4    1   34 1
     5    2    3 1
     6    2   35 1
     7    2   36 1
     8    3    8 1
     9    3    4 1
    10    4    5 1
    11    4   37 1
    12    4   38 1
    13    5    6 1
    14    5   39 1
    15    5   40 1
    16    6    7 1
    17    6    9 1
    18    7    8 1
    19    7   41 1
    20    7   42 1
    21    8   43 1
    22    8   44 1
    23    9   18 ar
    24    9   10 ar
    25   10   11 ar
    26   10   45 1
    27   11   12 ar
    28   11   31 1
    29   12   17 ar
    30   12   13 ar
    31   13   14 ar
    32   13   46 1
    33   14   15 ar
    34   14   19 1
    35   15   16 ar
    36   15   47 1
    37   16   17 ar
    38   16   48 1
    39   17   18 ar
    40   18   59 1
    41   19   20 am
    42   19   49 1
    43   20   21 2
    44   20   22 1
    45   22   23 1
    46   22   50 1
    47   22   51 1
    48   23   24 1
    49   24   29 ar
    50   24   25 ar
    51   25   26 ar
    52   25   52 1
    53   26   27 ar
    54   26   53 1
    55   27   28 ar
    56   27   30 1
    57   28   29 ar
    58   28   54 1
    59   29   55 1
    60   31   56 1
    61   31   57 1
    62   31   58 1
@<TRIPOS>MOLECULE
ZINC13581278
   59    62     0     0     0
SMALL
USER_CHARGES
2-(4-chlorophenoxy)-N-[2-(4-ethylpiperazin-1-yl)-4-methyl-6-quinolyl]acetamide
@<TRIPOS>ATOM
      1 C1         -5.8916    3.2521   13.3354 C.3       1 <0>        -0.1906
      2 C2         -5.3360    4.3954   12.4839 C.3       1 <0>        -0.0074
      3 N1         -4.6979    3.8446   11.2808 N.4       1 <0>        -0.4036
      4 C3         -4.3635    4.9112   10.3268 C.3       1 <0>        -0.0026
      5 C4         -3.7752    4.2906    9.0575 C.3       1 <0>         0.0372
      6 N2         -2.5820    3.5068    9.4062 N.pl3     1 <0>        -0.4767
      7 C5         -2.9163    2.4402   10.3602 C.3       1 <0>         0.0284
      8 C6         -3.5047    3.0608   11.6295 C.3       1 <0>        -0.0022
      9 C7         -1.9792    2.9865    8.2698 C.ar      1 <0>         0.3225
     10 C8         -0.8218    2.2064    8.4050 C.ar      1 <0>        -0.1840
     11 C9         -0.2196    1.6888    7.2981 C.ar      1 <0>         0.0046
     12 C10        -0.7908    1.9603    6.0375 C.ar      1 <0>        -0.0897
     13 C11        -0.2231    1.4536    4.8589 C.ar      1 <0>        -0.1284
     14 C12        -0.8066    1.7451    3.6453 C.ar      1 <0>         0.1663
     15 C13        -1.9623    2.5309    3.5824 C.ar      1 <0>        -0.0888
     16 C14        -2.5324    3.0283    4.7124 C.ar      1 <0>        -0.0830
     17 C15        -1.9607    2.7551    5.9671 C.ar      1 <0>         0.1445
     18 N3         -2.5078    3.2366    7.0900 N.ar      1 <0>        -0.5092
     19 N4         -0.2416    1.2460    2.4658 N.am      1 <0>        -0.6861
     20 C16        -0.2786    1.9815    1.3370 C.2       1 <0>         0.5207
     21 O1         -0.8731    3.0386    1.3212 O.2       1 <0>        -0.4929
     22 C17         0.4187    1.4906    0.0945 C.3       1 <0>         0.0391
     23 O2          0.2365    2.4378   -0.9598 O.3       1 <0>        -0.2868
     24 C18         0.8068    2.1446   -2.1582 C.ar      1 <0>         0.1301
     25 C19         1.5316    0.9721   -2.3140 C.ar      1 <0>        -0.1987
     26 C20         2.1065    0.6735   -3.5342 C.ar      1 <0>        -0.0684
     27 C21         1.9685    1.5481   -4.5975 C.ar      1 <0>        -0.0697
     28 C22         1.2504    2.7206   -4.4425 C.ar      1 <0>        -0.0674
     29 C23         0.6696    3.0202   -3.2254 C.ar      1 <0>        -0.1323
     30 Cl1         2.6969    1.1736   -6.1281 Cl        1 <0>        -0.0632
     31 C24         1.0247    0.8471    7.4176 C.3       1 <0>        -0.1307
     32 H1         -6.3694    3.6646   14.2363 H         1 <0>         0.1074
     33 H2         -5.0706    2.5819   13.6300 H         1 <0>         0.0797
     34 H3         -6.6342    2.6879   12.7521 H         1 <0>         0.0809
     35 H4         -6.1570    5.0656   12.1893 H         1 <0>         0.1320
     36 H5         -4.5934    4.9596   13.0672 H         1 <0>         0.1279
     37 H6         -5.2735    5.4746   10.0729 H         1 <0>         0.1406
     38 H7         -3.6262    5.5904   10.7797 H         1 <0>         0.1355
     39 H8         -4.5232    3.6333    8.5901 H         1 <0>         0.0769
     40 H9         -3.4978    5.0890    8.3536 H         1 <0>         0.1333
     41 H10        -3.6535    1.7610    9.9072 H         1 <0>         0.0723
     42 H11        -2.0062    1.8769   10.6142 H         1 <0>         0.1306
     43 H12        -2.7576    3.7188   12.0974 H         1 <0>         0.1382
     44 H13        -3.7830    2.2630   12.3338 H         1 <0>         0.1421
     45 H14        -0.4088    2.0161    9.3846 H         1 <0>         0.1397
     46 H15         0.6665    0.8427    4.9023 H         1 <0>         0.1414
     47 H16        -2.4083    2.7454    2.6225 H         1 <0>         0.1507
     48 H17        -3.4248    3.6329    4.6457 H         1 <0>         0.1407
     49 H18         0.2326    0.2535    2.4602 H         1 <0>         0.4420
     50 H19         1.4929    1.3722    0.2994 H         1 <0>         0.1025
     51 H20        -0.0062    0.5215   -0.2058 H         1 <0>         0.1024
     52 H21         1.6429    0.2911   -1.4832 H         1 <0>         0.1368
     53 H22         2.6674   -0.2412   -3.6571 H         1 <0>         0.1390
     54 H23         1.1435    3.4018   -5.2737 H         1 <0>         0.1442
     55 H24         0.1089    3.9353   -3.1049 H         1 <0>         0.1437
     56 H25         1.3500    0.5293    6.4160 H         1 <0>         0.0784
     57 H26         0.8099   -0.0397    8.0319 H         1 <0>         0.0849
     58 H27         1.8225    1.4374    7.8921 H         1 <0>         0.0861
     59 H28        -5.4185    3.1692   10.7965 H         1 <0>         0.4389
@<TRIPOS>BOND
     1    1    2 1
     2    1   32 1
     3    1   33 1
     4    1   34 1
     5    2    3 1
     6    2   35 1
     7    2   36 1
     8    3    8 1
     9    3    4 1
    10    3   59 1
    11    4    5 1
    12    4   37 1
    13    4   38 1
    14    5    6 1
    15    5   39 1
    16    5   40 1
    17    6    7 1
    18    6    9 1
    19    7    8 1
    20    7   41 1
    21    7   42 1
    22    8   43 1
    23    8   44 1
    24    9   18 ar
    25    9   10 ar
    26   10   11 ar
    27   10   45 1
    28   11   12 ar
    29   11   31 1
    30   12   17 ar
    31   12   13 ar
    32   13   14 ar
    33   13   46 1
    34   14   15 ar
    35   14   19 1
    36   15   16 ar
    37   15   47 1
    38   16   17 ar
    39   16   48 1
    40   17   18 ar
    41   19   20 am
    42   19   49 1
    43   20   21 2
    44   20   22 1
    45   22   23 1
    46   22   50 1
    47   22   51 1
    48   23   24 1
    49   24   29 ar
    50   24   25 ar
    51   25   26 ar
    52   25   52 1
    53   26   27 ar
    54   26   53 1
    55   27   28 ar
    56   27   30 1
    57   28   29 ar
    58   28   54 1
    59   29   55 1
    60   31   56 1
    61   31   57 1
    62   31   58 1
@<TRIPOS>MOLECULE
ZINC13581278
   58    61     0     0     0
SMALL
USER_CHARGES
2-(4-chlorophenoxy)-N-[2-(4-ethylpiperazin-1-yl)-4-methyl-6-quinolyl]acetamide
@<TRIPOS>ATOM
      1 C1         -5.8916    3.2521   13.3354 C.3       1 <0>        -0.1517
      2 C2         -5.3360    4.3954   12.4839 C.3       1 <0>         0.0495
      3 N1         -4.6979    3.8446   11.2808 N.3       1 <0>        -0.5411
      4 C3         -4.3635    4.9112   10.3268 C.3       1 <0>         0.0511
      5 C4         -3.7752    4.2906    9.0575 C.3       1 <0>         0.0693
      6 N2         -2.5820    3.5068    9.4062 N.pl3     1 <0>        -0.4783
      7 C5         -2.9163    2.4402   10.3602 C.3       1 <0>         0.0615
      8 C6         -3.5047    3.0608   11.6295 C.3       1 <0>         0.0521
      9 C7         -1.9792    2.9865    8.2698 C.ar      1 <0>         0.3447
     10 C8         -0.8218    2.2064    8.4050 C.ar      1 <0>        -0.1795
     11 C9         -0.2196    1.6888    7.2981 C.ar      1 <0>        -0.0083
     12 C10        -0.7908    1.9603    6.0375 C.ar      1 <0>        -0.1029
     13 C11        -0.2231    1.4536    4.8589 C.ar      1 <0>        -0.1209
     14 C12        -0.8066    1.7451    3.6453 C.ar      1 <0>         0.1468
     15 C13        -1.9623    2.5309    3.5824 C.ar      1 <0>        -0.0937
     16 C14        -2.5324    3.0283    4.7124 C.ar      1 <0>        -0.0841
     17 C15        -1.9607    2.7551    5.9671 C.ar      1 <0>         0.1522
     18 N3         -2.5078    3.2366    7.0900 N.ar      1 <0>        -0.5168
     19 N4         -0.2416    1.2460    2.4658 N.am      1 <0>        -0.6825
     20 C16        -0.2786    1.9815    1.3370 C.2       1 <0>         0.5178
     21 O1         -0.8731    3.0386    1.3212 O.2       1 <0>        -0.4949
     22 C17         0.4187    1.4906    0.0945 C.3       1 <0>         0.0395
     23 O2          0.2365    2.4378   -0.9598 O.3       1 <0>        -0.2855
     24 C18         0.8068    2.1446   -2.1582 C.ar      1 <0>         0.1334
     25 C19         1.5316    0.9721   -2.3140 C.ar      1 <0>        -0.1993
     26 C20         2.1065    0.6735   -3.5342 C.ar      1 <0>        -0.0684
     27 C21         1.9685    1.5481   -4.5975 C.ar      1 <0>        -0.0718
     28 C22         1.2504    2.7206   -4.4425 C.ar      1 <0>        -0.0679
     29 C23         0.6696    3.0202   -3.2254 C.ar      1 <0>        -0.1335
     30 Cl1         2.6969    1.1736   -6.1281 Cl        1 <0>        -0.0671
     31 C24         1.0247    0.8471    7.4176 C.3       1 <0>        -0.1242
     32 H1         -6.3694    3.6646   14.2363 H         1 <0>         0.0608
     33 H2         -5.0706    2.5819   13.6300 H         1 <0>         0.0547
     34 H3         -6.6342    2.6879   12.7521 H         1 <0>         0.0640
     35 H4         -6.1570    5.0656   12.1893 H         1 <0>         0.0768
     36 H5         -4.5934    4.9596   13.0672 H         1 <0>         0.0349
     37 H6         -5.2735    5.4746   10.0729 H         1 <0>         0.0864
     38 H7         -3.6262    5.5904   10.7797 H         1 <0>         0.0433
     39 H8         -4.5232    3.6333    8.5901 H         1 <0>         0.0621
     40 H9         -3.4978    5.0890    8.3536 H         1 <0>         0.0923
     41 H10        -3.6535    1.7610    9.9072 H         1 <0>         0.0574
     42 H11        -2.0062    1.8769   10.6142 H         1 <0>         0.0895
     43 H12        -2.7576    3.7188   12.0974 H         1 <0>         0.0460
     44 H13        -3.7830    2.2630   12.3338 H         1 <0>         0.0902
     45 H14        -0.4088    2.0161    9.3846 H         1 <0>         0.1383
     46 H15         0.6665    0.8427    4.9023 H         1 <0>         0.1360
     47 H16        -2.4083    2.7454    2.6225 H         1 <0>         0.1454
     48 H17        -3.4248    3.6329    4.6457 H         1 <0>         0.1386
     49 H18         0.2326    0.2535    2.4602 H         1 <0>         0.4375
     50 H19         1.4929    1.3722    0.2994 H         1 <0>         0.1009
     51 H20        -0.0062    0.5215   -0.2058 H         1 <0>         0.1007
     52 H21         1.6429    0.2911   -1.4832 H         1 <0>         0.1375
     53 H22         2.6674   -0.2412   -3.6571 H         1 <0>         0.1381
     54 H23         1.1435    3.4018   -5.2737 H         1 <0>         0.1430
     55 H24         0.1089    3.9353   -3.1049 H         1 <0>         0.1438
     56 H25         1.3500    0.5293    6.4160 H         1 <0>         0.0740
     57 H26         0.8099   -0.0397    8.0319 H         1 <0>         0.0810
     58 H27         1.8225    1.4374    7.8921 H         1 <0>         0.0812
@<TRIPOS>BOND
     1    1    2 1
     2    1   32 1
     3    1   33 1
     4    1   34 1
     5    2    3 1
     6    2   35 1
     7    2   36 1
     8    3    8 1
     9    3    4 1
    10    4    5 1
    11    4   37 1
    12    4   38 1
    13    5    6 1
    14    5   39 1
    15    5   40 1
    16    6    7 1
    17    6    9 1
    18    7    8 1
    19    7   41 1
    20    7   42 1
    21    8   43 1
    22    8   44 1
    23    9   18 ar
    24    9   10 ar
    25   10   11 ar
    26   10   45 1
    27   11   12 ar
    28   11   31 1
    29   12   17 ar
    30   12   13 ar
    31   13   14 ar
    32   13   46 1
    33   14   15 ar
    34   14   19 1
    35   15   16 ar
    36   15   47 1
    37   16   17 ar
    38   16   48 1
    39   17   18 ar
    40   19   20 am
    41   19   49 1
    42   20   21 2
    43   20   22 1
    44   22   23 1
    45   22   50 1
    46   22   51 1
    47   23   24 1
    48   24   29 ar
    49   24   25 ar
    50   25   26 ar
    51   25   52 1
    52   26   27 ar
    53   26   53 1
    54   27   28 ar
    55   27   30 1
    56   28   29 ar
    57   28   54 1
    58   29   55 1
    59   31   56 1
    60   31   57 1
    61   31   58 1
@<TRIPOS>MOLECULE
ZINC13581278
   60    63     0     0     0
SMALL
USER_CHARGES

@<TRIPOS>ATOM
      1 C1          0.0476    1.4702   -0.0133 C.3       1 <0>        -0.1919
      2 C2          0.0557   -0.0598   -0.0183 C.3       1 <0>        -0.0116
      3 N1         -1.3266   -0.5569   -0.0063 N.4       1 <0>        -0.3872
      4 C3         -1.9991   -0.1578   -1.2490 C.3       1 <0>        -0.0253
      5 C4         -3.4720   -0.5757   -1.1884 C.3       1 <0>         0.0762
      6 N2         -3.5364   -2.0166   -0.8989 N.pl3     1 <0>        -0.6170
      7 C5         -2.7566   -2.5308    0.2376 C.3       1 <0>         0.0896
      8 C6         -1.3175   -2.0206    0.1097 C.3       1 <0>        -0.0238
      9 C7         -4.3111   -2.8664   -1.6754 C.ar      1 <0>         0.4988
     10 C8         -4.2632   -4.2472   -1.4353 C.ar      1 <0>        -0.2348
     11 C9         -5.0184   -5.0934   -2.1898 C.ar      1 <0>         0.1236
     12 C10        -5.8332   -4.5417   -3.2001 C.ar      1 <0>        -0.0872
     13 C11        -6.6355   -5.3575   -4.0120 C.ar      1 <0>        -0.0678
     14 C12        -7.4185   -4.7818   -4.9886 C.ar      1 <0>         0.1730
     15 C13        -7.4181   -3.3953   -5.1748 C.ar      1 <0>        -0.0503
     16 C14        -6.6481   -2.5855   -4.3998 C.ar      1 <0>        -0.1195
     17 C15        -5.8376   -3.1389   -3.3933 C.ar      1 <0>         0.1387
     18 N3         -5.0779   -2.3569   -2.6167 N.ar      1 <0>        -0.5136
     19 N4         -8.2210   -5.5911   -5.8015 N.am      1 <0>        -0.6743
     20 C16        -8.7939   -6.6998   -5.2926 C.2       1 <0>         0.5239
     21 O1         -8.6960   -6.9442   -4.1087 O.2       1 <0>        -0.4844
     22 C17        -9.5561   -7.6359   -6.1947 C.3       1 <0>         0.0400
     23 O2        -10.0649   -8.7284   -5.4269 O.3       1 <0>        -0.2891
     24 C18       -10.7819   -9.6707   -6.0944 C.ar      1 <0>         0.1234
     25 C19       -10.9863   -9.5489   -7.4610 C.ar      1 <0>        -0.1972
     26 C20       -11.7154  -10.5076   -8.1376 C.ar      1 <0>        -0.0681
     27 C21       -12.2419  -11.5886   -7.4529 C.ar      1 <0>        -0.0655
     28 C22       -12.0395  -11.7116   -6.0897 C.ar      1 <0>        -0.0668
     29 C23       -11.3054  -10.7584   -5.4108 C.ar      1 <0>        -0.1295
     30 Cl1       -13.1582  -12.7917   -8.3053 Cl        1 <0>        -0.0563
     31 C24        -4.9837   -6.5810   -1.9513 C.3       1 <0>        -0.1523
     32 H1          1.0733    1.8390   -0.0222 H         1 <0>         0.1143
     33 H2         -0.4769    1.8336   -0.8970 H         1 <0>         0.0797
     34 H3         -0.4594    1.8279    0.8829 H         1 <0>         0.0847
     35 H4          0.5627   -0.4175   -0.9144 H         1 <0>         0.1331
     36 H5          0.5802   -0.4232    0.8654 H         1 <0>         0.1400
     37 H6         -1.9327    0.9238   -1.3671 H         1 <0>         0.1597
     38 H7         -1.5173   -0.6462   -2.0960 H         1 <0>         0.1409
     39 H8         -3.9781   -0.0204   -0.3987 H         1 <0>         0.1237
     40 H9         -3.9500   -0.3730   -2.1468 H         1 <0>         0.1207
     41 H10        -3.1904   -2.1730    1.1713 H         1 <0>         0.1206
     42 H11        -2.7616   -3.6207    0.2220 H         1 <0>         0.1449
     43 H12        -0.8563   -2.4527   -0.7785 H         1 <0>         0.1412
     44 H13        -0.7488   -2.3117    0.9928 H         1 <0>         0.1601
     45 H14        -3.6287   -4.6390   -0.6541 H         1 <0>         0.1813
     46 H15        -6.6389   -6.4285   -3.8728 H         1 <0>         0.1701
     47 H16        -8.0380   -2.9617   -5.9455 H         1 <0>         0.1634
     48 H17        -6.6595   -1.5172   -4.5574 H         1 <0>         0.1599
     49 H18        -8.3646   -5.3538   -6.7310 H         1 <0>         0.4268
     50 H19       -10.3848   -7.1000   -6.6576 H         1 <0>         0.1058
     51 H20        -8.8907   -8.0155   -6.9701 H         1 <0>         0.1070
     52 H21       -10.5761   -8.7049   -7.9956 H         1 <0>         0.1358
     53 H22       -11.8747  -10.4131   -9.2016 H         1 <0>         0.1410
     54 H23       -12.4515  -12.5558   -5.5569 H         1 <0>         0.1463
     55 H24       -11.1435  -10.8572   -4.3475 H         1 <0>         0.1436
     56 H25        -5.7475   -6.8499   -1.2216 H         1 <0>         0.1191
     57 H26        -5.1762   -7.1038   -2.8882 H         1 <0>         0.0995
     58 H27        -4.0023   -6.8653   -1.5716 H         1 <0>         0.1019
     59 H28        -1.8180   -0.1614    0.7812 H         1 <0>         0.4281
     60 H29        -5.0897   -1.3965   -2.7526 H         1 <0>         0.4332
@<TRIPOS>BOND
     1    1    2 1
     2    1   32 1
     3    1   33 1
     4    1   34 1
     5    2    3 1
     6    2   35 1
     7    2   36 1
     8    3    8 1
     9    3    4 1
    10    3   59 1
    11    4    5 1
    12    4   37 1
    13    4   38 1
    14    5    6 1
    15    5   39 1
    16    5   40 1
    17    6    7 1
    18    6    9 1
    19    7    8 1
    20    7   41 1
    21    7   42 1
    22    8   43 1
    23    8   44 1
    24    9   18 ar
    25    9   10 ar
    26   10   11 ar
    27   10   45 1
    28   11   12 ar
    29   11   31 1
    30   12   17 ar
    31   12   13 ar
    32   13   14 ar
    33   13   46 1
    34   14   15 ar
    35   14   19 1
    36   15   16 ar
    37   15   47 1
    38   16   17 ar
    39   16   48 1
    40   17   18 ar
    41   18   60 1
    42   19   20 am
    43   19   49 1
    44   20   21 2
    45   20   22 1
    46   22   23 1
    47   22   50 1
    48   22   51 1
    49   23   24 1
    50   24   29 ar
    51   24   25 ar
    52   25   26 ar
    53   25   52 1
    54   26   27 ar
    55   26   53 1
    56   27   28 ar
    57   27   30 1
    58   28   29 ar
    59   28   54 1
    60   29   55 1
    61   31   56 1
    62   31   57 1
    63   31   58 1
@<TRIPOS>MOLECULE
ZINC09835022
   66    69     0     0     0
SMALL
USER_CHARGES
N-[2-(4-ethylpiperazin-1-yl)-4-methyl-6-quinolyl]-3-(4-methoxyphenyl)-propanamide
@<TRIPOS>ATOM
      1 C1         -0.1961  -17.1091   -4.1034 C.3       1 <0>        -0.1925
      2 C2          1.0609  -16.5058   -3.4735 C.3       1 <0>        -0.0055
      3 C3          2.0225  -14.4350   -2.6661 C.3       1 <0>         0.0080
      4 C4          1.8280  -12.9176   -2.6230 C.3       1 <0>        -0.0129
      5 N1          1.8378  -12.3860   -3.9930 N.pl3     1 <0>        -0.4857
      6 C5          0.7675  -12.9918   -4.7975 C.3       1 <0>         0.0244
      7 C6          0.9620  -14.5093   -4.8406 C.3       1 <0>        -0.0050
      8 C7          1.7352  -11.0022   -3.9902 C.ar      1 <0>         0.4158
      9 C8          1.7275  -10.3138   -5.2120 C.ar      1 <0>        -0.1904
     10 C9          1.6269   -8.9554   -5.2244 C.ar      1 <0>         0.1187
     11 C10         1.5326   -8.2806   -3.9896 C.ar      1 <0>        -0.0703
     12 C11         1.4218   -6.8832   -3.9325 C.ar      1 <0>        -0.1029
     13 C12         1.3374   -6.2590   -2.7072 C.ar      1 <0>         0.1863
     14 C13         1.3511   -7.0077   -1.5255 C.ar      1 <0>        -0.0328
     15 C14         1.4526   -8.3633   -1.5572 C.ar      1 <0>        -0.1281
     16 C15         1.5459   -9.0326   -2.7898 C.ar      1 <0>         0.1378
     17 N2          1.2314   -4.8646   -2.6443 N.am      1 <0>        -0.6796
     18 C16         1.8198   -4.1888   -1.6375 C.2       1 <0>         0.5217
     19 O1          2.3703   -4.7932   -0.7416 O.2       1 <0>        -0.5077
     20 C17         1.7937   -2.6820   -1.6251 C.3       1 <0>        -0.1360
     21 C18         2.5264   -2.1695   -0.3835 C.3       1 <0>        -0.0576
     22 C19         2.5003   -0.6628   -0.3710 C.ar      1 <0>        -0.1360
     23 C20         1.4610    0.0043    0.2505 C.ar      1 <0>        -0.0735
     24 C21         1.4350    1.3854    0.2638 C.ar      1 <0>        -0.1495
     25 C22         2.4529    2.1031   -0.3473 C.ar      1 <0>         0.1336
     26 C23         3.4949    1.4314   -0.9699 C.ar      1 <0>        -0.2065
     27 C24         3.5161    0.0501   -0.9808 C.ar      1 <0>        -0.0730
     28 O2          2.4294    3.4618   -0.3360 O.3       1 <0>        -0.3154
     29 C25         3.5103    4.1348   -0.9847 C.3       1 <0>         0.0253
     30 C26         1.6160   -8.1932   -6.5244 C.3       1 <0>        -0.1539
     31 H1         -1.0710  -16.8108   -3.5258 H         1 <0>         0.0821
     32 H2         -0.2974  -16.7502   -5.1277 H         1 <0>         0.0813
     33 H3         -0.1156  -18.1962   -4.1056 H         1 <0>         0.1142
     34 H4          1.9358  -16.8041   -4.0512 H         1 <0>         0.1376
     35 H5          1.1621  -16.8647   -2.4493 H         1 <0>         0.1362
     36 H6          2.9891  -14.6652   -3.1143 H         1 <0>         0.1524
     37 H7          1.9871  -14.8351   -1.6528 H         1 <0>         0.1545
     38 H8          2.6370  -12.4633   -2.0509 H         1 <0>         0.1405
     39 H9          0.8735  -12.6865   -2.1501 H         1 <0>         0.0919
     40 H10        -0.1990  -12.7616   -4.3493 H         1 <0>         0.0931
     41 H11         0.8034  -12.5917   -5.8108 H         1 <0>         0.1497
     42 H12         1.9165  -14.7403   -5.3135 H         1 <0>         0.1518
     43 H13         0.1533  -14.9638   -5.4128 H         1 <0>         0.1558
     44 H14         1.8009  -10.8595   -6.1411 H         1 <0>         0.1884
     45 H15         1.4063   -6.3009   -4.8420 H         1 <0>         0.1668
     46 H16         1.2795   -6.5016   -0.5741 H         1 <0>         0.1728
     47 H17         1.4613   -8.9259   -0.6353 H         1 <0>         0.1576
     48 H18         0.7345   -4.3848   -3.3253 H         1 <0>         0.4259
     49 H19         0.7600   -2.3367   -1.6053 H         1 <0>         0.1083
     50 H20         2.2865   -2.3027   -2.5202 H         1 <0>         0.1073
     51 H21         3.5601   -2.5149   -0.4033 H         1 <0>         0.0802
     52 H22         2.0337   -2.5489    0.5116 H         1 <0>         0.0813
     53 H23         0.6689   -0.5548    0.7264 H         1 <0>         0.1288
     54 H24         0.6206    1.9061    0.7455 H         1 <0>         0.1338
     55 H25         4.2885    1.9878   -1.4463 H         1 <0>         0.1307
     56 H26         4.3268   -0.4733   -1.4656 H         1 <0>         0.1237
     57 H27         3.3691    5.2125   -0.9024 H         1 <0>         0.1050
     58 H28         4.4504    3.8542   -0.5098 H         1 <0>         0.0578
     59 H29         3.5359    3.8511   -2.0368 H         1 <0>         0.0569
     60 H30         0.5892   -8.0856   -6.8740 H         1 <0>         0.1183
     61 H31         2.0528   -7.2064   -6.3707 H         1 <0>         0.1014
     62 H32         2.1983   -8.7362   -7.2689 H         1 <0>         0.1050
     63 N3          0.9279  -15.0334   -3.4591 N.4       1 <0>        -0.4030
     64 H33         0.0294  -14.7837   -3.0295 H         1 <0>         0.4277
     65 N4          1.6476  -10.4071   -2.7750 N.ar      1 <0>        -0.5334
     66 H34         1.6564  -10.9454   -1.9007 H         1 <0>         0.4608
@<TRIPOS>BOND
     1    1    2 1
     2    1   31 1
     3    1   32 1
     4    1   33 1
     5    2   34 1
     6    2   35 1
     7    2   63 1
     8    3    4 1
     9    3   36 1
    10    3   37 1
    11    3   63 1
    12    4    5 1
    13    4   38 1
    14    4   39 1
    15    5    6 1
    16    5    8 1
    17    6    7 1
    18    6   40 1
    19    6   41 1
    20    7   42 1
    21    7   43 1
    22    7   63 1
    23    8    9 ar
    24    8   65 ar
    25    9   10 ar
    26    9   44 1
    27   10   11 ar
    28   10   30 1
    29   11   16 ar
    30   11   12 ar
    31   12   13 ar
    32   12   45 1
    33   13   14 ar
    34   13   17 1
    35   14   15 ar
    36   14   46 1
    37   15   16 ar
    38   15   47 1
    39   16   65 ar
    40   17   18 am
    41   17   48 1
    42   18   19 2
    43   18   20 1
    44   20   21 1
    45   20   49 1
    46   20   50 1
    47   21   22 1
    48   21   51 1
    49   21   52 1
    50   22   27 ar
    51   22   23 ar
    52   23   24 ar
    53   23   53 1
    54   24   25 ar
    55   24   54 1
    56   25   26 ar
    57   25   28 1
    58   26   27 ar
    59   26   55 1
    60   27   56 1
    61   28   29 1
    62   29   57 1
    63   29   58 1
    64   29   59 1
    65   30   60 1
    66   30   61 1
    67   30   62 1
    68   63   64 1
    69   65   66 1
@<TRIPOS>MOLECULE
ZINC20108635
   62    65     0     0     0
SMALL
USER_CHARGES
N-[2-(4-ethylpiperazin-1-yl)-4-methyl-6-quinolyl]-2-(3-methylphenoxy)acetamide
@<TRIPOS>ATOM
      1 C1          1.6801   20.4960    1.6401 C.3       1 <0>        -0.1547
      2 C2          1.1208   19.8239    0.3846 C.3       1 <0>         0.0494
      3 N1          1.3390   18.3735    0.4671 N.3       1 <0>        -0.5422
      4 C3          0.6114   17.6700   -0.5985 C.3       1 <0>         0.0548
      5 C4          0.7995   16.1605   -0.4302 C.3       1 <0>         0.0161
      6 N2          2.2330   15.8401   -0.4751 N.pl3     1 <0>        -0.4720
      7 C5          2.9606   16.5436    0.5904 C.3       1 <0>         0.0555
      8 C6          2.7725   18.0531    0.4222 C.3       1 <0>         0.0435
      9 C7          2.4391   14.4701   -0.3972 C.ar      1 <0>         0.4265
     10 C8          3.7498   13.9723   -0.4247 C.ar      1 <0>        -0.1894
     11 C9          3.9671   12.6297   -0.3485 C.ar      1 <0>         0.0871
     12 C10         2.8491   11.7763   -0.2431 C.ar      1 <0>        -0.0775
     13 C11         3.0037   10.3847   -0.1561 C.ar      1 <0>        -0.1031
     14 C12         1.8873    9.5830   -0.0599 C.ar      1 <0>         0.1801
     15 C13         0.6071   10.1465   -0.0380 C.ar      1 <0>        -0.0457
     16 C14         0.4339   11.4930   -0.1160 C.ar      1 <0>        -0.1212
     17 C15         1.5505   12.3405   -0.2204 C.ar      1 <0>         0.1399
     18 N3          1.3993   13.6683   -0.2986 N.ar      1 <0>        -0.5232
     19 N4          2.0356    8.1935    0.0225 N.am      1 <0>        -0.6882
     20 C16         1.1288    7.3834   -0.5588 C.2       1 <0>         0.5242
     21 O1          0.1412    7.8550   -1.0816 O.2       1 <0>        -0.4900
     22 C17         1.3420    5.8915   -0.5593 C.3       1 <0>         0.0412
     23 O2          0.2526    5.2549   -1.2302 O.3       1 <0>        -0.2920
     24 C18         0.2903    3.8993   -1.3193 C.ar      1 <0>         0.1249
     25 C19         1.3541    3.1963   -0.7722 C.ar      1 <0>        -0.2166
     26 C20         1.3903    1.8186   -0.8644 C.ar      1 <0>        -0.0745
     27 C21         0.3677    1.1400   -1.5018 C.ar      1 <0>        -0.1523
     28 C22        -0.6904    1.8386   -2.0528 C.ar      1 <0>        -0.0414
     29 C23        -0.7344    3.2163   -1.9577 C.ar      1 <0>        -0.1463
     30 C24        -1.7997    1.0964   -2.7525 C.3       1 <0>        -0.1226
     31 C25         5.3662   12.0705   -0.3757 C.3       1 <0>        -0.1484
     32 H1          1.5167   21.5820    1.5783 H         1 <0>         0.0683
     33 H2          2.7582   20.2911    1.7163 H         1 <0>         0.0561
     34 H3          1.1675   20.0980    2.5283 H         1 <0>         0.0662
     35 H4          0.0427   20.0288    0.3084 H         1 <0>         0.0834
     36 H5          1.6333   20.2219   -0.5036 H         1 <0>         0.0427
     37 H6         -0.4588   17.9164   -0.5360 H         1 <0>         0.1039
     38 H7          1.0030   17.9824   -1.5778 H         1 <0>         0.0580
     39 H8          0.3823   15.8447    0.5374 H         1 <0>         0.0818
     40 H9          0.2793   15.6332   -1.2434 H         1 <0>         0.1020
     41 H10         2.5690   16.2312    1.5697 H         1 <0>         0.0804
     42 H11         4.0308   16.2973    0.5279 H         1 <0>         0.1107
     43 H12         3.1889   18.3699   -0.5454 H         1 <0>         0.0571
     44 H13         3.2919   18.5812    1.2354 H         1 <0>         0.1077
     45 H14         4.5852   14.6519   -0.5058 H         1 <0>         0.1814
     46 H15         3.9900    9.9449   -0.1681 H         1 <0>         0.1617
     47 H16        -0.2564    9.5027    0.0424 H         1 <0>         0.1671
     48 H17        -0.5617   11.9114   -0.0973 H         1 <0>         0.1566
     49 H18         2.8922    7.7628    0.5617 H         1 <0>         0.4504
     50 H19         2.2817    5.6556   -1.0802 H         1 <0>         0.1035
     51 H20         1.3965    5.5285    0.4777 H         1 <0>         0.1036
     52 H21         2.1533    3.7258   -0.2749 H         1 <0>         0.1260
     53 H22         2.2180    1.2709   -0.4387 H         1 <0>         0.1286
     54 H23         0.3980    0.0628   -1.5733 H         1 <0>         0.1277
     55 H24        -1.5636    3.7613   -2.3841 H         1 <0>         0.1327
     56 H25        -2.5456    1.8154   -3.1222 H         1 <0>         0.0694
     57 H26        -2.2784    0.4018   -2.0465 H         1 <0>         0.0768
     58 H27        -1.3848    0.5303   -3.5995 H         1 <0>         0.0768
     59 H28         5.3241   10.9737   -0.3036 H         1 <0>         0.0906
     60 H29         5.9382   12.4722    0.4737 H         1 <0>         0.1081
     61 H30         5.8575   12.3575   -1.3171 H         1 <0>         0.1079
     62 H31         0.3821   14.0866   -0.2792 H         1 <0>         0.4709
@<TRIPOS>BOND
     1    1    2 1
     2    1   32 1
     3    1   33 1
     4    1   34 1
     5    2    3 1
     6    2   35 1
     7    2   36 1
     8    3    8 1
     9    3    4 1
    10    4    5 1
    11    4   37 1
    12    4   38 1
    13    5    6 1
    14    5   39 1
    15    5   40 1
    16    6    7 1
    17    6    9 1
    18    7    8 1
    19    7   41 1
    20    7   42 1
    21    8   43 1
    22    8   44 1
    23    9   18 ar
    24    9   10 ar
    25   10   11 ar
    26   10   45 1
    27   11   12 ar
    28   11   31 1
    29   12   17 ar
    30   12   13 ar
    31   13   14 ar
    32   13   46 1
    33   14   15 ar
    34   14   19 1
    35   15   16 ar
    36   15   47 1
    37   16   17 ar
    38   16   48 1
    39   17   18 ar
    40   18   62 1
    41   19   20 am
    42   19   49 1
    43   20   21 2
    44   20   22 1
    45   22   23 1
    46   22   50 1
    47   22   51 1
    48   23   24 1
    49   24   29 ar
    50   24   25 ar
    51   25   26 ar
    52   25   52 1
    53   26   27 ar
    54   26   53 1
    55   27   28 ar
    56   27   54 1
    57   28   29 ar
    58   28   30 1
    59   29   55 1
    60   30   56 1
    61   30   57 1
    62   30   58 1
    63   31   59 1
    64   31   60 1
    65   31   61 1
@<TRIPOS>MOLECULE
ZINC20108635
   62    65     0     0     0
SMALL
USER_CHARGES
N-[2-(4-ethylpiperazin-1-yl)-4-methyl-6-quinolyl]-2-(3-methylphenoxy)acetamide
@<TRIPOS>ATOM
      1 C1          1.6801   20.4960    1.6401 C.3       1 <0>        -0.1906
      2 C2          1.1208   19.8239    0.3846 C.3       1 <0>        -0.0074
      3 N1          1.3390   18.3735    0.4671 N.4       1 <0>        -0.4036
      4 C3          0.6114   17.6700   -0.5985 C.3       1 <0>        -0.0025
      5 C4          0.7995   16.1605   -0.4302 C.3       1 <0>         0.0372
      6 N2          2.2330   15.8401   -0.4751 N.pl3     1 <0>        -0.4767
      7 C5          2.9606   16.5436    0.5904 C.3       1 <0>         0.0284
      8 C6          2.7725   18.0531    0.4222 C.3       1 <0>        -0.0021
      9 C7          2.4391   14.4701   -0.3972 C.ar      1 <0>         0.3219
     10 C8          3.7498   13.9723   -0.4247 C.ar      1 <0>        -0.1839
     11 C9          3.9671   12.6297   -0.3485 C.ar      1 <0>         0.0044
     12 C10         2.8491   11.7763   -0.2431 C.ar      1 <0>        -0.0893
     13 C11         3.0037   10.3847   -0.1561 C.ar      1 <0>        -0.1293
     14 C12         1.8873    9.5830   -0.0599 C.ar      1 <0>         0.1673
     15 C13         0.6071   10.1465   -0.0380 C.ar      1 <0>        -0.0888
     16 C14         0.4339   11.4930   -0.1160 C.ar      1 <0>        -0.0830
     17 C15         1.5505   12.3405   -0.2204 C.ar      1 <0>         0.1440
     18 N3          1.3993   13.6683   -0.2986 N.ar      1 <0>        -0.5089
     19 N4          2.0356    8.1935    0.0225 N.am      1 <0>        -0.6866
     20 C16         1.1288    7.3834   -0.5588 C.2       1 <0>         0.5207
     21 O1          0.1412    7.8550   -1.0816 O.2       1 <0>        -0.4934
     22 C17         1.3420    5.8915   -0.5593 C.3       1 <0>         0.0415
     23 O2          0.2526    5.2549   -1.2302 O.3       1 <0>        -0.2909
     24 C18         0.2903    3.8993   -1.3193 C.ar      1 <0>         0.1276
     25 C19         1.3541    3.1963   -0.7722 C.ar      1 <0>        -0.2172
     26 C20         1.3903    1.8186   -0.8644 C.ar      1 <0>        -0.0748
     27 C21         0.3677    1.1400   -1.5018 C.ar      1 <0>        -0.1547
     28 C22        -0.6904    1.8386   -2.0528 C.ar      1 <0>        -0.0427
     29 C23        -0.7344    3.2163   -1.9577 C.ar      1 <0>        -0.1475
     30 C24        -1.7997    1.0964   -2.7525 C.3       1 <0>        -0.1215
     31 C25         5.3662   12.0705   -0.3757 C.3       1 <0>        -0.1307
     32 H1          1.5167   21.5820    1.5783 H         1 <0>         0.1073
     33 H2          2.7582   20.2911    1.7163 H         1 <0>         0.0797
     34 H3          1.1675   20.0980    2.5283 H         1 <0>         0.0809
     35 H4          0.0427   20.0288    0.3084 H         1 <0>         0.1320
     36 H5          1.6333   20.2219   -0.5036 H         1 <0>         0.1279
     37 H6         -0.4588   17.9164   -0.5360 H         1 <0>         0.1406
     38 H7          1.0030   17.9824   -1.5778 H         1 <0>         0.1355
     39 H8          0.3823   15.8447    0.5374 H         1 <0>         0.0768
     40 H9          0.2793   15.6332   -1.2434 H         1 <0>         0.1333
     41 H10         2.5690   16.2312    1.5697 H         1 <0>         0.0722
     42 H11         4.0308   16.2973    0.5279 H         1 <0>         0.1306
     43 H12         3.1889   18.3699   -0.5454 H         1 <0>         0.1382
     44 H13         3.2919   18.5812    1.2354 H         1 <0>         0.1420
     45 H14         4.5852   14.6519   -0.5058 H         1 <0>         0.1396
     46 H15         3.9900    9.9449   -0.1681 H         1 <0>         0.1413
     47 H16        -0.2564    9.5027    0.0424 H         1 <0>         0.1507
     48 H17        -0.5617   11.9114   -0.0973 H         1 <0>         0.1407
     49 H18         2.8922    7.7628    0.5617 H         1 <0>         0.4418
     50 H19         2.2817    5.6556   -1.0802 H         1 <0>         0.1003
     51 H20         1.3965    5.5285    0.4777 H         1 <0>         0.1002
     52 H21         2.1533    3.7258   -0.2749 H         1 <0>         0.1262
     53 H22         2.2180    1.2709   -0.4387 H         1 <0>         0.1277
     54 H23         0.3980    0.0628   -1.5733 H         1 <0>         0.1266
     55 H24        -1.5636    3.7613   -2.3841 H         1 <0>         0.1325
     56 H25        -2.5456    1.8154   -3.1222 H         1 <0>         0.0691
     57 H26        -2.2784    0.4018   -2.0465 H         1 <0>         0.0758
     58 H27        -1.3848    0.5303   -3.5995 H         1 <0>         0.0758
     59 H28         5.3241   10.9737   -0.3036 H         1 <0>         0.0785
     60 H29         5.9382   12.4722    0.4737 H         1 <0>         0.0848
     61 H30         5.8575   12.3575   -1.3171 H         1 <0>         0.0860
     62 H31         0.9438   18.0279    1.4338 H         1 <0>         0.4388
@<TRIPOS>BOND
     1    1    2 1
     2    1   32 1
     3    1   33 1
     4    1   34 1
     5    2    3 1
     6    2   35 1
     7    2   36 1
     8    3    8 1
     9    3    4 1
    10    3   62 1
    11    4    5 1
    12    4   37 1
    13    4   38 1
    14    5    6 1
    15    5   39 1
    16    5   40 1
    17    6    7 1
    18    6    9 1
    19    7    8 1
    20    7   41 1
    21    7   42 1
    22    8   43 1
    23    8   44 1
    24    9   18 ar
    25    9   10 ar
    26   10   11 ar
    27   10   45 1
    28   11   12 ar
    29   11   31 1
    30   12   17 ar
    31   12   13 ar
    32   13   14 ar
    33   13   46 1
    34   14   15 ar
    35   14   19 1
    36   15   16 ar
    37   15   47 1
    38   16   17 ar
    39   16   48 1
    40   17   18 ar
    41   19   20 am
    42   19   49 1
    43   20   21 2
    44   20   22 1
    45   22   23 1
    46   22   50 1
    47   22   51 1
    48   23   24 1
    49   24   29 ar
    50   24   25 ar
    51   25   26 ar
    52   25   52 1
    53   26   27 ar
    54   26   53 1
    55   27   28 ar
    56   27   54 1
    57   28   29 ar
    58   28   30 1
    59   29   55 1
    60   30   56 1
    61   30   57 1
    62   30   58 1
    63   31   59 1
    64   31   60 1
    65   31   61 1
@<TRIPOS>MOLECULE
ZINC20108635
   61    64     0     0     0
SMALL
USER_CHARGES
N-[2-(4-ethylpiperazin-1-yl)-4-methyl-6-quinolyl]-2-(3-methylphenoxy)acetamide
@<TRIPOS>ATOM
      1 C1          1.6801   20.4960    1.6401 C.3       1 <0>        -0.1517
      2 C2          1.1208   19.8239    0.3846 C.3       1 <0>         0.0496
      3 N1          1.3390   18.3735    0.4671 N.3       1 <0>        -0.5411
      4 C3          0.6114   17.6700   -0.5985 C.3       1 <0>         0.0511
      5 C4          0.7995   16.1605   -0.4302 C.3       1 <0>         0.0693
      6 N2          2.2330   15.8401   -0.4751 N.pl3     1 <0>        -0.4783
      7 C5          2.9606   16.5436    0.5904 C.3       1 <0>         0.0616
      8 C6          2.7725   18.0531    0.4222 C.3       1 <0>         0.0522
      9 C7          2.4391   14.4701   -0.3972 C.ar      1 <0>         0.3441
     10 C8          3.7498   13.9723   -0.4247 C.ar      1 <0>        -0.1794
     11 C9          3.9671   12.6297   -0.3485 C.ar      1 <0>        -0.0085
     12 C10         2.8491   11.7763   -0.2431 C.ar      1 <0>        -0.1025
     13 C11         3.0037   10.3847   -0.1561 C.ar      1 <0>        -0.1218
     14 C12         1.8873    9.5830   -0.0599 C.ar      1 <0>         0.1478
     15 C13         0.6071   10.1465   -0.0380 C.ar      1 <0>        -0.0937
     16 C14         0.4339   11.4930   -0.1160 C.ar      1 <0>        -0.0841
     17 C15         1.5505   12.3405   -0.2204 C.ar      1 <0>         0.1517
     18 N3          1.3993   13.6683   -0.2986 N.ar      1 <0>        -0.5166
     19 N4          2.0356    8.1935    0.0225 N.am      1 <0>        -0.6831
     20 C16         1.1288    7.3834   -0.5588 C.2       1 <0>         0.5178
     21 O1          0.1412    7.8550   -1.0816 O.2       1 <0>        -0.4954
     22 C17         1.3420    5.8915   -0.5593 C.3       1 <0>         0.0419
     23 O2          0.2526    5.2549   -1.2302 O.3       1 <0>        -0.2897
     24 C18         0.2903    3.8993   -1.3193 C.ar      1 <0>         0.1305
     25 C19         1.3541    3.1963   -0.7722 C.ar      1 <0>        -0.2174
     26 C20         1.3903    1.8186   -0.8644 C.ar      1 <0>        -0.0753
     27 C21         0.3677    1.1400   -1.5018 C.ar      1 <0>        -0.1573
     28 C22        -0.6904    1.8386   -2.0528 C.ar      1 <0>        -0.0442
     29 C23        -0.7344    3.2163   -1.9577 C.ar      1 <0>        -0.1483
     30 C24        -1.7997    1.0964   -2.7525 C.3       1 <0>        -0.1203
     31 C25         5.3662   12.0705   -0.3757 C.3       1 <0>        -0.1241
     32 H1          1.5167   21.5820    1.5783 H         1 <0>         0.0608
     33 H2          2.7582   20.2911    1.7163 H         1 <0>         0.0547
     34 H3          1.1675   20.0980    2.5283 H         1 <0>         0.0640
     35 H4          0.0427   20.0288    0.3084 H         1 <0>         0.0767
     36 H5          1.6333   20.2219   -0.5036 H         1 <0>         0.0349
     37 H6         -0.4588   17.9164   -0.5360 H         1 <0>         0.0864
     38 H7          1.0030   17.9824   -1.5778 H         1 <0>         0.0433
     39 H8          0.3823   15.8447    0.5374 H         1 <0>         0.0620
     40 H9          0.2793   15.6332   -1.2434 H         1 <0>         0.0922
     41 H10         2.5690   16.2312    1.5697 H         1 <0>         0.0573
     42 H11         4.0308   16.2973    0.5279 H         1 <0>         0.0894
     43 H12         3.1889   18.3699   -0.5454 H         1 <0>         0.0459
     44 H13         3.2919   18.5812    1.2354 H         1 <0>         0.0902
     45 H14         4.5852   14.6519   -0.5058 H         1 <0>         0.1382
     46 H15         3.9900    9.9449   -0.1681 H         1 <0>         0.1359
     47 H16        -0.2564    9.5027    0.0424 H         1 <0>         0.1454
     48 H17        -0.5617   11.9114   -0.0973 H         1 <0>         0.1385
     49 H18         2.8922    7.7628    0.5617 H         1 <0>         0.4373
     50 H19         2.2817    5.6556   -1.0802 H         1 <0>         0.0987
     51 H20         1.3965    5.5285    0.4777 H         1 <0>         0.0984
     52 H21         2.1533    3.7258   -0.2749 H         1 <0>         0.1269
     53 H22         2.2180    1.2709   -0.4387 H         1 <0>         0.1266
     54 H23         0.3980    0.0628   -1.5733 H         1 <0>         0.1250
     55 H24        -1.5636    3.7613   -2.3841 H         1 <0>         0.1326
     56 H25        -2.5456    1.8154   -3.1222 H         1 <0>         0.0689
     57 H26        -2.2784    0.4018   -2.0465 H         1 <0>         0.0746
     58 H27        -1.3848    0.5303   -3.5995 H         1 <0>         0.0746
     59 H28         5.3241   10.9737   -0.3036 H         1 <0>         0.0741
     60 H29         5.9382   12.4722    0.4737 H         1 <0>         0.0809
     61 H30         5.8575   12.3575   -1.3171 H         1 <0>         0.0811
@<TRIPOS>BOND
     1    1    2 1
     2    1   32 1
     3    1   33 1
     4    1   34 1
     5    2    3 1
     6    2   35 1
     7    2   36 1
     8    3    8 1
     9    3    4 1
    10    4    5 1
    11    4   37 1
    12    4   38 1
    13    5    6 1
    14    5   39 1
    15    5   40 1
    16    6    7 1
    17    6    9 1
    18    7    8 1
    19    7   41 1
    20    7   42 1
    21    8   43 1
    22    8   44 1
    23    9   18 ar
    24    9   10 ar
    25   10   11 ar
    26   10   45 1
    27   11   12 ar
    28   11   31 1
    29   12   17 ar
    30   12   13 ar
    31   13   14 ar
    32   13   46 1
    33   14   15 ar
    34   14   19 1
    35   15   16 ar
    36   15   47 1
    37   16   17 ar
    38   16   48 1
    39   17   18 ar
    40   19   20 am
    41   19   49 1
    42   20   21 2
    43   20   22 1
    44   22   23 1
    45   22   50 1
    46   22   51 1
    47   23   24 1
    48   24   29 ar
    49   24   25 ar
    50   25   26 ar
    51   25   52 1
    52   26   27 ar
    53   26   53 1
    54   27   28 ar
    55   27   54 1
    56   28   29 ar
    57   28   30 1
    58   29   55 1
    59   30   56 1
    60   30   57 1
    61   30   58 1
    62   31   59 1
    63   31   60 1
    64   31   61 1
@<TRIPOS>MOLECULE
ZINC20114362
   56    59     0     0     0
SMALL
USER_CHARGES
2-(2,4-dichlorophenoxy)-N-[4-methyl-2-(4-methylpiperazin-1-yl)-6-quinolyl]acetamide
@<TRIPOS>ATOM
      1 C1          2.4959   -0.3129   -0.5698 C.3       1 <0>        -0.1464
      2 C2          2.4212    1.1773   -0.3581 C.ar      1 <0>         0.0855
      3 C3          3.5508    1.9392   -0.3489 C.ar      1 <0>        -0.1863
      4 C4          3.4572    3.3239   -0.1507 C.ar      1 <0>         0.4262
      5 N1          2.2954    3.9174    0.0296 N.ar      1 <0>        -0.5226
      6 C5          1.1523    3.2215    0.0302 C.ar      1 <0>         0.1388
      7 C6          1.1806    1.8189   -0.1650 C.ar      1 <0>        -0.0769
      8 C7         -0.0199    1.0929   -0.1636 C.ar      1 <0>        -0.1021
      9 C8         -1.2132    1.7558    0.0226 C.ar      1 <0>         0.1830
     10 C9         -1.2340    3.1406    0.2204 C.ar      1 <0>        -0.0459
     11 C10        -0.0828    3.8645    0.2229 C.ar      1 <0>        -0.1187
     12 N2         -2.4144    1.0370    0.0195 N.am      1 <0>        -0.6877
     13 C11        -3.5372    1.6031   -0.4654 C.2       1 <0>         0.5230
     14 O1         -3.4885    2.6975   -0.9861 O.2       1 <0>        -0.4838
     15 C12        -4.8533    0.8764   -0.3606 C.3       1 <0>         0.0363
     16 O2         -5.8861    1.6753   -0.9413 O.3       1 <0>        -0.2764
     17 C13        -7.1446    1.1613   -0.9288 C.ar      1 <0>         0.1370
     18 C14        -7.3799   -0.0857   -0.3691 C.ar      1 <0>        -0.1865
     19 C15        -8.6595   -0.6065   -0.3573 C.ar      1 <0>        -0.0629
     20 C16        -9.7066    0.1149   -0.9032 C.ar      1 <0>        -0.0572
     21 C17        -9.4748    1.3588   -1.4625 C.ar      1 <0>        -0.0618
     22 C18        -8.1968    1.8863   -1.4709 C.ar      1 <0>        -0.0533
     23 Cl1        -7.9072    3.4509   -2.1652 Cl        1 <0>        -0.0346
     24 Cl2       -11.3133   -0.5423   -0.8867 Cl        1 <0>        -0.0468
     25 N3          4.6161    4.0871   -0.1437 N.pl3     1 <0>        -0.4723
     26 C19         5.5660    3.5930    0.8629 C.3       1 <0>         0.0548
     27 C20         6.8585    4.4089    0.7844 C.3       1 <0>         0.0456
     28 N4          6.5525    5.8291    1.0055 N.3       1 <0>        -0.5461
     29 C21         5.6026    6.3231   -0.0011 C.3       1 <0>         0.0538
     30 C22         4.3100    5.5073    0.0774 C.3       1 <0>         0.0158
     31 C23         7.7793    6.6371    1.0128 C.3       1 <0>         0.0193
     32 H1          3.5463   -0.6126   -0.6997 H         1 <0>         0.0957
     33 H2          1.9232   -0.5847   -1.4687 H         1 <0>         0.1048
     34 H3          2.0728   -0.8291    0.3046 H         1 <0>         0.1048
     35 H4          4.5162    1.4773   -0.4937 H         1 <0>         0.1815
     36 H5         -0.0090    0.0232   -0.3119 H         1 <0>         0.1601
     37 H6         -2.1786    3.6428    0.3685 H         1 <0>         0.1622
     38 H7         -0.1175    4.9335    0.3727 H         1 <0>         0.1567
     39 H8         -2.4419    0.0101    0.4128 H         1 <0>         0.4503
     40 H9         -4.7865   -0.0822   -0.8959 H         1 <0>         0.1071
     41 H10        -5.0857    0.6896    0.6982 H         1 <0>         0.1084
     42 H11        -6.5633   -0.6492    0.0575 H         1 <0>         0.1465
     43 H12        -8.8427   -1.5774    0.0788 H         1 <0>         0.1472
     44 H13       -10.2933    1.9203   -1.8881 H         1 <0>         0.1550
     45 H14         5.1254    3.6977    1.8654 H         1 <0>         0.0808
     46 H15         5.7878    2.5332    0.6687 H         1 <0>         0.1114
     47 H16         7.5601    4.0595    1.5562 H         1 <0>         0.1059
     48 H17         7.3130    4.2811   -0.2091 H         1 <0>         0.0578
     49 H18         5.3808    7.3829    0.1930 H         1 <0>         0.1044
     50 H19         6.0431    6.2183   -1.0036 H         1 <0>         0.0585
     51 H20         3.6080    5.8555   -0.6945 H         1 <0>         0.1024
     52 H21         3.8550    5.6340    1.0708 H         1 <0>         0.0819
     53 H22         7.5216    7.6934    1.1798 H         1 <0>         0.0785
     54 H23         8.2924    6.5333    0.0454 H         1 <0>         0.0362
     55 H24         8.4424    6.2896    1.8187 H         1 <0>         0.0800
     56 H25         2.2518    5.0057    0.1836 H         1 <0>         0.4711
@<TRIPOS>BOND
     1    1    2 1
     2    1   32 1
     3    1   33 1
     4    1   34 1
     5    2    7 ar
     6    2    3 ar
     7    3    4 ar
     8    3   35 1
     9    4    5 ar
    10    4   25 1
    11    5    6 ar
    12    5   56 1
    13    6   11 ar
    14    6    7 ar
    15    7    8 ar
    16    8    9 ar
    17    8   36 1
    18    9   10 ar
    19    9   12 1
    20   10   11 ar
    21   10   37 1
    22   11   38 1
    23   12   13 am
    24   12   39 1
    25   13   14 2
    26   13   15 1
    27   15   16 1
    28   15   40 1
    29   15   41 1
    30   16   17 1
    31   17   22 ar
    32   17   18 ar
    33   18   19 ar
    34   18   42 1
    35   19   20 ar
    36   19   43 1
    37   20   21 ar
    38   20   24 1
    39   21   22 ar
    40   21   44 1
    41   22   23 1
    42   25   30 1
    43   25   26 1
    44   26   27 1
    45   26   45 1
    46   26   46 1
    47   27   28 1
    48   27   47 1
    49   27   48 1
    50   28   29 1
    51   28   31 1
    52   29   30 1
    53   29   49 1
    54   29   50 1
    55   30   51 1
    56   30   52 1
    57   31   53 1
    58   31   54 1
    59   31   55 1
@<TRIPOS>MOLECULE
ZINC20114362
   56    59     0     0     0
SMALL
USER_CHARGES
2-(2,4-dichlorophenoxy)-N-[4-methyl-2-(4-methylpiperazin-1-yl)-6-quinolyl]acetamide
@<TRIPOS>ATOM
      1 C1          2.4959   -0.3129   -0.5698 C.3       1 <0>        -0.1272
      2 C2          2.4212    1.1773   -0.3581 C.ar      1 <0>         0.0032
      3 C3          3.5508    1.9392   -0.3489 C.ar      1 <0>        -0.1815
      4 C4          3.4572    3.3239   -0.1507 C.ar      1 <0>         0.3212
      5 N1          2.2954    3.9174    0.0296 N.ar      1 <0>        -0.5085
      6 C5          1.1523    3.2215    0.0302 C.ar      1 <0>         0.1432
      7 C6          1.1806    1.8189   -0.1650 C.ar      1 <0>        -0.0891
      8 C7         -0.0199    1.0929   -0.1636 C.ar      1 <0>        -0.1276
      9 C8         -1.2132    1.7558    0.0226 C.ar      1 <0>         0.1700
     10 C9         -1.2340    3.1406    0.2204 C.ar      1 <0>        -0.0888
     11 C10        -0.0828    3.8645    0.2229 C.ar      1 <0>        -0.0803
     12 N2         -2.4144    1.0370    0.0195 N.am      1 <0>        -0.6861
     13 C11        -3.5372    1.6031   -0.4654 C.2       1 <0>         0.5197
     14 O1         -3.4885    2.6975   -0.9861 O.2       1 <0>        -0.4875
     15 C12        -4.8533    0.8764   -0.3606 C.3       1 <0>         0.0366
     16 O2         -5.8861    1.6753   -0.9413 O.3       1 <0>        -0.2750
     17 C13        -7.1446    1.1613   -0.9288 C.ar      1 <0>         0.1398
     18 C14        -7.3799   -0.0857   -0.3691 C.ar      1 <0>        -0.1874
     19 C15        -8.6595   -0.6065   -0.3573 C.ar      1 <0>        -0.0628
     20 C16        -9.7066    0.1149   -0.9032 C.ar      1 <0>        -0.0592
     21 C17        -9.4748    1.3588   -1.4625 C.ar      1 <0>        -0.0620
     22 C18        -8.1968    1.8863   -1.4709 C.ar      1 <0>        -0.0547
     23 Cl1        -7.9072    3.4509   -2.1652 Cl        1 <0>        -0.0349
     24 Cl2       -11.3133   -0.5423   -0.8867 Cl        1 <0>        -0.0498
     25 N3          4.6161    4.0871   -0.1437 N.pl3     1 <0>        -0.4772
     26 C19         5.5660    3.5930    0.8629 C.3       1 <0>         0.0270
     27 C20         6.8585    4.4089    0.7844 C.3       1 <0>         0.0007
     28 N4          6.5525    5.8291    1.0055 N.4       1 <0>        -0.4044
     29 C21         5.6026    6.3231   -0.0011 C.3       1 <0>        -0.0033
     30 C22         4.3100    5.5073    0.0774 C.3       1 <0>         0.0364
     31 C23         7.7793    6.6371    1.0128 C.3       1 <0>        -0.0451
     32 H1          3.5463   -0.6126   -0.6997 H         1 <0>         0.0773
     33 H2          1.9232   -0.5847   -1.4687 H         1 <0>         0.0852
     34 H3          2.0728   -0.8291    0.3046 H         1 <0>         0.0842
     35 H4          4.5162    1.4773   -0.4937 H         1 <0>         0.1397
     36 H5         -0.0090    0.0232   -0.3119 H         1 <0>         0.1393
     37 H6         -2.1786    3.6428    0.3685 H         1 <0>         0.1456
     38 H7         -0.1175    4.9335    0.3727 H         1 <0>         0.1409
     39 H8         -2.4419    0.0101    0.4128 H         1 <0>         0.4418
     40 H9         -4.7865   -0.0822   -0.8959 H         1 <0>         0.1040
     41 H10        -5.0857    0.6896    0.6982 H         1 <0>         0.1052
     42 H11        -6.5633   -0.6492    0.0575 H         1 <0>         0.1467
     43 H12        -8.8427   -1.5774    0.0788 H         1 <0>         0.1463
     44 H13       -10.2933    1.9203   -1.8881 H         1 <0>         0.1540
     45 H14         5.1254    3.6977    1.8654 H         1 <0>         0.0727
     46 H15         5.7878    2.5332    0.6687 H         1 <0>         0.1308
     47 H16         7.5601    4.0595    1.5562 H         1 <0>         0.1422
     48 H17         7.3130    4.2811   -0.2091 H         1 <0>         0.1381
     49 H18         5.3808    7.3829    0.1930 H         1 <0>         0.1410
     50 H19         6.0431    6.2183   -1.0036 H         1 <0>         0.1355
     51 H20         3.6080    5.8555   -0.6945 H         1 <0>         0.1332
     52 H21         3.8550    5.6340    1.0708 H         1 <0>         0.0772
     53 H22         7.5216    7.6934    1.1798 H         1 <0>         0.1256
     54 H23         8.2924    6.5333    0.0454 H         1 <0>         0.1204
     55 H24         8.4424    6.2896    1.8187 H         1 <0>         0.1251
     56 H25         6.0802    5.9249    1.9943 H         1 <0>         0.4424
@<TRIPOS>BOND
     1    1    2 1
     2    1   32 1
     3    1   33 1
     4    1   34 1
     5    2    7 ar
     6    2    3 ar
     7    3    4 ar
     8    3   35 1
     9    4    5 ar
    10    4   25 1
    11    5    6 ar
    12    6   11 ar
    13    6    7 ar
    14    7    8 ar
    15    8    9 ar
    16    8   36 1
    17    9   10 ar
    18    9   12 1
    19   10   11 ar
    20   10   37 1
    21   11   38 1
    22   12   13 am
    23   12   39 1
    24   13   14 2
    25   13   15 1
    26   15   16 1
    27   15   40 1
    28   15   41 1
    29   16   17 1
    30   17   22 ar
    31   17   18 ar
    32   18   19 ar
    33   18   42 1
    34   19   20 ar
    35   19   43 1
    36   20   21 ar
    37   20   24 1
    38   21   22 ar
    39   21   44 1
    40   22   23 1
    41   25   30 1
    42   25   26 1
    43   26   27 1
    44   26   45 1
    45   26   46 1
    46   27   28 1
    47   27   47 1
    48   27   48 1
    49   28   29 1
    50   28   31 1
    51   28   56 1
    52   29   30 1
    53   29   49 1
    54   29   50 1
    55   30   51 1
    56   30   52 1
    57   31   53 1
    58   31   54 1
    59   31   55 1
@<TRIPOS>MOLECULE
ZINC20114362
   55    58     0     0     0
SMALL
USER_CHARGES
2-(2,4-dichlorophenoxy)-N-[4-methyl-2-(4-methylpiperazin-1-yl)-6-quinolyl]acetamide
@<TRIPOS>ATOM
      1 C1          2.4959   -0.3129   -0.5698 C.3       1 <0>        -0.1205
      2 C2          2.4212    1.1773   -0.3581 C.ar      1 <0>        -0.0098
      3 C3          3.5508    1.9392   -0.3489 C.ar      1 <0>        -0.1768
      4 C4          3.4572    3.3239   -0.1507 C.ar      1 <0>         0.3436
      5 N1          2.2954    3.9174    0.0296 N.ar      1 <0>        -0.5162
      6 C5          1.1523    3.2215    0.0302 C.ar      1 <0>         0.1510
      7 C6          1.1806    1.8189   -0.1650 C.ar      1 <0>        -0.1025
      8 C7         -0.0199    1.0929   -0.1636 C.ar      1 <0>        -0.1198
      9 C8         -1.2132    1.7558    0.0226 C.ar      1 <0>         0.1502
     10 C9         -1.2340    3.1406    0.2204 C.ar      1 <0>        -0.0937
     11 C10        -0.0828    3.8645    0.2229 C.ar      1 <0>        -0.0814
     12 N2         -2.4144    1.0370    0.0195 N.am      1 <0>        -0.6826
     13 C11        -3.5372    1.6031   -0.4654 C.2       1 <0>         0.5169
     14 O1         -3.4885    2.6975   -0.9861 O.2       1 <0>        -0.4896
     15 C12        -4.8533    0.8764   -0.3606 C.3       1 <0>         0.0369
     16 O2         -5.8861    1.6753   -0.9413 O.3       1 <0>        -0.2735
     17 C13        -7.1446    1.1613   -0.9288 C.ar      1 <0>         0.1430
     18 C14        -7.3799   -0.0857   -0.3691 C.ar      1 <0>        -0.1879
     19 C15        -8.6595   -0.6065   -0.3573 C.ar      1 <0>        -0.0629
     20 C16        -9.7066    0.1149   -0.9032 C.ar      1 <0>        -0.0613
     21 C17        -9.4748    1.3588   -1.4625 C.ar      1 <0>        -0.0624
     22 C18        -8.1968    1.8863   -1.4709 C.ar      1 <0>        -0.0560
     23 Cl1        -7.9072    3.4509   -2.1652 Cl        1 <0>        -0.0344
     24 Cl2       -11.3133   -0.5423   -0.8867 Cl        1 <0>        -0.0537
     25 N3          4.6161    4.0871   -0.1437 N.pl3     1 <0>        -0.4786
     26 C19         5.5660    3.5930    0.8629 C.3       1 <0>         0.0609
     27 C20         6.8585    4.4089    0.7844 C.3       1 <0>         0.0539
     28 N4          6.5525    5.8291    1.0055 N.3       1 <0>        -0.5459
     29 C21         5.6026    6.3231   -0.0011 C.3       1 <0>         0.0503
     30 C22         4.3100    5.5073    0.0774 C.3       1 <0>         0.0686
     31 C23         7.7793    6.6371    1.0128 C.3       1 <0>         0.0226
     32 H1          3.5463   -0.6126   -0.6997 H         1 <0>         0.0747
     33 H2          1.9232   -0.5847   -1.4687 H         1 <0>         0.0794
     34 H3          2.0728   -0.8291    0.3046 H         1 <0>         0.0791
     35 H4          4.5162    1.4773   -0.4937 H         1 <0>         0.1385
     36 H5         -0.0090    0.0232   -0.3119 H         1 <0>         0.1338
     37 H6         -2.1786    3.6428    0.3685 H         1 <0>         0.1403
     38 H7         -0.1175    4.9335    0.3727 H         1 <0>         0.1387
     39 H8         -2.4419    0.0101    0.4128 H         1 <0>         0.4373
     40 H9         -4.7865   -0.0822   -0.8959 H         1 <0>         0.1022
     41 H10        -5.0857    0.6896    0.6982 H         1 <0>         0.1036
     42 H11        -6.5633   -0.6492    0.0575 H         1 <0>         0.1474
     43 H12        -8.8427   -1.5774    0.0788 H         1 <0>         0.1453
     44 H13       -10.2933    1.9203   -1.8881 H         1 <0>         0.1528
     45 H14         5.1254    3.6977    1.8654 H         1 <0>         0.0577
     46 H15         5.7878    2.5332    0.6687 H         1 <0>         0.0902
     47 H16         7.5601    4.0595    1.5562 H         1 <0>         0.0881
     48 H17         7.3130    4.2811   -0.2091 H         1 <0>         0.0468
     49 H18         5.3808    7.3829    0.1930 H         1 <0>         0.0868
     50 H19         6.0431    6.2183   -1.0036 H         1 <0>         0.0438
     51 H20         3.6080    5.8555   -0.6945 H         1 <0>         0.0927
     52 H21         3.8550    5.6340    1.0708 H         1 <0>         0.0622
     53 H22         7.5216    7.6934    1.1798 H         1 <0>         0.0713
     54 H23         8.2924    6.5333    0.0454 H         1 <0>         0.0280
     55 H24         8.4424    6.2896    1.8187 H         1 <0>         0.0709
@<TRIPOS>BOND
     1    1    2 1
     2    1   32 1
     3    1   33 1
     4    1   34 1
     5    2    7 ar
     6    2    3 ar
     7    3    4 ar
     8    3   35 1
     9    4    5 ar
    10    4   25 1
    11    5    6 ar
    12    6   11 ar
    13    6    7 ar
    14    7    8 ar
    15    8    9 ar
    16    8   36 1
    17    9   10 ar
    18    9   12 1
    19   10   11 ar
    20   10   37 1
    21   11   38 1
    22   12   13 am
    23   12   39 1
    24   13   14 2
    25   13   15 1
    26   15   16 1
    27   15   40 1
    28   15   41 1
    29   16   17 1
    30   17   22 ar
    31   17   18 ar
    32   18   19 ar
    33   18   42 1
    34   19   20 ar
    35   19   43 1
    36   20   21 ar
    37   20   24 1
    38   21   22 ar
    39   21   44 1
    40   22   23 1
    41   25   30 1
    42   25   26 1
    43   26   27 1
    44   26   45 1
    45   26   46 1
    46   27   28 1
    47   27   47 1
    48   27   48 1
    49   28   29 1
    50   28   31 1
    51   29   30 1
    52   29   49 1
    53   29   50 1
    54   30   51 1
    55   30   52 1
    56   31   53 1
    57   31   54 1
    58   31   55 1
@<TRIPOS>MOLECULE
ZINC04799653
   63    66     0     0     0
SMALL
USER_CHARGES
3-(4-methoxyphenyl)-N-[4-methyl-2-(4-methylpiperazin-1-yl)-6-quinolyl]-propanamide
@<TRIPOS>ATOM
      1 C1          1.6155   -8.1932   -6.5242 C.3       1 <0>        -0.1540
      2 C2          1.6269   -8.9553   -5.2241 C.ar      1 <0>         0.1190
      3 C3          1.7275  -10.3140   -5.2115 C.ar      1 <0>        -0.1904
      4 C4          1.7356  -11.0021   -3.9901 C.ar      1 <0>         0.4152
      5 C5          1.5463   -9.0327   -2.7895 C.ar      1 <0>         0.1382
      6 C6          1.5331   -8.2805   -3.9896 C.ar      1 <0>        -0.0704
      7 C7          1.4218   -6.8831   -3.9325 C.ar      1 <0>        -0.1028
      8 C8          1.3374   -6.2590   -2.7072 C.ar      1 <0>         0.1864
      9 C9          1.3510   -7.0076   -1.5254 C.ar      1 <0>        -0.0325
     10 C10         1.4531   -8.3633   -1.5569 C.ar      1 <0>        -0.1283
     11 N1          1.2314   -4.8646   -2.6443 N.am      1 <0>        -0.6796
     12 C11         1.8198   -4.1888   -1.6375 C.2       1 <0>         0.5217
     13 O1          2.3703   -4.7932   -0.7416 O.2       1 <0>        -0.5077
     14 C12         1.7937   -2.6820   -1.6250 C.3       1 <0>        -0.1360
     15 C13         2.5264   -2.1695   -0.3835 C.3       1 <0>        -0.0576
     16 C14         2.5003   -0.6628   -0.3710 C.ar      1 <0>        -0.1360
     17 C15         1.4610    0.0043    0.2505 C.ar      1 <0>        -0.0735
     18 C16         1.4350    1.3854    0.2638 C.ar      1 <0>        -0.1495
     19 C17         2.4529    2.1031   -0.3473 C.ar      1 <0>         0.1337
     20 C18         3.4949    1.4313   -0.9699 C.ar      1 <0>        -0.2065
     21 C19         3.5161    0.0501   -0.9808 C.ar      1 <0>        -0.0730
     22 O2          2.4294    3.4618   -0.3360 O.3       1 <0>        -0.3154
     23 C20         3.5103    4.1348   -0.9847 C.3       1 <0>         0.0253
     24 N2          1.8387  -12.3859   -3.9928 N.pl3     1 <0>        -0.4861
     25 C21         0.7685  -12.9921   -4.7971 C.3       1 <0>         0.0232
     26 C22         0.9635  -14.5095   -4.8401 C.3       1 <0>        -0.0015
     27 C23         2.0244  -14.4348   -2.6658 C.3       1 <0>         0.0074
     28 C24         1.8294  -12.9174   -2.6228 C.3       1 <0>        -0.0133
     29 C25         1.0633  -16.5060   -3.4729 C.3       1 <0>        -0.0433
     30 H1          0.5886   -8.0857   -6.8733 H         1 <0>         0.1184
     31 H2          2.0523   -7.2064   -6.3707 H         1 <0>         0.1014
     32 H3          2.1975   -8.7363   -7.2688 H         1 <0>         0.1051
     33 H4          1.8006  -10.8598   -6.1406 H         1 <0>         0.1884
     34 H5          1.4062   -6.3008   -4.8420 H         1 <0>         0.1669
     35 H6          1.2791   -6.5015   -0.5741 H         1 <0>         0.1728
     36 H7          1.4621   -8.9257   -0.6350 H         1 <0>         0.1576
     37 H8          0.7345   -4.3848   -3.3253 H         1 <0>         0.4260
     38 H9          0.7600   -2.3367   -1.6053 H         1 <0>         0.1084
     39 H10         2.2865   -2.3027   -2.5202 H         1 <0>         0.1073
     40 H11         3.5601   -2.5149   -0.4033 H         1 <0>         0.0802
     41 H12         2.0337   -2.5489    0.5117 H         1 <0>         0.0813
     42 H13         0.6689   -0.5548    0.7264 H         1 <0>         0.1288
     43 H14         0.6206    1.9061    0.7455 H         1 <0>         0.1338
     44 H15         4.2886    1.9878   -1.4463 H         1 <0>         0.1307
     45 H16         4.3269   -0.4733   -1.4656 H         1 <0>         0.1237
     46 H17         3.5359    3.8511   -2.0368 H         1 <0>         0.0569
     47 H18         3.3691    5.2125   -0.9024 H         1 <0>         0.1050
     48 H19         4.4504    3.8542   -0.5097 H         1 <0>         0.0578
     49 H20        -0.1981  -12.7622   -4.3487 H         1 <0>         0.0934
     50 H21         0.8040  -12.5920   -5.8104 H         1 <0>         0.1498
     51 H22         1.9180  -14.7403   -5.3132 H         1 <0>         0.1516
     52 H23         0.1548  -14.9644   -5.4121 H         1 <0>         0.1561
     53 H24         2.9909  -14.6647   -3.1142 H         1 <0>         0.1525
     54 H25         1.9892  -14.8348   -1.6524 H         1 <0>         0.1549
     55 H26         2.6383  -12.4629   -2.0509 H         1 <0>         0.1404
     56 H27         0.8749  -12.6867   -2.1497 H         1 <0>         0.0920
     57 H28         0.9862  -16.8781   -2.4513 H         1 <0>         0.1299
     58 H29         0.2593  -16.9290   -4.0753 H         1 <0>         0.1312
     59 H30         2.0252  -16.7979   -3.8943 H         1 <0>         0.1304
     60 N3          1.6480  -10.4068   -2.7747 N.ar      1 <0>        -0.5334
     61 H31         1.6568  -10.9450   -1.9004 H         1 <0>         0.4608
     62 N4          0.9300  -15.0335   -3.4583 N.4       1 <0>        -0.4032
     63 H32         0.0315  -14.7842   -3.0284 H         1 <0>         0.4308
@<TRIPOS>BOND
     1    1    2 1
     2    1   30 1
     3    1   31 1
     4    1   32 1
     5    2    6 ar
     6    2    3 ar
     7    3    4 ar
     8    3   33 1
     9    4   24 1
    10    4   60 ar
    11    5   10 ar
    12    5    6 ar
    13    5   60 ar
    14    6    7 ar
    15    7    8 ar
    16    7   34 1
    17    8    9 ar
    18    8   11 1
    19    9   10 ar
    20    9   35 1
    21   10   36 1
    22   11   12 am
    23   11   37 1
    24   12   13 2
    25   12   14 1
    26   14   15 1
    27   14   38 1
    28   14   39 1
    29   15   16 1
    30   15   40 1
    31   15   41 1
    32   16   21 ar
    33   16   17 ar
    34   17   18 ar
    35   17   42 1
    36   18   19 ar
    37   18   43 1
    38   19   20 ar
    39   19   22 1
    40   20   21 ar
    41   20   44 1
    42   21   45 1
    43   22   23 1
    44   23   46 1
    45   23   47 1
    46   23   48 1
    47   24   28 1
    48   24   25 1
    49   25   26 1
    50   25   49 1
    51   25   50 1
    52   26   51 1
    53   26   52 1
    54   26   62 1
    55   27   28 1
    56   27   53 1
    57   27   54 1
    58   27   62 1
    59   28   55 1
    60   28   56 1
    61   29   57 1
    62   29   58 1
    63   29   59 1
    64   29   62 1
    65   60   61 1
    66   62   63 1
@<TRIPOS>MOLECULE
ZINC20114431
   59    62     0     0     0
SMALL
USER_CHARGES
(2R)-2-(2,4-dichlorophenoxy)-N-[4-methyl-2-(4-methylpiperazin-1-yl)-6-quinolyl]propanamide
@<TRIPOS>ATOM
      1 C1          7.4364   -8.2958    0.9875 C.3       1 <0>        -0.1464
      2 C2          6.1559   -8.8710    1.5359 C.ar      1 <0>         0.0860
      3 C3          6.1157  -10.1395    2.0315 C.ar      1 <0>        -0.1869
      4 C4          4.9134  -10.6537    2.5371 C.ar      1 <0>         0.4266
      5 N1          3.8078   -9.9381    2.5468 N.ar      1 <0>        -0.5229
      6 C5          3.7862   -8.6863    2.0740 C.ar      1 <0>         0.1397
      7 C6          4.9690   -8.1100    1.5496 C.ar      1 <0>        -0.0785
      8 C7          4.9419   -6.7978    1.0540 C.ar      1 <0>        -0.1001
      9 C8          3.7628   -6.0857    1.0840 C.ar      1 <0>         0.1799
     10 C9          2.5992   -6.6587    1.6081 C.ar      1 <0>        -0.0456
     11 C10         2.6010   -7.9305    2.0894 C.ar      1 <0>        -0.1206
     12 N2          3.7303   -4.7759    0.5912 N.am      1 <0>        -0.6862
     13 C11         2.6312   -4.3215   -0.0428 C.2       1 <0>         0.5275
     14 O1          1.6430   -5.0205   -0.1197 O.2       1 <0>        -0.4849
     15 C12         2.6301   -2.9450   -0.6561 C.3       1 <0>         0.0647
     16 H1          2.8420   -2.1836    0.1090 H         1 <0>         0.1121
     17 C13         3.6451   -2.8954   -1.8000 C.3       1 <0>        -0.1792
     18 O2          1.3268   -2.6502   -1.1627 O.3       1 <0>        -0.2757
     19 C14         0.9938   -1.3377   -1.2833 C.ar      1 <0>         0.1398
     20 C15         1.8656   -0.3561   -0.8360 C.ar      1 <0>        -0.1912
     21 C16         1.5258    0.9772   -0.9598 C.ar      1 <0>        -0.0614
     22 C17         0.3164    1.3344   -1.5297 C.ar      1 <0>        -0.0582
     23 C18        -0.5551    0.3574   -1.9768 C.ar      1 <0>        -0.0610
     24 C19        -0.2189   -0.9781   -1.8549 C.ar      1 <0>        -0.0542
     25 Cl1        -1.3123   -2.2040   -2.4164 Cl        1 <0>        -0.0347
     26 Cl2        -0.1075    3.0107   -1.6843 Cl        1 <0>        -0.0471
     27 N3          4.8875  -11.9472    3.0386 N.pl3     1 <0>        -0.4724
     28 C20         5.3537  -12.9116    2.0324 C.3       1 <0>         0.0545
     29 C21         5.3857  -14.3123    2.6485 C.3       1 <0>         0.0459
     30 N4          4.0420  -14.6643    3.1283 N.3       1 <0>        -0.5462
     31 C22         3.5758  -13.6999    4.1345 C.3       1 <0>         0.0540
     32 C23         3.5438  -12.2993    3.5184 C.3       1 <0>         0.0156
     33 C24         4.0146  -16.0337    3.6593 C.3       1 <0>         0.0194
     34 H2          8.2385   -9.0443    1.0677 H         1 <0>         0.0957
     35 H3          7.7120   -7.3998    1.5631 H         1 <0>         0.1050
     36 H4          7.2933   -8.0235   -0.0686 H         1 <0>         0.1046
     37 H5          7.0081  -10.7478    2.0346 H         1 <0>         0.1814
     38 H6          5.8385   -6.3492    0.6524 H         1 <0>         0.1600
     39 H7          1.6851   -6.0838    1.6275 H         1 <0>         0.1660
     40 H8          1.6927   -8.3587    2.4870 H         1 <0>         0.1564
     41 H9          4.6018   -4.1175    0.7214 H         1 <0>         0.4490
     42 H10         3.6442   -1.8906   -2.2476 H         1 <0>         0.0863
     43 H11         3.3724   -3.6377   -2.5646 H         1 <0>         0.0820
     44 H12         4.6483   -3.1223   -1.4101 H         1 <0>         0.0834
     45 H13         2.8098   -0.6340   -0.3913 H         1 <0>         0.1476
     46 H14         2.2046    1.7415   -0.6114 H         1 <0>         0.1469
     47 H15        -1.4965    0.6382   -2.4255 H         1 <0>         0.1547
     48 H16         4.6684  -12.9040    1.1720 H         1 <0>         0.0809
     49 H17         6.3643  -12.6336    1.6986 H         1 <0>         0.1114
     50 H18         5.7071  -15.0398    1.8886 H         1 <0>         0.1059
     51 H19         6.0924  -14.3261    3.4913 H         1 <0>         0.0578
     52 H20         2.5652  -13.9779    4.4682 H         1 <0>         0.1043
     53 H21         4.2611  -13.7075    4.9949 H         1 <0>         0.0584
     54 H22         3.2231  -11.5709    4.2777 H         1 <0>         0.1022
     55 H23         2.8378  -12.2847    2.6750 H         1 <0>         0.0820
     56 H24         2.9995  -16.2705    4.0106 H         1 <0>         0.0785
     57 H25         4.7214  -16.1159    4.4981 H         1 <0>         0.0361
     58 H26         4.3024  -16.7401    2.8667 H         1 <0>         0.0800
     59 H27         2.8783  -10.3674    2.9489 H         1 <0>         0.4710
@<TRIPOS>BOND
     1    1    2 1
     2    1   34 1
     3    1   35 1
     4    1   36 1
     5    2    7 ar
     6    2    3 ar
     7    3    4 ar
     8    3   37 1
     9    4    5 ar
    10    4   27 1
    11    5    6 ar
    12    5   59 1
    13    6   11 ar
    14    6    7 ar
    15    7    8 ar
    16    8    9 ar
    17    8   38 1
    18    9   10 ar
    19    9   12 1
    20   10   11 ar
    21   10   39 1
    22   11   40 1
    23   12   13 am
    24   12   41 1
    25   13   14 2
    26   13   15 1
    27   15   16 1
    28   15   17 1
    29   15   18 1
    30   17   42 1
    31   17   43 1
    32   17   44 1
    33   18   19 1
    34   19   24 ar
    35   19   20 ar
    36   20   21 ar
    37   20   45 1
    38   21   22 ar
    39   21   46 1
    40   22   23 ar
    41   22   26 1
    42   23   24 ar
    43   23   47 1
    44   24   25 1
    45   27   32 1
    46   27   28 1
    47   28   29 1
    48   28   48 1
    49   28   49 1
    50   29   30 1
    51   29   50 1
    52   29   51 1
    53   30   31 1
    54   30   33 1
    55   31   32 1
    56   31   52 1
    57   31   53 1
    58   32   54 1
    59   32   55 1
    60   33   56 1
    61   33   57 1
    62   33   58 1
@<TRIPOS>MOLECULE
ZINC20114431
   59    62     0     0     0
SMALL
USER_CHARGES
(2R)-2-(2,4-dichlorophenoxy)-N-[4-methyl-2-(4-methylpiperazin-1-yl)-6-quinolyl]propanamide
@<TRIPOS>ATOM
      1 C1          7.4364   -8.2958    0.9875 C.3       1 <0>        -0.1271
      2 C2          6.1559   -8.8710    1.5359 C.ar      1 <0>         0.0036
      3 C3          6.1157  -10.1395    2.0315 C.ar      1 <0>        -0.1820
      4 C4          4.9134  -10.6537    2.5371 C.ar      1 <0>         0.3216
      5 N1          3.8078   -9.9381    2.5468 N.ar      1 <0>        -0.5088
      6 C5          3.7862   -8.6863    2.0740 C.ar      1 <0>         0.1441
      7 C6          4.9690   -8.1100    1.5496 C.ar      1 <0>        -0.0905
      8 C7          4.9419   -6.7978    1.0540 C.ar      1 <0>        -0.1257
      9 C8          3.7628   -6.0857    1.0840 C.ar      1 <0>         0.1671
     10 C9          2.5992   -6.6587    1.6081 C.ar      1 <0>        -0.0885
     11 C10         2.6010   -7.9305    2.0894 C.ar      1 <0>        -0.0824
     12 N2          3.7303   -4.7759    0.5912 N.am      1 <0>        -0.6842
     13 C11         2.6312   -4.3215   -0.0428 C.2       1 <0>         0.5244
     14 O1          1.6430   -5.0205   -0.1197 O.2       1 <0>        -0.4892
     15 C12         2.6301   -2.9450   -0.6561 C.3       1 <0>         0.0643
     16 H1          2.8420   -2.1836    0.1090 H         1 <0>         0.1090
     17 C13         3.6451   -2.8954   -1.8000 C.3       1 <0>        -0.1777
     18 O2          1.3268   -2.6502   -1.1627 O.3       1 <0>        -0.2747
     19 C14         0.9938   -1.3377   -1.2833 C.ar      1 <0>         0.1429
     20 C15         1.8656   -0.3561   -0.8360 C.ar      1 <0>        -0.1918
     21 C16         1.5258    0.9772   -0.9598 C.ar      1 <0>        -0.0612
     22 C17         0.3164    1.3344   -1.5297 C.ar      1 <0>        -0.0603
     23 C18        -0.5551    0.3574   -1.9768 C.ar      1 <0>        -0.0613
     24 C19        -0.2189   -0.9781   -1.8549 C.ar      1 <0>        -0.0556
     25 Cl1        -1.3123   -2.2040   -2.4164 Cl        1 <0>        -0.0358
     26 Cl2        -0.1075    3.0107   -1.6843 Cl        1 <0>        -0.0500
     27 N3          4.8875  -11.9472    3.0386 N.pl3     1 <0>        -0.4771
     28 C20         5.3537  -12.9116    2.0324 C.3       1 <0>         0.0267
     29 C21         5.3857  -14.3123    2.6485 C.3       1 <0>         0.0010
     30 N4          4.0420  -14.6643    3.1283 N.4       1 <0>        -0.4047
     31 C22         3.5758  -13.6999    4.1345 C.3       1 <0>        -0.0031
     32 C23         3.5438  -12.2993    3.5184 C.3       1 <0>         0.0363
     33 C24         4.0146  -16.0337    3.6593 C.3       1 <0>        -0.0450
     34 H2          8.2385   -9.0443    1.0677 H         1 <0>         0.0773
     35 H3          7.7120   -7.3998    1.5631 H         1 <0>         0.0853
     36 H4          7.2933   -8.0235   -0.0686 H         1 <0>         0.0840
     37 H5          7.0081  -10.7478    2.0346 H         1 <0>         0.1396
     38 H6          5.8385   -6.3492    0.6524 H         1 <0>         0.1392
     39 H7          1.6851   -6.0838    1.6275 H         1 <0>         0.1496
     40 H8          1.6927   -8.3587    2.4870 H         1 <0>         0.1405
     41 H9          4.6018   -4.1175    0.7214 H         1 <0>         0.4407
     42 H10         3.6442   -1.8906   -2.2476 H         1 <0>         0.0833
     43 H11         3.3724   -3.6377   -2.5646 H         1 <0>         0.0808
     44 H12         4.6483   -3.1223   -1.4101 H         1 <0>         0.0834
     45 H13         2.8098   -0.6340   -0.3913 H         1 <0>         0.1480
     46 H14         2.2046    1.7415   -0.6114 H         1 <0>         0.1461
     47 H15        -1.4965    0.6382   -2.4255 H         1 <0>         0.1537
     48 H16         4.6684  -12.9040    1.1720 H         1 <0>         0.0728
     49 H17         6.3643  -12.6336    1.6986 H         1 <0>         0.1308
     50 H18         5.7071  -15.0398    1.8886 H         1 <0>         0.1422
     51 H19         6.0924  -14.3261    3.4913 H         1 <0>         0.1381
     52 H20         2.5652  -13.9779    4.4682 H         1 <0>         0.1409
     53 H21         4.2611  -13.7075    4.9949 H         1 <0>         0.1354
     54 H22         3.2231  -11.5709    4.2777 H         1 <0>         0.1331
     55 H23         2.8378  -12.2847    2.6750 H         1 <0>         0.0772
     56 H24         2.9995  -16.2705    4.0106 H         1 <0>         0.1256
     57 H25         4.7214  -16.1159    4.4981 H         1 <0>         0.1204
     58 H26         4.3024  -16.7401    2.8667 H         1 <0>         0.1252
     59 H27         3.3533  -14.6214    2.2717 H         1 <0>         0.4426
@<TRIPOS>BOND
     1    1    2 1
     2    1   34 1
     3    1   35 1
     4    1   36 1
     5    2    7 ar
     6    2    3 ar
     7    3    4 ar
     8    3   37 1
     9    4    5 ar
    10    4   27 1
    11    5    6 ar
    12    6   11 ar
    13    6    7 ar
    14    7    8 ar
    15    8    9 ar
    16    8   38 1
    17    9   10 ar
    18    9   12 1
    19   10   11 ar
    20   10   39 1
    21   11   40 1
    22   12   13 am
    23   12   41 1
    24   13   14 2
    25   13   15 1
    26   15   16 1
    27   15   17 1
    28   15   18 1
    29   17   42 1
    30   17   43 1
    31   17   44 1
    32   18   19 1
    33   19   24 ar
    34   19   20 ar
    35   20   21 ar
    36   20   45 1
    37   21   22 ar
    38   21   46 1
    39   22   23 ar
    40   22   26 1
    41   23   24 ar
    42   23   47 1
    43   24   25 1
    44   27   32 1
    45   27   28 1
    46   28   29 1
    47   28   48 1
    48   28   49 1
    49   29   30 1
    50   29   50 1
    51   29   51 1
    52   30   31 1
    53   30   33 1
    54   30   59 1
    55   31   32 1
    56   31   52 1
    57   31   53 1
    58   32   54 1
    59   32   55 1
    60   33   56 1
    61   33   57 1
    62   33   58 1
@<TRIPOS>MOLECULE
ZINC20114431
   58    61     0     0     0
SMALL
USER_CHARGES
(2R)-2-(2,4-dichlorophenoxy)-N-[4-methyl-2-(4-methylpiperazin-1-yl)-6-quinolyl]propanamide
@<TRIPOS>ATOM
      1 C1          7.4364   -8.2958    0.9875 C.3       1 <0>        -0.1204
      2 C2          6.1559   -8.8710    1.5359 C.ar      1 <0>        -0.0094
      3 C3          6.1157  -10.1395    2.0315 C.ar      1 <0>        -0.1773
      4 C4          4.9134  -10.6537    2.5371 C.ar      1 <0>         0.3439
      5 N1          3.8078   -9.9381    2.5468 N.ar      1 <0>        -0.5164
      6 C5          3.7862   -8.6863    2.0740 C.ar      1 <0>         0.1518
      7 C6          4.9690   -8.1100    1.5496 C.ar      1 <0>        -0.1037
      8 C7          4.9419   -6.7978    1.0540 C.ar      1 <0>        -0.1182
      9 C8          3.7628   -6.0857    1.0840 C.ar      1 <0>         0.1475
     10 C9          2.5992   -6.6587    1.6081 C.ar      1 <0>        -0.0935
     11 C10         2.6010   -7.9305    2.0894 C.ar      1 <0>        -0.0835
     12 N2          3.7303   -4.7759    0.5912 N.am      1 <0>        -0.6807
     13 C11         2.6312   -4.3215   -0.0428 C.2       1 <0>         0.5212
     14 O1          1.6430   -5.0205   -0.1197 O.2       1 <0>        -0.4904
     15 C12         2.6301   -2.9450   -0.6561 C.3       1 <0>         0.0646
     16 H1          2.8420   -2.1836    0.1090 H         1 <0>         0.1070
     17 C13         3.6451   -2.8954   -1.8000 C.3       1 <0>        -0.1770
     18 O2          1.3268   -2.6502   -1.1627 O.3       1 <0>        -0.2734
     19 C14         0.9938   -1.3377   -1.2833 C.ar      1 <0>         0.1462
     20 C15         1.8656   -0.3561   -0.8360 C.ar      1 <0>        -0.1924
     21 C16         1.5258    0.9772   -0.9598 C.ar      1 <0>        -0.0614
     22 C17         0.3164    1.3344   -1.5297 C.ar      1 <0>        -0.0624
     23 C18        -0.5551    0.3574   -1.9768 C.ar      1 <0>        -0.0617
     24 C19        -0.2189   -0.9781   -1.8549 C.ar      1 <0>        -0.0570
     25 Cl1        -1.3123   -2.2040   -2.4164 Cl        1 <0>        -0.0351
     26 Cl2        -0.1075    3.0107   -1.6843 Cl        1 <0>        -0.0540
     27 N3          4.8875  -11.9472    3.0386 N.pl3     1 <0>        -0.4786
     28 C20         5.3537  -12.9116    2.0324 C.3       1 <0>         0.0605
     29 C21         5.3857  -14.3123    2.6485 C.3       1 <0>         0.0541
     30 N4          4.0420  -14.6643    3.1283 N.3       1 <0>        -0.5459
     31 C22         3.5758  -13.6999    4.1345 C.3       1 <0>         0.0505
     32 C23         3.5438  -12.2993    3.5184 C.3       1 <0>         0.0684
     33 C24         4.0146  -16.0337    3.6593 C.3       1 <0>         0.0226
     34 H2          8.2385   -9.0443    1.0677 H         1 <0>         0.0747
     35 H3          7.7120   -7.3998    1.5631 H         1 <0>         0.0795
     36 H4          7.2933   -8.0235   -0.0686 H         1 <0>         0.0789
     37 H5          7.0081  -10.7478    2.0346 H         1 <0>         0.1384
     38 H6          5.8385   -6.3492    0.6524 H         1 <0>         0.1337
     39 H7          1.6851   -6.0838    1.6275 H         1 <0>         0.1442
     40 H8          1.6927   -8.3587    2.4870 H         1 <0>         0.1384
     41 H9          4.6018   -4.1175    0.7214 H         1 <0>         0.4359
     42 H10         3.6442   -1.8906   -2.2476 H         1 <0>         0.0806
     43 H11         3.3724   -3.6377   -2.5646 H         1 <0>         0.0810
     44 H12         4.6483   -3.1223   -1.4101 H         1 <0>         0.0840
     45 H13         2.8098   -0.6340   -0.3913 H         1 <0>         0.1487
     46 H14         2.2046    1.7415   -0.6114 H         1 <0>         0.1451
     47 H15        -1.4965    0.6382   -2.4255 H         1 <0>         0.1525
     48 H16         4.6684  -12.9040    1.1720 H         1 <0>         0.0579
     49 H17         6.3643  -12.6336    1.6986 H         1 <0>         0.0902
     50 H18         5.7071  -15.0398    1.8886 H         1 <0>         0.0881
     51 H19         6.0924  -14.3261    3.4913 H         1 <0>         0.0468
     52 H20         2.5652  -13.9779    4.4682 H         1 <0>         0.0868
     53 H21         4.2611  -13.7075    4.9949 H         1 <0>         0.0437
     54 H22         3.2231  -11.5709    4.2777 H         1 <0>         0.0925
     55 H23         2.8378  -12.2847    2.6750 H         1 <0>         0.0623
     56 H24         2.9995  -16.2705    4.0106 H         1 <0>         0.0713
     57 H25         4.7214  -16.1159    4.4981 H         1 <0>         0.0280
     58 H26         4.3024  -16.7401    2.8667 H         1 <0>         0.0710
@<TRIPOS>BOND
     1    1    2 1
     2    1   34 1
     3    1   35 1
     4    1   36 1
     5    2    7 ar
     6    2    3 ar
     7    3    4 ar
     8    3   37 1
     9    4    5 ar
    10    4   27 1
    11    5    6 ar
    12    6   11 ar
    13    6    7 ar
    14    7    8 ar
    15    8    9 ar
    16    8   38 1
    17    9   10 ar
    18    9   12 1
    19   10   11 ar
    20   10   39 1
    21   11   40 1
    22   12   13 am
    23   12   41 1
    24   13   14 2
    25   13   15 1
    26   15   16 1
    27   15   17 1
    28   15   18 1
    29   17   42 1
    30   17   43 1
    31   17   44 1
    32   18   19 1
    33   19   24 ar
    34   19   20 ar
    35   20   21 ar
    36   20   45 1
    37   21   22 ar
    38   21   46 1
    39   22   23 ar
    40   22   26 1
    41   23   24 ar
    42   23   47 1
    43   24   25 1
    44   27   32 1
    45   27   28 1
    46   28   29 1
    47   28   48 1
    48   28   49 1
    49   29   30 1
    50   29   50 1
    51   29   51 1
    52   30   31 1
    53   30   33 1
    54   31   32 1
    55   31   52 1
    56   31   53 1
    57   32   54 1
    58   32   55 1
    59   33   56 1
    60   33   57 1
    61   33   58 1
@<TRIPOS>MOLECULE
ZINC20114433
   59    62     0     0     0
SMALL
USER_CHARGES
(2S)-2-(2,4-dichlorophenoxy)-N-[4-methyl-2-(4-methylpiperazin-1-yl)-6-quinolyl]propanamide
@<TRIPOS>ATOM
      1 C1         -7.5580    3.0870   -1.9961 C.3       1 <0>        -0.1464
      2 C2         -7.8798    2.0660   -0.9354 C.ar      1 <0>         0.0854
      3 C3         -9.1582    1.6345   -0.7459 C.ar      1 <0>        -0.1863
      4 C4         -9.4342    0.6843    0.2473 C.ar      1 <0>         0.4260
      5 N1         -8.4826    0.1902    1.0119 N.ar      1 <0>        -0.5224
      6 C5         -7.2087    0.5757    0.8724 C.ar      1 <0>         0.1386
      7 C6         -6.8657    1.5331   -0.1134 C.ar      1 <0>        -0.0766
      8 C7         -5.5298    1.9383   -0.2534 C.ar      1 <0>        -0.1023
      9 C8         -4.5658    1.3908    0.5646 C.ar      1 <0>         0.1829
     10 C9         -4.9110    0.4455    1.5365 C.ar      1 <0>        -0.0460
     11 C10        -6.2000    0.0419    1.6933 C.ar      1 <0>        -0.1187
     12 N2         -3.2307    1.7880    0.4261 N.am      1 <0>        -0.6863
     13 C11        -2.2380    0.9044    0.6503 C.2       1 <0>         0.5268
     14 O1         -2.5006   -0.2571    0.8808 O.2       1 <0>        -0.4829
     15 C12        -0.8018    1.3595    0.6146 C.3       1 <0>         0.0649
     16 H1         -0.6332    2.1572    1.3530 H         1 <0>         0.1124
     17 C13        -0.4464    1.8157   -0.8019 C.3       1 <0>        -0.1810
     18 O2          0.0504    0.2771    0.9944 O.3       1 <0>        -0.2758
     19 C14         1.2735    0.6000    1.4925 C.ar      1 <0>         0.1398
     20 C15         1.6246    1.9309    1.6629 C.ar      1 <0>        -0.1912
     21 C16         2.8663    2.2571    2.1733 C.ar      1 <0>        -0.0616
     22 C17         3.7636    1.2575    2.5057 C.ar      1 <0>        -0.0582
     23 C18         3.4180   -0.0707    2.3319 C.ar      1 <0>        -0.0610
     24 C19         2.1747   -0.4017    1.8259 C.ar      1 <0>        -0.0542
     25 Cl1         1.7412   -2.0684    1.6073 Cl        1 <0>        -0.0346
     26 Cl2         5.3253    1.6709    3.1412 Cl        1 <0>        -0.0471
     27 N3        -10.7409    0.2539    0.4285 N.pl3     1 <0>        -0.4722
     28 C20       -11.6379    1.3886    0.6881 C.3       1 <0>         0.0548
     29 C21       -13.0775    0.8815    0.8029 C.3       1 <0>         0.0456
     30 N4        -13.1601   -0.1097    1.8847 N.3       1 <0>        -0.5461
     31 C22       -12.2631   -1.2444    1.6251 C.3       1 <0>         0.0538
     32 C23       -10.8236   -0.7373    1.5103 C.3       1 <0>         0.0157
     33 C24       -14.5434   -0.5653    2.0766 C.3       1 <0>         0.0193
     34 H2         -8.4808    3.3723   -2.5224 H         1 <0>         0.0957
     35 H3         -6.8442    2.6571   -2.7143 H         1 <0>         0.1049
     36 H4         -7.1141    3.9768   -1.5258 H         1 <0>         0.1048
     37 H5         -9.9573    2.0240   -1.3592 H         1 <0>         0.1815
     38 H6         -5.2586    2.6709   -0.9991 H         1 <0>         0.1601
     39 H7         -4.1425    0.0305    2.1717 H         1 <0>         0.1617
     40 H8         -6.4490   -0.6886    2.4489 H         1 <0>         0.1567
     41 H9         -2.9917    2.8213    0.1343 H         1 <0>         0.4488
     42 H10         0.6019    2.1479   -0.8279 H         1 <0>         0.0868
     43 H11        -1.1024    2.6489   -1.0942 H         1 <0>         0.0832
     44 H12        -0.5832    0.9783   -1.5019 H         1 <0>         0.0829
     45 H13         0.9263    2.7118    1.4002 H         1 <0>         0.1476
     46 H14         3.1383    3.2934    2.3094 H         1 <0>         0.1469
     47 H15         4.1199   -0.8495    2.5912 H         1 <0>         0.1547
     48 H16       -11.3451    1.8799    1.6277 H         1 <0>         0.0808
     49 H17       -11.5668    2.1091   -0.1400 H         1 <0>         0.1114
     50 H18       -13.7469    1.7255    1.0257 H         1 <0>         0.1059
     51 H19       -13.3789    0.4153   -0.1467 H         1 <0>         0.0578
     52 H20       -12.3342   -1.9649    2.4533 H         1 <0>         0.1043
     53 H21       -12.5559   -1.7358    0.6855 H         1 <0>         0.0585
     54 H22       -10.1535   -1.5806    1.2870 H         1 <0>         0.1024
     55 H23       -10.5215   -0.2703    2.4594 H         1 <0>         0.0819
     56 H24       -14.5763   -1.3048    2.8902 H         1 <0>         0.0785
     57 H25       -14.9100   -1.0259    1.1474 H         1 <0>         0.0362
     58 H26       -15.1797    0.2937    2.3359 H         1 <0>         0.0800
     59 H27        -8.7280   -0.5544    1.7835 H         1 <0>         0.4710
@<TRIPOS>BOND
     1    1    2 1
     2    1   34 1
     3    1   35 1
     4    1   36 1
     5    2    7 ar
     6    2    3 ar
     7    3    4 ar
     8    3   37 1
     9    4    5 ar
    10    4   27 1
    11    5    6 ar
    12    5   59 1
    13    6   11 ar
    14    6    7 ar
    15    7    8 ar
    16    8    9 ar
    17    8   38 1
    18    9   10 ar
    19    9   12 1
    20   10   11 ar
    21   10   39 1
    22   11   40 1
    23   12   13 am
    24   12   41 1
    25   13   14 2
    26   13   15 1
    27   15   16 1
    28   15   17 1
    29   15   18 1
    30   17   42 1
    31   17   43 1
    32   17   44 1
    33   18   19 1
    34   19   24 ar
    35   19   20 ar
    36   20   21 ar
    37   20   45 1
    38   21   22 ar
    39   21   46 1
    40   22   23 ar
    41   22   26 1
    42   23   24 ar
    43   23   47 1
    44   24   25 1
    45   27   32 1
    46   27   28 1
    47   28   29 1
    48   28   48 1
    49   28   49 1
    50   29   30 1
    51   29   50 1
    52   29   51 1
    53   30   31 1
    54   30   33 1
    55   31   32 1
    56   31   52 1
    57   31   53 1
    58   32   54 1
    59   32   55 1
    60   33   56 1
    61   33   57 1
    62   33   58 1
@<TRIPOS>MOLECULE
ZINC20114433
   59    62     0     0     0
SMALL
USER_CHARGES
(2S)-2-(2,4-dichlorophenoxy)-N-[4-methyl-2-(4-methylpiperazin-1-yl)-6-quinolyl]propanamide
@<TRIPOS>ATOM
      1 C1         -7.5580    3.0870   -1.9961 C.3       1 <0>        -0.1271
      2 C2         -7.8798    2.0660   -0.9354 C.ar      1 <0>         0.0031
      3 C3         -9.1582    1.6345   -0.7459 C.ar      1 <0>        -0.1814
      4 C4         -9.4342    0.6843    0.2473 C.ar      1 <0>         0.3211
      5 N1         -8.4826    0.1902    1.0119 N.ar      1 <0>        -0.5084
      6 C5         -7.2087    0.5757    0.8724 C.ar      1 <0>         0.1432
      7 C6         -6.8657    1.5331   -0.1134 C.ar      1 <0>        -0.0888
      8 C7         -5.5298    1.9383   -0.2534 C.ar      1 <0>        -0.1276
      9 C8         -4.5658    1.3908    0.5646 C.ar      1 <0>         0.1700
     10 C9         -4.9110    0.4455    1.5365 C.ar      1 <0>        -0.0889
     11 C10        -6.2000    0.0419    1.6933 C.ar      1 <0>        -0.0803
     12 N2         -3.2307    1.7880    0.4261 N.am      1 <0>        -0.6846
     13 C11        -2.2380    0.9044    0.6503 C.2       1 <0>         0.5235
     14 O1         -2.5006   -0.2571    0.8808 O.2       1 <0>        -0.4867
     15 C12        -0.8018    1.3595    0.6146 C.3       1 <0>         0.0648
     16 H1         -0.6332    2.1572    1.3530 H         1 <0>         0.1092
     17 C13        -0.4464    1.8157   -0.8019 C.3       1 <0>        -0.1797
     18 O2          0.0504    0.2771    0.9944 O.3       1 <0>        -0.2746
     19 C14         1.2735    0.6000    1.4925 C.ar      1 <0>         0.1429
     20 C15         1.6246    1.9309    1.6629 C.ar      1 <0>        -0.1919
     21 C16         2.8663    2.2571    2.1733 C.ar      1 <0>        -0.0615
     22 C17         3.7636    1.2575    2.5057 C.ar      1 <0>        -0.0603
     23 C18         3.4180   -0.0707    2.3319 C.ar      1 <0>        -0.0613
     24 C19         2.1747   -0.4017    1.8259 C.ar      1 <0>        -0.0557
     25 Cl1         1.7412   -2.0684    1.6073 Cl        1 <0>        -0.0351
     26 Cl2         5.3253    1.6709    3.1412 Cl        1 <0>        -0.0502
     27 N3        -10.7409    0.2539    0.4285 N.pl3     1 <0>        -0.4771
     28 C20       -11.6379    1.3886    0.6881 C.3       1 <0>         0.0270
     29 C21       -13.0775    0.8815    0.8029 C.3       1 <0>         0.0008
     30 N4        -13.1601   -0.1097    1.8847 N.4       1 <0>        -0.4044
     31 C22       -12.2631   -1.2444    1.6251 C.3       1 <0>        -0.0033
     32 C23       -10.8236   -0.7373    1.5103 C.3       1 <0>         0.0364
     33 C24       -14.5434   -0.5653    2.0766 C.3       1 <0>        -0.0451
     34 H2         -8.4808    3.3723   -2.5224 H         1 <0>         0.0773
     35 H3         -6.8442    2.6571   -2.7143 H         1 <0>         0.0852
     36 H4         -7.1141    3.9768   -1.5258 H         1 <0>         0.0842
     37 H5         -9.9573    2.0240   -1.3592 H         1 <0>         0.1397
     38 H6         -5.2586    2.6709   -0.9991 H         1 <0>         0.1393
     39 H7         -4.1425    0.0305    2.1717 H         1 <0>         0.1451
     40 H8         -6.4490   -0.6886    2.4489 H         1 <0>         0.1408
     41 H9         -2.9917    2.8213    0.1343 H         1 <0>         0.4403
     42 H10         0.6019    2.1479   -0.8279 H         1 <0>         0.0838
     43 H11        -1.1024    2.6489   -1.0942 H         1 <0>         0.0830
     44 H12        -0.5832    0.9783   -1.5019 H         1 <0>         0.0820
     45 H13         0.9263    2.7118    1.4002 H         1 <0>         0.1479
     46 H14         3.1383    3.2934    2.3094 H         1 <0>         0.1460
     47 H15         4.1199   -0.8495    2.5912 H         1 <0>         0.1537
     48 H16       -11.3451    1.8799    1.6277 H         1 <0>         0.0726
     49 H17       -11.5668    2.1091   -0.1400 H         1 <0>         0.1308
     50 H18       -13.7469    1.7255    1.0257 H         1 <0>         0.1422
     51 H19       -13.3789    0.4153   -0.1467 H         1 <0>         0.1381
     52 H20       -12.3342   -1.9649    2.4533 H         1 <0>         0.1410
     53 H21       -12.5559   -1.7358    0.6855 H         1 <0>         0.1355
     54 H22       -10.1535   -1.5806    1.2870 H         1 <0>         0.1332
     55 H23       -10.5215   -0.2703    2.4594 H         1 <0>         0.0771
     56 H24       -14.5763   -1.3048    2.8902 H         1 <0>         0.1256
     57 H25       -14.9100   -1.0259    1.1474 H         1 <0>         0.1204
     58 H26       -15.1797    0.2937    2.3359 H         1 <0>         0.1252
     59 H27       -12.8330    0.3757    2.8160 H         1 <0>         0.4423
@<TRIPOS>BOND
     1    1    2 1
     2    1   34 1
     3    1   35 1
     4    1   36 1
     5    2    7 ar
     6    2    3 ar
     7    3    4 ar
     8    3   37 1
     9    4    5 ar
    10    4   27 1
    11    5    6 ar
    12    6   11 ar
    13    6    7 ar
    14    7    8 ar
    15    8    9 ar
    16    8   38 1
    17    9   10 ar
    18    9   12 1
    19   10   11 ar
    20   10   39 1
    21   11   40 1
    22   12   13 am
    23   12   41 1
    24   13   14 2
    25   13   15 1
    26   15   16 1
    27   15   17 1
    28   15   18 1
    29   17   42 1
    30   17   43 1
    31   17   44 1
    32   18   19 1
    33   19   24 ar
    34   19   20 ar
    35   20   21 ar
    36   20   45 1
    37   21   22 ar
    38   21   46 1
    39   22   23 ar
    40   22   26 1
    41   23   24 ar
    42   23   47 1
    43   24   25 1
    44   27   32 1
    45   27   28 1
    46   28   29 1
    47   28   48 1
    48   28   49 1
    49   29   30 1
    50   29   50 1
    51   29   51 1
    52   30   31 1
    53   30   33 1
    54   30   59 1
    55   31   32 1
    56   31   52 1
    57   31   53 1
    58   32   54 1
    59   32   55 1
    60   33   56 1
    61   33   57 1
    62   33   58 1
@<TRIPOS>MOLECULE
ZINC20114433
   58    61     0     0     0
SMALL
USER_CHARGES
(2S)-2-(2,4-dichlorophenoxy)-N-[4-methyl-2-(4-methylpiperazin-1-yl)-6-quinolyl]propanamide
@<TRIPOS>ATOM
      1 C1         -7.5580    3.0870   -1.9961 C.3       1 <0>        -0.1204
      2 C2         -7.8798    2.0660   -0.9354 C.ar      1 <0>        -0.0098
      3 C3         -9.1582    1.6345   -0.7459 C.ar      1 <0>        -0.1768
      4 C4         -9.4342    0.6843    0.2473 C.ar      1 <0>         0.3435
      5 N1         -8.4826    0.1902    1.0119 N.ar      1 <0>        -0.5161
      6 C5         -7.2087    0.5757    0.8724 C.ar      1 <0>         0.1510
      7 C6         -6.8657    1.5331   -0.1134 C.ar      1 <0>        -0.1022
      8 C7         -5.5298    1.9383   -0.2534 C.ar      1 <0>        -0.1198
      9 C8         -4.5658    1.3908    0.5646 C.ar      1 <0>         0.1502
     10 C9         -4.9110    0.4455    1.5365 C.ar      1 <0>        -0.0937
     11 C10        -6.2000    0.0419    1.6933 C.ar      1 <0>        -0.0814
     12 N2         -3.2307    1.7880    0.4261 N.am      1 <0>        -0.6811
     13 C11        -2.2380    0.9044    0.6503 C.2       1 <0>         0.5207
     14 O1         -2.5006   -0.2571    0.8808 O.2       1 <0>        -0.4888
     15 C12        -0.8018    1.3595    0.6146 C.3       1 <0>         0.0647
     16 H1         -0.6332    2.1572    1.3530 H         1 <0>         0.1076
     17 C13        -0.4464    1.8157   -0.8019 C.3       1 <0>        -0.1787
     18 O2          0.0504    0.2771    0.9944 O.3       1 <0>        -0.2735
     19 C14         1.2735    0.6000    1.4925 C.ar      1 <0>         0.1462
     20 C15         1.6246    1.9309    1.6629 C.ar      1 <0>        -0.1923
     21 C16         2.8663    2.2571    2.1733 C.ar      1 <0>        -0.0615
     22 C17         3.7636    1.2575    2.5057 C.ar      1 <0>        -0.0623
     23 C18         3.4180   -0.0707    2.3319 C.ar      1 <0>        -0.0617
     24 C19         2.1747   -0.4017    1.8259 C.ar      1 <0>        -0.0570
     25 Cl1         1.7412   -2.0684    1.6073 Cl        1 <0>        -0.0350
     26 Cl2         5.3253    1.6709    3.1412 Cl        1 <0>        -0.0541
     27 N3        -10.7409    0.2539    0.4285 N.pl3     1 <0>        -0.4786
     28 C20       -11.6379    1.3886    0.6881 C.3       1 <0>         0.0609
     29 C21       -13.0775    0.8815    0.8029 C.3       1 <0>         0.0539
     30 N4        -13.1601   -0.1097    1.8847 N.3       1 <0>        -0.5459
     31 C22       -12.2631   -1.2444    1.6251 C.3       1 <0>         0.0503
     32 C23       -10.8236   -0.7373    1.5103 C.3       1 <0>         0.0686
     33 C24       -14.5434   -0.5653    2.0766 C.3       1 <0>         0.0225
     34 H2         -8.4808    3.3723   -2.5224 H         1 <0>         0.0747
     35 H3         -6.8442    2.6571   -2.7143 H         1 <0>         0.0794
     36 H4         -7.1141    3.9768   -1.5258 H         1 <0>         0.0791
     37 H5         -9.9573    2.0240   -1.3592 H         1 <0>         0.1384
     38 H6         -5.2586    2.6709   -0.9991 H         1 <0>         0.1338
     39 H7         -4.1425    0.0305    2.1717 H         1 <0>         0.1398
     40 H8         -6.4490   -0.6886    2.4489 H         1 <0>         0.1386
     41 H9         -2.9917    2.8213    0.1343 H         1 <0>         0.4358
     42 H10         0.6019    2.1479   -0.8279 H         1 <0>         0.0811
     43 H11        -1.1024    2.6489   -1.0942 H         1 <0>         0.0836
     44 H12        -0.5832    0.9783   -1.5019 H         1 <0>         0.0817
     45 H13         0.9263    2.7118    1.4002 H         1 <0>         0.1487
     46 H14         3.1383    3.2934    2.3094 H         1 <0>         0.1451
     47 H15         4.1199   -0.8495    2.5912 H         1 <0>         0.1525
     48 H16       -11.3451    1.8799    1.6277 H         1 <0>         0.0577
     49 H17       -11.5668    2.1091   -0.1400 H         1 <0>         0.0902
     50 H18       -13.7469    1.7255    1.0257 H         1 <0>         0.0881
     51 H19       -13.3789    0.4153   -0.1467 H         1 <0>         0.0469
     52 H20       -12.3342   -1.9649    2.4533 H         1 <0>         0.0868
     53 H21       -12.5559   -1.7358    0.6855 H         1 <0>         0.0438
     54 H22       -10.1535   -1.5806    1.2870 H         1 <0>         0.0926
     55 H23       -10.5215   -0.2703    2.4594 H         1 <0>         0.0622
     56 H24       -14.5763   -1.3048    2.8902 H         1 <0>         0.0713
     57 H25       -14.9100   -1.0259    1.1474 H         1 <0>         0.0280
     58 H26       -15.1797    0.2937    2.3359 H         1 <0>         0.0709
@<TRIPOS>BOND
     1    1    2 1
     2    1   34 1
     3    1   35 1
     4    1   36 1
     5    2    7 ar
     6    2    3 ar
     7    3    4 ar
     8    3   37 1
     9    4    5 ar
    10    4   27 1
    11    5    6 ar
    12    6   11 ar
    13    6    7 ar
    14    7    8 ar
    15    8    9 ar
    16    8   38 1
    17    9   10 ar
    18    9   12 1
    19   10   11 ar
    20   10   39 1
    21   11   40 1
    22   12   13 am
    23   12   41 1
    24   13   14 2
    25   13   15 1
    26   15   16 1
    27   15   17 1
    28   15   18 1
    29   17   42 1
    30   17   43 1
    31   17   44 1
    32   18   19 1
    33   19   24 ar
    34   19   20 ar
    35   20   21 ar
    36   20   45 1
    37   21   22 ar
    38   21   46 1
    39   22   23 ar
    40   22   26 1
    41   23   24 ar
    42   23   47 1
    43   24   25 1
    44   27   32 1
    45   27   28 1
    46   28   29 1
    47   28   48 1
    48   28   49 1
    49   29   30 1
    50   29   50 1
    51   29   51 1
    52   30   31 1
    53   30   33 1
    54   31   32 1
    55   31   52 1
    56   31   53 1
    57   32   54 1
    58   32   55 1
    59   33   56 1
    60   33   57 1
    61   33   58 1
@<TRIPOS>MOLECULE
ZINC20114379
   59    62     0     0     0
SMALL
USER_CHARGES
(E)-N-[4-methyl-2-(4-methylpiperazin-1-yl)-6-quinolyl]-3-(p-tolyl)prop-2-enamide
@<TRIPOS>ATOM
      1 C1         -1.4757   -8.5752    1.7610 C.3       1 <0>        -0.1266
      2 C2         -1.5599   -7.0729    1.6757 C.ar      1 <0>        -0.0593
      3 C3         -2.6045   -6.4059    2.2916 C.ar      1 <0>        -0.1248
      4 C4         -2.6885   -5.0316    2.2181 C.ar      1 <0>        -0.0813
      5 C5         -1.7146   -4.3117    1.5189 C.ar      1 <0>        -0.1029
      6 C6         -0.6652   -4.9933    0.8947 C.ar      1 <0>        -0.0891
      7 C7         -0.5924   -6.3676    0.9814 C.ar      1 <0>        -0.1266
      8 C8         -1.7971   -2.8444    1.4351 C.2       1 <0>         0.0183
      9 C9         -0.8563   -2.1537    0.7601 C.2       1 <0>        -0.2466
     10 C10        -0.9384   -0.6945    0.6768 C.2       1 <0>         0.5614
     11 O1         -1.8559   -0.1047    1.2170 O.2       1 <0>        -0.5267
     12 N1          0.0021   -0.0041    0.0020 N.am      1 <0>        -0.6875
     13 C11        -0.0220    1.3944    0.0025 C.ar      1 <0>         0.1835
     14 C12        -1.2489    2.0672    0.0008 C.ar      1 <0>        -0.0452
     15 C13        -1.3017    3.4259    0.0067 C.ar      1 <0>        -0.1223
     16 C14        -0.1126    4.1758    0.0036 C.ar      1 <0>         0.1380
     17 C15         1.1326    3.5009   -0.0006 C.ar      1 <0>        -0.0768
     18 C16         1.1627    2.0983   -0.0011 C.ar      1 <0>        -0.1065
     19 C17         2.3232    4.2564   -0.0037 C.ar      1 <0>         0.0853
     20 C18         2.2258    5.6154   -0.0026 C.ar      1 <0>        -0.1874
     21 C19         0.9632    6.2248    0.0017 C.ar      1 <0>         0.4219
     22 N2         -0.1453    5.5137    0.0050 N.ar      1 <0>        -0.5215
     23 N3          0.8795    7.6099    0.0029 N.pl3     1 <0>        -0.4728
     24 C20         1.6130    8.1809    1.1411 C.3       1 <0>         0.0546
     25 C21         1.5634    9.7085    1.0620 C.3       1 <0>         0.0460
     26 N4          0.1622   10.1515    1.0665 N.3       1 <0>        -0.5463
     27 C22        -0.5713    9.5805   -0.0717 C.3       1 <0>         0.0545
     28 C23        -0.5217    8.0529    0.0075 C.3       1 <0>         0.0151
     29 C24         0.0736   11.6178    1.0678 C.3       1 <0>         0.0195
     30 C25         3.6689    3.5781   -0.0088 C.3       1 <0>        -0.1460
     31 H1         -2.3241   -8.9572    2.3478 H         1 <0>         0.0703
     32 H2         -0.5330   -8.8624    2.2496 H         1 <0>         0.0760
     33 H3         -1.5086   -9.0024    0.7479 H         1 <0>         0.0761
     34 H4         -3.3556   -6.9633    2.8316 H         1 <0>         0.1300
     35 H5         -3.5044   -4.5125    2.6990 H         1 <0>         0.1302
     36 H6          0.0882   -4.4445    0.3492 H         1 <0>         0.1273
     37 H7          0.2197   -6.8951    0.5034 H         1 <0>         0.1287
     38 H8         -2.6264   -2.3114    1.9232 H         1 <0>         0.1410
     39 H9         -0.0270   -2.6867    0.2720 H         1 <0>         0.1390
     40 H10         0.7886   -0.5405   -0.5491 H         1 <0>         0.4488
     41 H11        -2.1674    1.4990   -0.0009 H         1 <0>         0.1669
     42 H12        -2.2574    3.9291    0.0095 H         1 <0>         0.1551
     43 H13         2.1070    1.5743   -0.0046 H         1 <0>         0.1588
     44 H14         3.1193    6.2220   -0.0045 H         1 <0>         0.1805
     45 H15         1.1497    7.8462    2.0810 H         1 <0>         0.0804
     46 H16         2.6599    7.8449    1.1084 H         1 <0>         0.1112
     47 H17         2.0874   10.1377    1.9287 H         1 <0>         0.1056
     48 H18         2.0520   10.0437    0.1352 H         1 <0>         0.0577
     49 H19        -1.6182    9.9165   -0.0390 H         1 <0>         0.1041
     50 H20        -0.1080    9.9151   -1.0116 H         1 <0>         0.0584
     51 H21        -1.0451    7.6227   -0.8591 H         1 <0>         0.1024
     52 H22        -1.0095    7.7168    0.9344 H         1 <0>         0.0817
     53 H23        -0.9837   11.9212    1.0712 H         1 <0>         0.0784
     54 H24         0.5664   12.0157    0.1685 H         1 <0>         0.0360
     55 H25         0.5718   12.0144    1.9647 H         1 <0>         0.0799
     56 H26         4.4631    4.3392   -0.0106 H         1 <0>         0.0951
     57 H27         3.7600    2.9510   -0.9079 H         1 <0>         0.1047
     58 H28         3.7658    2.9491    0.8884 H         1 <0>         0.1043
     59 H29        -1.1111    6.0403    0.0090 H         1 <0>         0.4696
@<TRIPOS>BOND
     1    1    2 1
     2    1   31 1
     3    1   32 1
     4    1   33 1
     5    2    7 ar
     6    2    3 ar
     7    3    4 ar
     8    3   34 1
     9    4    5 ar
    10    4   35 1
    11    5    6 ar
    12    5    8 1
    13    6    7 ar
    14    6   36 1
    15    7   37 1
    16    8    9 2
    17    8   38 1
    18    9   10 1
    19    9   39 1
    20   10   11 2
    21   10   12 am
    22   12   13 1
    23   12   40 1
    24   13   18 ar
    25   13   14 ar
    26   14   15 ar
    27   14   41 1
    28   15   16 ar
    29   15   42 1
    30   16   22 ar
    31   16   17 ar
    32   17   18 ar
    33   17   19 ar
    34   18   43 1
    35   19   20 ar
    36   19   30 1
    37   20   21 ar
    38   20   44 1
    39   21   22 ar
    40   21   23 1
    41   22   59 1
    42   23   28 1
    43   23   24 1
    44   24   25 1
    45   24   45 1
    46   24   46 1
    47   25   26 1
    48   25   47 1
    49   25   48 1
    50   26   27 1
    51   26   29 1
    52   27   28 1
    53   27   49 1
    54   27   50 1
    55   28   51 1
    56   28   52 1
    57   29   53 1
    58   29   54 1
    59   29   55 1
    60   30   56 1
    61   30   57 1
    62   30   58 1
@<TRIPOS>MOLECULE
ZINC20114379
   59    62     0     0     0
SMALL
USER_CHARGES
(E)-N-[4-methyl-2-(4-methylpiperazin-1-yl)-6-quinolyl]-3-(p-tolyl)prop-2-enamide
@<TRIPOS>ATOM
      1 C1         -1.4757   -8.5752    1.7610 C.3       1 <0>        -0.1249
      2 C2         -1.5599   -7.0729    1.6757 C.ar      1 <0>        -0.0643
      3 C3         -2.6045   -6.4059    2.2916 C.ar      1 <0>        -0.1244
      4 C4         -2.6885   -5.0316    2.2181 C.ar      1 <0>        -0.0846
      5 C5         -1.7146   -4.3117    1.5189 C.ar      1 <0>        -0.0957
      6 C6         -0.6652   -4.9933    0.8947 C.ar      1 <0>        -0.0919
      7 C7         -0.5924   -6.3676    0.9814 C.ar      1 <0>        -0.1257
      8 C8         -1.7971   -2.8444    1.4351 C.2       1 <0>         0.0044
      9 C9         -0.8563   -2.1537    0.7601 C.2       1 <0>        -0.2352
     10 C10        -0.9384   -0.6945    0.6768 C.2       1 <0>         0.5567
     11 O1         -1.8559   -0.1047    1.2170 O.2       1 <0>        -0.5290
     12 N1          0.0021   -0.0041    0.0020 N.am      1 <0>        -0.6858
     13 C11        -0.0220    1.3944    0.0025 C.ar      1 <0>         0.1700
     14 C12        -1.2489    2.0672    0.0008 C.ar      1 <0>        -0.0878
     15 C13        -1.3017    3.4259    0.0067 C.ar      1 <0>        -0.0845
     16 C14        -0.1126    4.1758    0.0036 C.ar      1 <0>         0.1412
     17 C15         1.1326    3.5009   -0.0006 C.ar      1 <0>        -0.0888
     18 C16         1.1627    2.0983   -0.0011 C.ar      1 <0>        -0.1319
     19 C17         2.3232    4.2564   -0.0037 C.ar      1 <0>         0.0026
     20 C18         2.2258    5.6154   -0.0026 C.ar      1 <0>        -0.1824
     21 C19         0.9632    6.2248    0.0017 C.ar      1 <0>         0.3186
     22 N2         -0.1453    5.5137    0.0050 N.ar      1 <0>        -0.5081
     23 N3          0.8795    7.6099    0.0029 N.pl3     1 <0>        -0.4769
     24 C20         1.6130    8.1809    1.1411 C.3       1 <0>         0.0267
     25 C21         1.5634    9.7085    1.0620 C.3       1 <0>         0.0011
     26 N4          0.1622   10.1515    1.0665 N.4       1 <0>        -0.4046
     27 C22        -0.5713    9.5805   -0.0717 C.3       1 <0>        -0.0031
     28 C23        -0.5217    8.0529    0.0075 C.3       1 <0>         0.0364
     29 C24         0.0736   11.6178    1.0678 C.3       1 <0>        -0.0450
     30 C25         3.6689    3.5781   -0.0088 C.3       1 <0>        -0.1268
     31 H1         -2.3241   -8.9572    2.3478 H         1 <0>         0.0693
     32 H2         -0.5330   -8.8624    2.2496 H         1 <0>         0.0748
     33 H3         -1.5086   -9.0024    0.7479 H         1 <0>         0.0749
     34 H4         -3.3556   -6.9633    2.8316 H         1 <0>         0.1287
     35 H5         -3.5044   -4.5125    2.6990 H         1 <0>         0.1295
     36 H6          0.0882   -4.4445    0.3492 H         1 <0>         0.1273
     37 H7          0.2197   -6.8951    0.5034 H         1 <0>         0.1276
     38 H8         -2.6264   -2.3114    1.9232 H         1 <0>         0.1402
     39 H9         -0.0270   -2.6867    0.2720 H         1 <0>         0.1363
     40 H10         0.7886   -0.5405   -0.5491 H         1 <0>         0.4407
     41 H11        -2.1674    1.4990   -0.0009 H         1 <0>         0.1505
     42 H12        -2.2574    3.9291    0.0095 H         1 <0>         0.1394
     43 H13         2.1070    1.5743   -0.0046 H         1 <0>         0.1380
     44 H14         3.1193    6.2220   -0.0045 H         1 <0>         0.1388
     45 H15         1.1497    7.8462    2.0810 H         1 <0>         0.0724
     46 H16         2.6599    7.8449    1.1084 H         1 <0>         0.1307
     47 H17         2.0874   10.1377    1.9287 H         1 <0>         0.1419
     48 H18         2.0520   10.0437    0.1352 H         1 <0>         0.1380
     49 H19        -1.6182    9.9165   -0.0390 H         1 <0>         0.1407
     50 H20        -0.1080    9.9151   -1.0116 H         1 <0>         0.1353
     51 H21        -1.0451    7.6227   -0.8591 H         1 <0>         0.1329
     52 H22        -1.0095    7.7168    0.9344 H         1 <0>         0.0769
     53 H23        -0.9837   11.9212    1.0712 H         1 <0>         0.1255
     54 H24         0.5664   12.0157    0.1685 H         1 <0>         0.1203
     55 H25         0.5718   12.0144    1.9647 H         1 <0>         0.1250
     56 H26         4.4631    4.3392   -0.0106 H         1 <0>         0.0768
     57 H27         3.7600    2.9510   -0.9079 H         1 <0>         0.0850
     58 H28         3.7658    2.9491    0.8884 H         1 <0>         0.0837
     59 H29        -0.3071    9.7850    1.9914 H         1 <0>         0.4425
@<TRIPOS>BOND
     1    1    2 1
     2    1   31 1
     3    1   32 1
     4    1   33 1
     5    2    7 ar
     6    2    3 ar
     7    3    4 ar
     8    3   34 1
     9    4    5 ar
    10    4   35 1
    11    5    6 ar
    12    5    8 1
    13    6    7 ar
    14    6   36 1
    15    7   37 1
    16    8    9 2
    17    8   38 1
    18    9   10 1
    19    9   39 1
    20   10   11 2
    21   10   12 am
    22   12   13 1
    23   12   40 1
    24   13   18 ar
    25   13   14 ar
    26   14   15 ar
    27   14   41 1
    28   15   16 ar
    29   15   42 1
    30   16   22 ar
    31   16   17 ar
    32   17   18 ar
    33   17   19 ar
    34   18   43 1
    35   19   20 ar
    36   19   30 1
    37   20   21 ar
    38   20   44 1
    39   21   22 ar
    40   21   23 1
    41   23   28 1
    42   23   24 1
    43   24   25 1
    44   24   45 1
    45   24   46 1
    46   25   26 1
    47   25   47 1
    48   25   48 1
    49   26   27 1
    50   26   29 1
    51   26   59 1
    52   27   28 1
    53   27   49 1
    54   27   50 1
    55   28   51 1
    56   28   52 1
    57   29   53 1
    58   29   54 1
    59   29   55 1
    60   30   56 1
    61   30   57 1
    62   30   58 1
@<TRIPOS>MOLECULE
ZINC20114379
   58    61     0     0     0
SMALL
USER_CHARGES
(E)-N-[4-methyl-2-(4-methylpiperazin-1-yl)-6-quinolyl]-3-(p-tolyl)prop-2-enamide
@<TRIPOS>ATOM
      1 C1         -1.4757   -8.5752    1.7610 C.3       1 <0>        -0.1228
      2 C2         -1.5599   -7.0729    1.6757 C.ar      1 <0>        -0.0697
      3 C3         -2.6045   -6.4059    2.2916 C.ar      1 <0>        -0.1241
      4 C4         -2.6885   -5.0316    2.2181 C.ar      1 <0>        -0.0871
      5 C5         -1.7146   -4.3117    1.5189 C.ar      1 <0>        -0.0887
      6 C6         -0.6652   -4.9933    0.8947 C.ar      1 <0>        -0.0942
      7 C7         -0.5924   -6.3676    0.9814 C.ar      1 <0>        -0.1251
      8 C8         -1.7971   -2.8444    1.4351 C.2       1 <0>        -0.0071
      9 C9         -0.8563   -2.1537    0.7601 C.2       1 <0>        -0.2246
     10 C10        -0.9384   -0.6945    0.6768 C.2       1 <0>         0.5522
     11 O1         -1.8559   -0.1047    1.2170 O.2       1 <0>        -0.5287
     12 N1          0.0021   -0.0041    0.0020 N.am      1 <0>        -0.6823
     13 C11        -0.0220    1.3944    0.0025 C.ar      1 <0>         0.1500
     14 C12        -1.2489    2.0672    0.0008 C.ar      1 <0>        -0.0927
     15 C13        -1.3017    3.4259    0.0067 C.ar      1 <0>        -0.0856
     16 C14        -0.1126    4.1758    0.0036 C.ar      1 <0>         0.1492
     17 C15         1.1326    3.5009   -0.0006 C.ar      1 <0>        -0.1022
     18 C16         1.1627    2.0983   -0.0011 C.ar      1 <0>        -0.1238
     19 C17         2.3232    4.2564   -0.0037 C.ar      1 <0>        -0.0102
     20 C18         2.2258    5.6154   -0.0026 C.ar      1 <0>        -0.1777
     21 C19         0.9632    6.2248    0.0017 C.ar      1 <0>         0.3414
     22 N2         -0.1453    5.5137    0.0050 N.ar      1 <0>        -0.5159
     23 N3          0.8795    7.6099    0.0029 N.pl3     1 <0>        -0.4786
     24 C20         1.6130    8.1809    1.1411 C.3       1 <0>         0.0605
     25 C21         1.5634    9.7085    1.0620 C.3       1 <0>         0.0543
     26 N4          0.1622   10.1515    1.0665 N.3       1 <0>        -0.5460
     27 C22        -0.5713    9.5805   -0.0717 C.3       1 <0>         0.0506
     28 C23        -0.5217    8.0529    0.0075 C.3       1 <0>         0.0686
     29 C24         0.0736   11.6178    1.0678 C.3       1 <0>         0.0227
     30 C25         3.6689    3.5781   -0.0088 C.3       1 <0>        -0.1201
     31 H1         -2.3241   -8.9572    2.3478 H         1 <0>         0.0680
     32 H2         -0.5330   -8.8624    2.2496 H         1 <0>         0.0733
     33 H3         -1.5086   -9.0024    0.7479 H         1 <0>         0.0734
     34 H4         -3.3556   -6.9633    2.8316 H         1 <0>         0.1272
     35 H5         -3.5044   -4.5125    2.6990 H         1 <0>         0.1293
     36 H6          0.0882   -4.4445    0.3492 H         1 <0>         0.1277
     37 H7          0.2197   -6.8951    0.5034 H         1 <0>         0.1264
     38 H8         -2.6264   -2.3114    1.9232 H         1 <0>         0.1404
     39 H9         -0.0270   -2.6867    0.2720 H         1 <0>         0.1347
     40 H10         0.7886   -0.5405   -0.5491 H         1 <0>         0.4361
     41 H11        -2.1674    1.4990   -0.0009 H         1 <0>         0.1452
     42 H12        -2.2574    3.9291    0.0095 H         1 <0>         0.1373
     43 H13         2.1070    1.5743   -0.0046 H         1 <0>         0.1326
     44 H14         3.1193    6.2220   -0.0045 H         1 <0>         0.1377
     45 H15         1.1497    7.8462    2.0810 H         1 <0>         0.0574
     46 H16         2.6599    7.8449    1.1084 H         1 <0>         0.0901
     47 H17         2.0874   10.1377    1.9287 H         1 <0>         0.0879
     48 H18         2.0520   10.0437    0.1352 H         1 <0>         0.0467
     49 H19        -1.6182    9.9165   -0.0390 H         1 <0>         0.0865
     50 H20        -0.1080    9.9151   -1.0116 H         1 <0>         0.0436
     51 H21        -1.0451    7.6227   -0.8591 H         1 <0>         0.0924
     52 H22        -1.0095    7.7168    0.9344 H         1 <0>         0.0619
     53 H23        -0.9837   11.9212    1.0712 H         1 <0>         0.0712
     54 H24         0.5664   12.0157    0.1685 H         1 <0>         0.0278
     55 H25         0.5718   12.0144    1.9647 H         1 <0>         0.0708
     56 H26         4.4631    4.3392   -0.0106 H         1 <0>         0.0742
     57 H27         3.7600    2.9510   -0.9079 H         1 <0>         0.0793
     58 H28         3.7658    2.9491    0.8884 H         1 <0>         0.0787
@<TRIPOS>BOND
     1    1    2 1
     2    1   31 1
     3    1   32 1
     4    1   33 1
     5    2    7 ar
     6    2    3 ar
     7    3    4 ar
     8    3   34 1
     9    4    5 ar
    10    4   35 1
    11    5    6 ar
    12    5    8 1
    13    6    7 ar
    14    6   36 1
    15    7   37 1
    16    8    9 2
    17    8   38 1
    18    9   10 1
    19    9   39 1
    20   10   11 2
    21   10   12 am
    22   12   13 1
    23   12   40 1
    24   13   18 ar
    25   13   14 ar
    26   14   15 ar
    27   14   41 1
    28   15   16 ar
    29   15   42 1
    30   16   22 ar
    31   16   17 ar
    32   17   18 ar
    33   17   19 ar
    34   18   43 1
    35   19   20 ar
    36   19   30 1
    37   20   21 ar
    38   20   44 1
    39   21   22 ar
    40   21   23 1
    41   23   28 1
    42   23   24 1
    43   24   25 1
    44   24   45 1
    45   24   46 1
    46   25   26 1
    47   25   47 1
    48   25   48 1
    49   26   27 1
    50   26   29 1
    51   27   28 1
    52   27   49 1
    53   27   50 1
    54   28   51 1
    55   28   52 1
    56   29   53 1
    57   29   54 1
    58   29   55 1
    59   30   56 1
    60   30   57 1
    61   30   58 1
@<TRIPOS>MOLECULE
ZINC09597615
   66    69     0     0     0
SMALL
USER_CHARGES
N'-(3-chloro-4-fluoro-phenyl)-N-[2-(4-ethylpiperazin-1-yl)-4-methyl-6-quinolyl]-butanediamide
@<TRIPOS>ATOM
      1 C1        -12.4753   -1.4649    0.4874 C.3       1 <0>        -0.1925
      2 C2        -11.6778   -1.4845   -0.8182 C.3       1 <0>        -0.0054
      3 C3         -9.4839   -1.0709   -1.7567 C.3       1 <0>         0.0081
      4 C4         -8.1052   -0.4773   -1.4581 C.3       1 <0>        -0.0129
      5 N1         -8.2455    0.9547   -1.1594 N.pl3     1 <0>        -0.4856
      6 C5         -9.1272    1.1645   -0.0026 C.3       1 <0>         0.0242
      7 C6        -10.5060    0.5708   -0.3011 C.3       1 <0>        -0.0050
      8 C7         -7.0061    1.5435   -0.9531 C.ar      1 <0>         0.4169
      9 C8         -6.9394    2.9121   -0.6547 C.ar      1 <0>        -0.1902
     10 C9         -5.7294    3.5034   -0.4497 C.ar      1 <0>         0.1195
     11 C10        -4.5704    2.7057   -0.5467 C.ar      1 <0>        -0.0699
     12 C11        -3.2940    3.2524   -0.3465 C.ar      1 <0>        -0.1007
     13 C12        -2.1850    2.4412   -0.4491 C.ar      1 <0>         0.1873
     14 C13        -2.3233    1.0833   -0.7559 C.ar      1 <0>        -0.0310
     15 C14        -3.5510    0.5310   -0.9486 C.ar      1 <0>        -0.1265
     16 C15        -4.7040    1.3292   -0.8512 C.ar      1 <0>         0.1387
     17 N2         -0.9090    2.9814   -0.2504 N.am      1 <0>        -0.6779
     18 C16         0.0526    2.2408    0.3355 C.2       1 <0>         0.5246
     19 O1         -0.2124    1.1429    0.7777 O.2       1 <0>        -0.5104
     20 C17         1.4585    2.7742    0.4356 C.3       1 <0>        -0.1280
     21 C18         2.3473    1.7418    1.1321 C.3       1 <0>        -0.1259
     22 C19         3.7531    2.2752    1.2322 C.2       1 <0>         0.5133
     23 O2          4.0182    3.3731    0.7900 O.2       1 <0>        -0.5150
     24 N3          4.7160    1.5323    1.8131 N.am      1 <0>        -0.6687
     25 C20         5.9943    2.0702    2.0067 C.ar      1 <0>         0.1404
     26 C21         7.1141    1.2553    1.9052 C.ar      1 <0>        -0.1079
     27 C22         8.3746    1.7884    2.0908 C.ar      1 <0>        -0.1192
     28 C23         8.5221    3.1323    2.3898 C.ar      1 <0>         0.1021
     29 C24         7.4060    3.9464    2.4973 C.ar      1 <0>        -0.0566
     30 C25         6.1432    3.4176    2.3061 C.ar      1 <0>        -0.0851
     31 Cl1         7.5937    5.6311    2.8717 Cl        1 <0>        -0.0362
     32 F1          9.7557    3.6505    2.5765 F         1 <0>        -0.1209
     33 C26        -5.6319    4.9725   -0.1282 C.3       1 <0>        -0.1542
     34 H1        -13.4489   -1.9274    0.3253 H         1 <0>         0.1143
     35 H2        -11.9326   -2.0193    1.2530 H         1 <0>         0.0822
     36 H3        -12.6125   -0.4340    0.8139 H         1 <0>         0.0814
     37 H4        -12.2205   -0.9301   -1.5838 H         1 <0>         0.1376
     38 H5        -11.5405   -2.5153   -1.1447 H         1 <0>         0.1362
     39 H6         -9.9094   -0.5801   -2.6320 H         1 <0>         0.1525
     40 H7         -9.3857   -2.1390   -1.9506 H         1 <0>         0.1545
     41 H8         -7.4582   -0.6060   -2.3258 H         1 <0>         0.1405
     42 H9         -7.6681   -0.9868   -0.5994 H         1 <0>         0.0919
     43 H10        -8.7017    0.6736    0.8727 H         1 <0>         0.0933
     44 H11        -9.2254    2.2326    0.1909 H         1 <0>         0.1499
     45 H12       -10.9431    1.0803   -1.1598 H         1 <0>         0.1520
     46 H13       -11.1533    0.6996    0.5664 H         1 <0>         0.1559
     47 H14        -7.8454    3.4960   -0.5871 H         1 <0>         0.1888
     48 H15        -3.1814    4.3010   -0.1142 H         1 <0>         0.1676
     49 H16        -1.4425    0.4637   -0.8370 H         1 <0>         0.1664
     50 H17        -3.6399   -0.5200   -1.1803 H         1 <0>         0.1579
     51 H18        -0.7169    3.8888   -0.5344 H         1 <0>         0.4279
     52 H19         1.8447    2.9704   -0.5646 H         1 <0>         0.1179
     53 H20         1.4559    3.6993    1.0120 H         1 <0>         0.1166
     54 H21         1.9610    1.5456    2.1323 H         1 <0>         0.1104
     55 H22         2.3498    0.8167    0.5556 H         1 <0>         0.1089
     56 H23         4.5235    0.6250    2.0971 H         1 <0>         0.4175
     57 H24         6.9997    0.2060    1.6767 H         1 <0>         0.1449
     58 H25         9.2457    1.1554    2.0074 H         1 <0>         0.1542
     59 H26         5.2732    4.0520    2.3898 H         1 <0>         0.1521
     60 H27        -5.5440    5.5419   -1.0535 H         1 <0>         0.1200
     61 H28        -6.5268    5.2872    0.4085 H         1 <0>         0.1046
     62 H29        -4.7541    5.1509    0.4929 H         1 <0>         0.1012
     63 N4        -10.3533   -0.8730   -0.5777 N.4       1 <0>        -0.4031
     64 H30        -9.9201   -1.3248    0.2361 H         1 <0>         0.4278
     65 N5         -5.9272    0.7289   -1.0583 N.ar      1 <0>        -0.5339
     66 H31        -6.0158   -0.2702   -1.2779 H         1 <0>         0.4609
@<TRIPOS>BOND
     1    1    2 1
     2    1   34 1
     3    1   35 1
     4    1   36 1
     5    2   37 1
     6    2   38 1
     7    2   63 1
     8    3    4 1
     9    3   39 1
    10    3   40 1
    11    3   63 1
    12    4    5 1
    13    4   41 1
    14    4   42 1
    15    5    6 1
    16    5    8 1
    17    6    7 1
    18    6   43 1
    19    6   44 1
    20    7   45 1
    21    7   46 1
    22    7   63 1
    23    8    9 ar
    24    8   65 ar
    25    9   10 ar
    26    9   47 1
    27   10   11 ar
    28   10   33 1
    29   11   16 ar
    30   11   12 ar
    31   12   13 ar
    32   12   48 1
    33   13   14 ar
    34   13   17 1
    35   14   15 ar
    36   14   49 1
    37   15   16 ar
    38   15   50 1
    39   16   65 ar
    40   17   18 am
    41   17   51 1
    42   18   19 2
    43   18   20 1
    44   20   21 1
    45   20   52 1
    46   20   53 1
    47   21   22 1
    48   21   54 1
    49   21   55 1
    50   22   23 2
    51   22   24 am
    52   24   25 1
    53   24   56 1
    54   25   30 ar
    55   25   26 ar
    56   26   27 ar
    57   26   57 1
    58   27   28 ar
    59   27   58 1
    60   28   29 ar
    61   28   32 1
    62   29   30 ar
    63   29   31 1
    64   30   59 1
    65   33   60 1
    66   33   61 1
    67   33   62 1
    68   63   64 1
    69   65   66 1
@<TRIPOS>MOLECULE
ZINC13671925
   69    72     0     0     0
SMALL
USER_CHARGES
(E)-N-[2-(4-ethylpiperazin-1-yl)-4-methyl-6-quinolyl]-3-(4-isopropoxyphenyl)prop-2-enamide
@<TRIPOS>ATOM
      1 C1          2.3223   11.6810    4.8416 C.3       1 <0>        -0.1907
      2 C2          1.6469   11.3632    3.5061 C.3       1 <0>        -0.0072
      3 N1          1.6119    9.9079    3.3091 N.4       1 <0>        -0.4037
      4 C3          0.7666    9.5521    2.1608 C.3       1 <0>        -0.0024
      5 C4          0.6924    8.0283    2.0382 C.3       1 <0>         0.0372
      6 N2          2.0488    7.4857    1.8781 N.pl3     1 <0>        -0.4764
      7 C5          2.8941    7.8416    3.0263 C.3       1 <0>         0.0281
      8 C6          2.9682    9.3654    3.1490 C.3       1 <0>        -0.0019
      9 C7          2.0157    6.1111    1.6920 C.ar      1 <0>         0.3195
     10 C8          3.2206    5.4143    1.5205 C.ar      1 <0>        -0.1845
     11 C9          3.2033    4.0646    1.3368 C.ar      1 <0>         0.0038
     12 C10         1.9556    3.4072    1.3258 C.ar      1 <0>        -0.0883
     13 C11         1.8679    2.0192    1.1419 C.ar      1 <0>        -0.1332
     14 C12         0.6306    1.4124    1.1375 C.ar      1 <0>         0.1697
     15 C13        -0.5333    2.1696    1.3093 C.ar      1 <0>        -0.0858
     16 C14        -0.4715    3.5154    1.4940 C.ar      1 <0>        -0.0855
     17 C15         0.7741    4.1671    1.5045 C.ar      1 <0>         0.1422
     18 N3          0.8539    5.4916    1.6812 N.ar      1 <0>        -0.5087
     19 N4          0.5373    0.0288    0.9541 N.am      1 <0>        -0.6870
     20 C16        -0.3987   -0.6774    1.6187 C.2       1 <0>         0.5575
     21 O1         -1.2186   -0.1016    2.3103 O.2       1 <0>        -0.5312
     22 C17        -0.4295   -2.1351    1.5089 C.2       1 <0>        -0.2438
     23 C18        -1.3670   -2.8425    2.1746 C.2       1 <0>         0.0128
     24 C19        -1.3979   -4.3080    2.0643 C.ar      1 <0>        -0.1316
     25 C20        -0.4599   -4.9720    1.2652 C.ar      1 <0>        -0.0534
     26 C21        -0.4895   -6.3451    1.1699 C.ar      1 <0>        -0.1590
     27 C22        -1.4558   -7.0712    1.8568 C.ar      1 <0>         0.1573
     28 C23        -2.3935   -6.4161    2.6468 C.ar      1 <0>        -0.2176
     29 C24        -2.3689   -5.0438    2.7535 C.ar      1 <0>        -0.0449
     30 O2         -1.4840   -8.4245    1.7553 O.3       1 <0>        -0.3113
     31 C25        -2.5709   -9.1002    2.3910 C.3       1 <0>         0.0754
     32 C26        -2.8129  -10.4422    1.6972 C.3       1 <0>        -0.1522
     33 C27        -2.2306   -9.3412    3.8631 C.3       1 <0>        -0.1830
     34 C28         4.4847    3.2937    1.1498 C.3       1 <0>        -0.1305
     35 H1          2.3485   12.7708    4.9891 H         1 <0>         0.1072
     36 H2          3.3493   11.2869    4.8360 H         1 <0>         0.0798
     37 H3          1.7547   11.2138    5.6599 H         1 <0>         0.0809
     38 H4          0.6199   11.7573    3.5117 H         1 <0>         0.1318
     39 H5          2.2144   11.8304    2.6878 H         1 <0>         0.1278
     40 H6         -0.2446    9.9586    2.3100 H         1 <0>         0.1402
     41 H7          1.1996    9.9742    1.2419 H         1 <0>         0.1354
     42 H8          0.2336    7.6093    2.9459 H         1 <0>         0.0766
     43 H9          0.0834    7.7601    1.1623 H         1 <0>         0.1331
     44 H10         2.4611    7.4194    3.9452 H         1 <0>         0.0720
     45 H11         3.9053    7.4352    2.8771 H         1 <0>         0.1305
     46 H12         3.4263    9.7855    2.2414 H         1 <0>         0.1381
     47 H13         3.5766    9.6345    4.0251 H         1 <0>         0.1418
     48 H14         4.1602    5.9465    1.5342 H         1 <0>         0.1388
     49 H15         2.7631    1.4309    1.0045 H         1 <0>         0.1402
     50 H16        -1.4947    1.6776    1.2989 H         1 <0>         0.1491
     51 H17        -1.3796    4.0841    1.6292 H         1 <0>         0.1392
     52 H18         1.2278   -0.4828    0.2675 H         1 <0>         0.4404
     53 H19         0.3112   -2.6553    0.8839 H         1 <0>         0.1355
     54 H20        -2.1078   -2.3222    2.7996 H         1 <0>         0.1390
     55 H21         0.2886   -4.4085    0.7279 H         1 <0>         0.1345
     56 H22         0.2363   -6.8587    0.5568 H         1 <0>         0.1362
     57 H23        -3.1423   -6.9848    3.1781 H         1 <0>         0.1365
     58 H24        -3.0978   -4.5358    3.3675 H         1 <0>         0.1320
     59 H25        -3.4404   -8.4346    2.2864 H         1 <0>         0.0759
     60 H26        -3.6496  -10.9623    2.1866 H         1 <0>         0.0814
     61 H27        -1.9056  -11.0601    1.7674 H         1 <0>         0.0706
     62 H28        -3.0575  -10.2689    0.6388 H         1 <0>         0.0670
     63 H29        -3.0673   -9.8613    4.3524 H         1 <0>         0.0768
     64 H30        -2.0566   -8.3764    4.3619 H         1 <0>         0.0633
     65 H31        -1.3233   -9.9592    3.9333 H         1 <0>         0.0715
     66 H32         4.2545    2.2261    1.0183 H         1 <0>         0.0787
     67 H33         5.1239    3.4246    2.0354 H         1 <0>         0.0839
     68 H34         5.0110    3.6678    0.2592 H         1 <0>         0.0857
     69 H35         1.1696    9.4566    4.2095 H         1 <0>         0.4390
@<TRIPOS>BOND
     1    1    2 1
     2    1   35 1
     3    1   36 1
     4    1   37 1
     5    2    3 1
     6    2   38 1
     7    2   39 1
     8    3    8 1
     9    3    4 1
    10    3   69 1
    11    4    5 1
    12    4   40 1
    13    4   41 1
    14    5    6 1
    15    5   42 1
    16    5   43 1
    17    6    7 1
    18    6    9 1
    19    7    8 1
    20    7   44 1
    21    7   45 1
    22    8   46 1
    23    8   47 1
    24    9   18 ar
    25    9   10 ar
    26   10   11 ar
    27   10   48 1
    28   11   12 ar
    29   11   34 1
    30   12   17 ar
    31   12   13 ar
    32   13   14 ar
    33   13   49 1
    34   14   15 ar
    35   14   19 1
    36   15   16 ar
    37   15   50 1
    38   16   17 ar
    39   16   51 1
    40   17   18 ar
    41   19   20 am
    42   19   52 1
    43   20   21 2
    44   20   22 1
    45   22   23 2
    46   22   53 1
    47   23   24 1
    48   23   54 1
    49   24   29 ar
    50   24   25 ar
    51   25   26 ar
    52   25   55 1
    53   26   27 ar
    54   26   56 1
    55   27   28 ar
    56   27   30 1
    57   28   29 ar
    58   28   57 1
    59   29   58 1
    60   30   31 1
    61   31   32 1
    62   31   33 1
    63   31   59 1
    64   32   60 1
    65   32   61 1
    66   32   62 1
    67   33   63 1
    68   33   64 1
    69   33   65 1
    70   34   66 1
    71   34   67 1
    72   34   68 1
@<TRIPOS>MOLECULE
ZINC13671925
   69    72     0     0     0
SMALL
USER_CHARGES
(E)-N-[2-(4-ethylpiperazin-1-yl)-4-methyl-6-quinolyl]-3-(4-isopropoxyphenyl)prop-2-enamide
@<TRIPOS>ATOM
      1 C1          2.3223   11.6810    4.8416 C.3       1 <0>        -0.1548
      2 C2          1.6469   11.3632    3.5061 C.3       1 <0>         0.0496
      3 N1          1.6119    9.9079    3.3091 N.3       1 <0>        -0.5423
      4 C3          0.7666    9.5521    2.1608 C.3       1 <0>         0.0551
      5 C4          0.6924    8.0283    2.0382 C.3       1 <0>         0.0163
      6 N2          2.0488    7.4857    1.8781 N.pl3     1 <0>        -0.4724
      7 C5          2.8941    7.8416    3.0263 C.3       1 <0>         0.0553
      8 C6          2.9682    9.3654    3.1490 C.3       1 <0>         0.0438
      9 C7          2.0157    6.1111    1.6920 C.ar      1 <0>         0.4245
     10 C8          3.2206    5.4143    1.5205 C.ar      1 <0>        -0.1901
     11 C9          3.2033    4.0646    1.3368 C.ar      1 <0>         0.0868
     12 C10         1.9556    3.4072    1.3258 C.ar      1 <0>        -0.0766
     13 C11         1.8679    2.0192    1.1419 C.ar      1 <0>        -0.1074
     14 C12         0.6306    1.4124    1.1375 C.ar      1 <0>         0.1831
     15 C13        -0.5333    2.1696    1.3093 C.ar      1 <0>        -0.0429
     16 C14        -0.4715    3.5154    1.4940 C.ar      1 <0>        -0.1235
     17 C15         0.7741    4.1671    1.5045 C.ar      1 <0>         0.1373
     18 N3          0.8539    5.4916    1.6812 N.ar      1 <0>        -0.5222
     19 N4          0.5373    0.0288    0.9541 N.am      1 <0>        -0.6888
     20 C16        -0.3987   -0.6774    1.6187 C.2       1 <0>         0.5621
     21 O1         -1.2186   -0.1016    2.3103 O.2       1 <0>        -0.5290
     22 C17        -0.4295   -2.1351    1.5089 C.2       1 <0>        -0.2556
     23 C18        -1.3670   -2.8425    2.1746 C.2       1 <0>         0.0269
     24 C19        -1.3979   -4.3080    2.0643 C.ar      1 <0>        -0.1391
     25 C20        -0.4599   -4.9720    1.2652 C.ar      1 <0>        -0.0504
     26 C21        -0.4895   -6.3451    1.1699 C.ar      1 <0>        -0.1602
     27 C22        -1.4558   -7.0712    1.8568 C.ar      1 <0>         0.1623
     28 C23        -2.3935   -6.4161    2.6468 C.ar      1 <0>        -0.2185
     29 C24        -2.3689   -5.0438    2.7535 C.ar      1 <0>        -0.0413
     30 O2         -1.4840   -8.4245    1.7553 O.3       1 <0>        -0.3103
     31 C25        -2.5709   -9.1002    2.3910 C.3       1 <0>         0.0754
     32 C26        -2.8129  -10.4422    1.6972 C.3       1 <0>        -0.1526
     33 C27        -2.2306   -9.3412    3.8631 C.3       1 <0>        -0.1833
     34 C28         4.4847    3.2937    1.1498 C.3       1 <0>        -0.1484
     35 H1          2.3485   12.7708    4.9891 H         1 <0>         0.0681
     36 H2          3.3493   11.2869    4.8360 H         1 <0>         0.0561
     37 H3          1.7547   11.2138    5.6599 H         1 <0>         0.0662
     38 H4          0.6199   11.7573    3.5117 H         1 <0>         0.0832
     39 H5          2.2144   11.8304    2.6878 H         1 <0>         0.0425
     40 H6         -0.2446    9.9586    2.3100 H         1 <0>         0.1035
     41 H7          1.1996    9.9742    1.2419 H         1 <0>         0.0578
     42 H8          0.2336    7.6093    2.9459 H         1 <0>         0.0813
     43 H9          0.0834    7.7601    1.1623 H         1 <0>         0.1017
     44 H10         2.4611    7.4194    3.9452 H         1 <0>         0.0800
     45 H11         3.9053    7.4352    2.8771 H         1 <0>         0.1105
     46 H12         3.4263    9.7855    2.2414 H         1 <0>         0.0569
     47 H13         3.5766    9.6345    4.0251 H         1 <0>         0.1074
     48 H14         4.1602    5.9465    1.5342 H         1 <0>         0.1806
     49 H15         2.7631    1.4309    1.0045 H         1 <0>         0.1605
     50 H16        -1.4947    1.6776    1.2989 H         1 <0>         0.1656
     51 H17        -1.3796    4.0841    1.6292 H         1 <0>         0.1551
     52 H18         1.2278   -0.4828    0.2675 H         1 <0>         0.4485
     53 H19         0.3112   -2.6553    0.8839 H         1 <0>         0.1380
     54 H20        -2.1078   -2.3222    2.7996 H         1 <0>         0.1397
     55 H21         0.2886   -4.4085    0.7279 H         1 <0>         0.1345
     56 H22         0.2363   -6.8587    0.5568 H         1 <0>         0.1373
     57 H23        -3.1423   -6.9848    3.1781 H         1 <0>         0.1378
     58 H24        -3.0978   -4.5358    3.3675 H         1 <0>         0.1327
     59 H25        -3.4404   -8.4346    2.2864 H         1 <0>         0.0762
     60 H26        -3.6496  -10.9623    2.1866 H         1 <0>         0.0822
     61 H27        -1.9056  -11.0601    1.7674 H         1 <0>         0.0711
     62 H28        -3.0575  -10.2689    0.6388 H         1 <0>         0.0672
     63 H29        -3.0673   -9.8613    4.3524 H         1 <0>         0.0777
     64 H30        -2.0566   -8.3764    4.3619 H         1 <0>         0.0631
     65 H31        -1.3233   -9.9592    3.9333 H         1 <0>         0.0721
     66 H32         4.2545    2.2261    1.0183 H         1 <0>         0.0909
     67 H33         5.1239    3.4246    2.0354 H         1 <0>         0.1073
     68 H34         5.0110    3.6678    0.2592 H         1 <0>         0.1077
     69 H35        -0.0756    6.0634    1.8191 H         1 <0>         0.4701
@<TRIPOS>BOND
     1    1    2 1
     2    1   35 1
     3    1   36 1
     4    1   37 1
     5    2    3 1
     6    2   38 1
     7    2   39 1
     8    3    8 1
     9    3    4 1
    10    4    5 1
    11    4   40 1
    12    4   41 1
    13    5    6 1
    14    5   42 1
    15    5   43 1
    16    6    7 1
    17    6    9 1
    18    7    8 1
    19    7   44 1
    20    7   45 1
    21    8   46 1
    22    8   47 1
    23    9   18 ar
    24    9   10 ar
    25   10   11 ar
    26   10   48 1
    27   11   12 ar
    28   11   34 1
    29   12   17 ar
    30   12   13 ar
    31   13   14 ar
    32   13   49 1
    33   14   15 ar
    34   14   19 1
    35   15   16 ar
    36   15   50 1
    37   16   17 ar
    38   16   51 1
    39   17   18 ar
    40   18   69 1
    41   19   20 am
    42   19   52 1
    43   20   21 2
    44   20   22 1
    45   22   23 2
    46   22   53 1
    47   23   24 1
    48   23   54 1
    49   24   29 ar
    50   24   25 ar
    51   25   26 ar
    52   25   55 1
    53   26   27 ar
    54   26   56 1
    55   27   28 ar
    56   27   30 1
    57   28   29 ar
    58   28   57 1
    59   29   58 1
    60   30   31 1
    61   31   32 1
    62   31   33 1
    63   31   59 1
    64   32   60 1
    65   32   61 1
    66   32   62 1
    67   33   63 1
    68   33   64 1
    69   33   65 1
    70   34   66 1
    71   34   67 1
    72   34   68 1
@<TRIPOS>MOLECULE
ZINC20114421
   72    75     0     0     0
SMALL
USER_CHARGES
(E)-3-(4-isopentyloxyphenyl)-N-[4-methyl-2-(4-methylpiperazin-1-yl)-6-quinolyl]prop-2-enamide
@<TRIPOS>ATOM
      1 C1          3.6689    3.5781   -0.0088 C.3       1 <0>        -0.1460
      2 C2          2.3232    4.2564   -0.0042 C.ar      1 <0>         0.0853
      3 C3          2.2257    5.6155   -0.0035 C.ar      1 <0>        -0.1876
      4 C4          0.9632    6.2249    0.0003 C.ar      1 <0>         0.4239
      5 N1         -0.1453    5.5138    0.0032 N.ar      1 <0>        -0.5215
      6 C5         -0.1126    4.1759    0.0027 C.ar      1 <0>         0.1360
      7 C6          1.1326    3.5010   -0.0011 C.ar      1 <0>        -0.0769
      8 C7          1.1627    2.0983   -0.0011 C.ar      1 <0>        -0.1072
      9 C8         -0.0220    1.3945    0.0025 C.ar      1 <0>         0.1841
     10 C9         -1.2489    2.0673    0.0008 C.ar      1 <0>        -0.0449
     11 C10        -1.3017    3.4260    0.0058 C.ar      1 <0>        -0.1227
     12 N2          0.0021   -0.0041    0.0020 N.am      1 <0>        -0.6881
     13 C11        -0.9384   -0.6945    0.6768 C.2       1 <0>         0.5621
     14 O1         -1.8561   -0.1046    1.2171 O.2       1 <0>        -0.5282
     15 C12        -0.8564   -2.1520    0.7600 C.2       1 <0>        -0.2564
     16 C13        -1.7984   -2.8435    1.4359 C.2       1 <0>         0.0278
     17 C14        -1.7160   -4.3088    1.5195 C.ar      1 <0>        -0.1385
     18 C15        -0.6650   -4.9899    0.8943 C.ar      1 <0>        -0.0488
     19 C16        -0.5898   -6.3618    0.9797 C.ar      1 <0>        -0.2166
     20 C17        -1.5609   -7.0716    1.6768 C.ar      1 <0>         0.1596
     21 C18        -2.6099   -6.4004    2.2946 C.ar      1 <0>        -0.1577
     22 C19        -2.6914   -5.0282    2.2197 C.ar      1 <0>        -0.0430
     23 O2         -1.4848   -8.4246    1.7540 O.3       1 <0>        -0.3089
     24 C20        -0.3814   -9.0509    1.0966 C.3       1 <0>         0.0536
     25 C21        -0.4643  -10.5661    1.2922 C.3       1 <0>        -0.1174
     26 C22         0.7171  -11.2367    0.5883 C.3       1 <0>        -0.0928
     27 C23         0.7042  -12.7371    0.8874 C.3       1 <0>        -0.1506
     28 C24         0.6030  -11.0166   -0.9215 C.3       1 <0>        -0.1558
     29 N3          0.8795    7.6100    0.0015 N.pl3     1 <0>        -0.4729
     30 C25         1.6126    8.1809    1.1400 C.3       1 <0>         0.0547
     31 C26         1.5631    9.7086    1.0608 C.3       1 <0>         0.0461
     32 N4          0.1618   10.1515    1.0649 N.3       1 <0>        -0.5463
     33 C27        -0.5713    9.5806   -0.0736 C.3       1 <0>         0.0542
     34 C28        -0.5217    8.0529    0.0055 C.3       1 <0>         0.0160
     35 C29         0.0732   11.6178    1.0662 C.3       1 <0>         0.0195
     36 H1          4.4631    4.3392   -0.0107 H         1 <0>         0.0950
     37 H2          3.7602    2.9507   -0.9077 H         1 <0>         0.1046
     38 H3          3.7656    2.9494    0.8886 H         1 <0>         0.1042
     39 H4          3.1193    6.2220   -0.0055 H         1 <0>         0.1805
     40 H5          2.1070    1.5743   -0.0042 H         1 <0>         0.1584
     41 H6         -2.1673    1.4991   -0.0009 H         1 <0>         0.1671
     42 H7         -2.2574    3.9291    0.0086 H         1 <0>         0.1551
     43 H8          0.7886   -0.5404   -0.5491 H         1 <0>         0.4482
     44 H9         -0.0272   -2.6850    0.2719 H         1 <0>         0.1371
     45 H10        -2.6276   -2.3105    1.9241 H         1 <0>         0.1408
     46 H11         0.0878   -4.4397    0.3494 H         1 <0>         0.1303
     47 H12         0.2228   -6.8880    0.5009 H         1 <0>         0.1338
     48 H13        -3.3620   -6.9564    2.8346 H         1 <0>         0.1390
     49 H14        -3.5068   -4.5077    2.7000 H         1 <0>         0.1379
     50 H15        -0.4143   -8.8176    0.0221 H         1 <0>         0.0688
     51 H16         0.5605   -8.6770    1.5243 H         1 <0>         0.0654
     52 H17        -0.4314  -10.7994    2.3667 H         1 <0>         0.0769
     53 H18        -1.4062  -10.9401    0.8645 H         1 <0>         0.0772
     54 H19         1.6579  -10.7983    0.9527 H         1 <0>         0.0730
     55 H20         1.5536  -13.2192    0.3813 H         1 <0>         0.0599
     56 H21        -0.2366  -13.1755    0.5231 H         1 <0>         0.0582
     57 H22         0.7863  -12.8953    1.9729 H         1 <0>         0.0579
     58 H23         1.4524  -11.4987   -1.4275 H         1 <0>         0.0598
     59 H24         0.6124   -9.9379   -1.1365 H         1 <0>         0.0535
     60 H25        -0.3378  -11.4550   -1.2859 H         1 <0>         0.0591
     61 H26         1.1489    7.8462    2.0797 H         1 <0>         0.0803
     62 H27         2.6595    7.8448    1.1077 H         1 <0>         0.1111
     63 H28         2.0869   10.1378    1.9276 H         1 <0>         0.1055
     64 H29         2.0519   10.0438    0.1341 H         1 <0>         0.0576
     65 H30        -1.6182    9.9166   -0.0412 H         1 <0>         0.1039
     66 H31        -0.1077    9.9153   -1.0133 H         1 <0>         0.0582
     67 H32        -1.0447    7.6227   -0.8614 H         1 <0>         0.1020
     68 H33        -1.0099    7.7167    0.9321 H         1 <0>         0.0814
     69 H34        -0.9841   11.9212    1.0693 H         1 <0>         0.0783
     70 H35         0.5663   12.0157    0.1670 H         1 <0>         0.0360
     71 H36         0.5711   12.0144    1.9633 H         1 <0>         0.0798
     72 H37        -1.1226    6.0187    0.0061 H         1 <0>         0.4702
@<TRIPOS>BOND
     1    1    2 1
     2    1   36 1
     3    1   37 1
     4    1   38 1
     5    2    7 ar
     6    2    3 ar
     7    3    4 ar
     8    3   39 1
     9    4    5 ar
    10    4   29 1
    11    5    6 ar
    12    5   72 1
    13    6   11 ar
    14    6    7 ar
    15    7    8 ar
    16    8    9 ar
    17    8   40 1
    18    9   10 ar
    19    9   12 1
    20   10   11 ar
    21   10   41 1
    22   11   42 1
    23   12   13 am
    24   12   43 1
    25   13   14 2
    26   13   15 1
    27   15   16 2
    28   15   44 1
    29   16   17 1
    30   16   45 1
    31   17   22 ar
    32   17   18 ar
    33   18   19 ar
    34   18   46 1
    35   19   20 ar
    36   19   47 1
    37   20   21 ar
    38   20   23 1
    39   21   22 ar
    40   21   48 1
    41   22   49 1
    42   23   24 1
    43   24   25 1
    44   24   50 1
    45   24   51 1
    46   25   26 1
    47   25   52 1
    48   25   53 1
    49   26   27 1
    50   26   28 1
    51   26   54 1
    52   27   55 1
    53   27   56 1
    54   27   57 1
    55   28   58 1
    56   28   59 1
    57   28   60 1
    58   29   34 1
    59   29   30 1
    60   30   31 1
    61   30   61 1
    62   30   62 1
    63   31   32 1
    64   31   63 1
    65   31   64 1
    66   32   33 1
    67   32   35 1
    68   33   34 1
    69   33   65 1
    70   33   66 1
    71   34   67 1
    72   34   68 1
    73   35   69 1
    74   35   70 1
    75   35   71 1
@<TRIPOS>MOLECULE
ZINC20114421
   72    75     0     0     0
SMALL
USER_CHARGES
(E)-3-(4-isopentyloxyphenyl)-N-[4-methyl-2-(4-methylpiperazin-1-yl)-6-quinolyl]prop-2-enamide
@<TRIPOS>ATOM
      1 C1          3.6689    3.5781   -0.0088 C.3       1 <0>        -0.1267
      2 C2          2.3232    4.2564   -0.0042 C.ar      1 <0>         0.0024
      3 C3          2.2257    5.6155   -0.0035 C.ar      1 <0>        -0.1825
      4 C4          0.9632    6.2249    0.0003 C.ar      1 <0>         0.3183
      5 N1         -0.1453    5.5138    0.0032 N.ar      1 <0>        -0.5080
      6 C5         -0.1126    4.1759    0.0027 C.ar      1 <0>         0.1411
      7 C6          1.1326    3.5010   -0.0011 C.ar      1 <0>        -0.0886
      8 C7          1.1627    2.0983   -0.0011 C.ar      1 <0>        -0.1326
      9 C8         -0.0220    1.3945    0.0025 C.ar      1 <0>         0.1708
     10 C9         -1.2489    2.0673    0.0008 C.ar      1 <0>        -0.0876
     11 C10        -1.3017    3.4260    0.0058 C.ar      1 <0>        -0.0846
     12 N2          0.0021   -0.0041    0.0020 N.am      1 <0>        -0.6864
     13 C11        -0.9384   -0.6945    0.6768 C.2       1 <0>         0.5575
     14 O1         -1.8561   -0.1046    1.2171 O.2       1 <0>        -0.5304
     15 C12        -0.8564   -2.1520    0.7600 C.2       1 <0>        -0.2447
     16 C13        -1.7984   -2.8435    1.4359 C.2       1 <0>         0.0137
     17 C14        -1.7160   -4.3088    1.5195 C.ar      1 <0>        -0.1310
     18 C15        -0.6650   -4.9899    0.8943 C.ar      1 <0>        -0.0521
     19 C16        -0.5898   -6.3618    0.9797 C.ar      1 <0>        -0.2153
     20 C17        -1.5609   -7.0716    1.6768 C.ar      1 <0>         0.1546
     21 C18        -2.6099   -6.4004    2.2946 C.ar      1 <0>        -0.1570
     22 C19        -2.6914   -5.0282    2.2197 C.ar      1 <0>        -0.0463
     23 O2         -1.4848   -8.4246    1.7540 O.3       1 <0>        -0.3100
     24 C20        -0.3814   -9.0509    1.0966 C.3       1 <0>         0.0538
     25 C21        -0.4643  -10.5661    1.2922 C.3       1 <0>        -0.1170
     26 C22         0.7171  -11.2367    0.5883 C.3       1 <0>        -0.0930
     27 C23         0.7042  -12.7371    0.8874 C.3       1 <0>        -0.1503
     28 C24         0.6030  -11.0166   -0.9215 C.3       1 <0>        -0.1558
     29 N3          0.8795    7.6100    0.0015 N.pl3     1 <0>        -0.4770
     30 C25         1.6126    8.1809    1.1400 C.3       1 <0>         0.0267
     31 C26         1.5631    9.7086    1.0608 C.3       1 <0>         0.0011
     32 N4          0.1618   10.1515    1.0649 N.4       1 <0>        -0.4046
     33 C27        -0.5713    9.5806   -0.0736 C.3       1 <0>        -0.0031
     34 C28        -0.5217    8.0529    0.0055 C.3       1 <0>         0.0364
     35 C29         0.0732   11.6178    1.0662 C.3       1 <0>        -0.0450
     36 H1          4.4631    4.3392   -0.0107 H         1 <0>         0.0767
     37 H2          3.7602    2.9507   -0.9077 H         1 <0>         0.0849
     38 H3          3.7656    2.9494    0.8886 H         1 <0>         0.0836
     39 H4          3.1193    6.2220   -0.0055 H         1 <0>         0.1387
     40 H5          2.1070    1.5743   -0.0042 H         1 <0>         0.1377
     41 H6         -2.1673    1.4991   -0.0009 H         1 <0>         0.1507
     42 H7         -2.2574    3.9291    0.0086 H         1 <0>         0.1393
     43 H8          0.7886   -0.5404   -0.5491 H         1 <0>         0.4402
     44 H9         -0.0272   -2.6850    0.2719 H         1 <0>         0.1345
     45 H10        -2.6276   -2.3105    1.9241 H         1 <0>         0.1401
     46 H11         0.0878   -4.4397    0.3494 H         1 <0>         0.1303
     47 H12         0.2228   -6.8880    0.5009 H         1 <0>         0.1328
     48 H13        -3.3620   -6.9564    2.8346 H         1 <0>         0.1377
     49 H14        -3.5068   -4.5077    2.7000 H         1 <0>         0.1372
     50 H15        -0.4143   -8.8176    0.0221 H         1 <0>         0.0683
     51 H16         0.5605   -8.6770    1.5243 H         1 <0>         0.0648
     52 H17        -0.4314  -10.7994    2.3667 H         1 <0>         0.0764
     53 H18        -1.4062  -10.9401    0.8645 H         1 <0>         0.0768
     54 H19         1.6579  -10.7983    0.9527 H         1 <0>         0.0730
     55 H20         1.5536  -13.2192    0.3813 H         1 <0>         0.0596
     56 H21        -0.2366  -13.1755    0.5231 H         1 <0>         0.0580
     57 H22         0.7863  -12.8953    1.9729 H         1 <0>         0.0576
     58 H23         1.4524  -11.4987   -1.4275 H         1 <0>         0.0594
     59 H24         0.6124   -9.9379   -1.1365 H         1 <0>         0.0540
     60 H25        -0.3378  -11.4550   -1.2859 H         1 <0>         0.0589
     61 H26         1.1489    7.8462    2.0797 H         1 <0>         0.0724
     62 H27         2.6595    7.8448    1.1077 H         1 <0>         0.1306
     63 H28         2.0869   10.1378    1.9276 H         1 <0>         0.1419
     64 H29         2.0519   10.0438    0.1341 H         1 <0>         0.1380
     65 H30        -1.6182    9.9166   -0.0412 H         1 <0>         0.1407
     66 H31        -0.1077    9.9153   -1.0133 H         1 <0>         0.1353
     67 H32        -1.0447    7.6227   -0.8614 H         1 <0>         0.1329
     68 H33        -1.0099    7.7167    0.9321 H         1 <0>         0.0769
     69 H34        -0.9841   11.9212    1.0693 H         1 <0>         0.1255
     70 H35         0.5663   12.0157    0.1670 H         1 <0>         0.1203
     71 H36         0.5711   12.0144    1.9633 H         1 <0>         0.1250
     72 H37        -0.3078    9.7849    1.9896 H         1 <0>         0.4425
@<TRIPOS>BOND
     1    1    2 1
     2    1   36 1
     3    1   37 1
     4    1   38 1
     5    2    7 ar
     6    2    3 ar
     7    3    4 ar
     8    3   39 1
     9    4    5 ar
    10    4   29 1
    11    5    6 ar
    12    6   11 ar
    13    6    7 ar
    14    7    8 ar
    15    8    9 ar
    16    8   40 1
    17    9   10 ar
    18    9   12 1
    19   10   11 ar
    20   10   41 1
    21   11   42 1
    22   12   13 am
    23   12   43 1
    24   13   14 2
    25   13   15 1
    26   15   16 2
    27   15   44 1
    28   16   17 1
    29   16   45 1
    30   17   22 ar
    31   17   18 ar
    32   18   19 ar
    33   18   46 1
    34   19   20 ar
    35   19   47 1
    36   20   21 ar
    37   20   23 1
    38   21   22 ar
    39   21   48 1
    40   22   49 1
    41   23   24 1
    42   24   25 1
    43   24   50 1
    44   24   51 1
    45   25   26 1
    46   25   52 1
    47   25   53 1
    48   26   27 1
    49   26   28 1
    50   26   54 1
    51   27   55 1
    52   27   56 1
    53   27   57 1
    54   28   58 1
    55   28   59 1
    56   28   60 1
    57   29   34 1
    58   29   30 1
    59   30   31 1
    60   30   61 1
    61   30   62 1
    62   31   32 1
    63   31   63 1
    64   31   64 1
    65   32   33 1
    66   32   35 1
    67   32   72 1
    68   33   34 1
    69   33   65 1
    70   33   66 1
    71   34   67 1
    72   34   68 1
    73   35   69 1
    74   35   70 1
    75   35   71 1
@<TRIPOS>MOLECULE
ZINC20114421
   71    74     0     0     0
SMALL
USER_CHARGES
(E)-3-(4-isopentyloxyphenyl)-N-[4-methyl-2-(4-methylpiperazin-1-yl)-6-quinolyl]prop-2-enamide
@<TRIPOS>ATOM
      1 C1          3.6689    3.5781   -0.0088 C.3       1 <0>        -0.1200
      2 C2          2.3232    4.2564   -0.0042 C.ar      1 <0>        -0.0104
      3 C3          2.2257    5.6155   -0.0035 C.ar      1 <0>        -0.1778
      4 C4          0.9632    6.2249    0.0003 C.ar      1 <0>         0.3412
      5 N1         -0.1453    5.5138    0.0032 N.ar      1 <0>        -0.5158
      6 C5         -0.1126    4.1759    0.0027 C.ar      1 <0>         0.1490
      7 C6          1.1326    3.5010   -0.0011 C.ar      1 <0>        -0.1020
      8 C7          1.1627    2.0983   -0.0011 C.ar      1 <0>        -0.1246
      9 C8         -0.0220    1.3945    0.0025 C.ar      1 <0>         0.1507
     10 C9         -1.2489    2.0673    0.0008 C.ar      1 <0>        -0.0926
     11 C10        -1.3017    3.4260    0.0058 C.ar      1 <0>        -0.0857
     12 N2          0.0021   -0.0041    0.0020 N.am      1 <0>        -0.6830
     13 C11        -0.9384   -0.6945    0.6768 C.2       1 <0>         0.5531
     14 O1         -1.8561   -0.1046    1.2171 O.2       1 <0>        -0.5299
     15 C12        -0.8564   -2.1520    0.7600 C.2       1 <0>        -0.2337
     16 C13        -1.7984   -2.8435    1.4359 C.2       1 <0>         0.0020
     17 C14        -1.7160   -4.3088    1.5195 C.ar      1 <0>        -0.1235
     18 C15        -0.6650   -4.9899    0.8943 C.ar      1 <0>        -0.0547
     19 C16        -0.5898   -6.3618    0.9797 C.ar      1 <0>        -0.2142
     20 C17        -1.5609   -7.0716    1.6768 C.ar      1 <0>         0.1494
     21 C18        -2.6099   -6.4004    2.2946 C.ar      1 <0>        -0.1564
     22 C19        -2.6914   -5.0282    2.2197 C.ar      1 <0>        -0.0489
     23 O2         -1.4848   -8.4246    1.7540 O.3       1 <0>        -0.3114
     24 C20        -0.3814   -9.0509    1.0966 C.3       1 <0>         0.0539
     25 C21        -0.4643  -10.5661    1.2922 C.3       1 <0>        -0.1166
     26 C22         0.7171  -11.2367    0.5883 C.3       1 <0>        -0.0933
     27 C23         0.7042  -12.7371    0.8874 C.3       1 <0>        -0.1497
     28 C24         0.6030  -11.0166   -0.9215 C.3       1 <0>        -0.1557
     29 N3          0.8795    7.6100    0.0015 N.pl3     1 <0>        -0.4787
     30 C25         1.6126    8.1809    1.1400 C.3       1 <0>         0.0606
     31 C26         1.5631    9.7086    1.0608 C.3       1 <0>         0.0543
     32 N4          0.1618   10.1515    1.0649 N.3       1 <0>        -0.5460
     33 C27        -0.5713    9.5806   -0.0736 C.3       1 <0>         0.0506
     34 C28        -0.5217    8.0529    0.0055 C.3       1 <0>         0.0686
     35 C29         0.0732   11.6178    1.0662 C.3       1 <0>         0.0227
     36 H1          4.4631    4.3392   -0.0107 H         1 <0>         0.0741
     37 H2          3.7602    2.9507   -0.9077 H         1 <0>         0.0792
     38 H3          3.7656    2.9494    0.8886 H         1 <0>         0.0786
     39 H4          3.1193    6.2220   -0.0055 H         1 <0>         0.1376
     40 H5          2.1070    1.5743   -0.0042 H         1 <0>         0.1323
     41 H6         -2.1673    1.4991   -0.0009 H         1 <0>         0.1453
     42 H7         -2.2574    3.9291    0.0086 H         1 <0>         0.1373
     43 H8          0.7886   -0.5404   -0.5491 H         1 <0>         0.4355
     44 H9         -0.0272   -2.6850    0.2719 H         1 <0>         0.1329
     45 H10        -2.6276   -2.3105    1.9241 H         1 <0>         0.1404
     46 H11         0.0878   -4.4397    0.3494 H         1 <0>         0.1307
     47 H12         0.2228   -6.8880    0.5009 H         1 <0>         0.1317
     48 H13        -3.3620   -6.9564    2.8346 H         1 <0>         0.1363
     49 H14        -3.5068   -4.5077    2.7000 H         1 <0>         0.1372
     50 H15        -0.4143   -8.8176    0.0221 H         1 <0>         0.0677
     51 H16         0.5605   -8.6770    1.5243 H         1 <0>         0.0644
     52 H17        -0.4314  -10.7994    2.3667 H         1 <0>         0.0759
     53 H18        -1.4062  -10.9401    0.8645 H         1 <0>         0.0762
     54 H19         1.6579  -10.7983    0.9527 H         1 <0>         0.0732
     55 H20         1.5536  -13.2192    0.3813 H         1 <0>         0.0589
     56 H21        -0.2366  -13.1755    0.5231 H         1 <0>         0.0575
     57 H22         0.7863  -12.8953    1.9729 H         1 <0>         0.0573
     58 H23         1.4524  -11.4987   -1.4275 H         1 <0>         0.0589
     59 H24         0.6124   -9.9379   -1.1365 H         1 <0>         0.0549
     60 H25        -0.3378  -11.4550   -1.2859 H         1 <0>         0.0585
     61 H26         1.1489    7.8462    2.0797 H         1 <0>         0.0574
     62 H27         2.6595    7.8448    1.1077 H         1 <0>         0.0900
     63 H28         2.0869   10.1378    1.9276 H         1 <0>         0.0878
     64 H29         2.0519   10.0438    0.1341 H         1 <0>         0.0467
     65 H30        -1.6182    9.9166   -0.0412 H         1 <0>         0.0865
     66 H31        -0.1077    9.9153   -1.0133 H         1 <0>         0.0435
     67 H32        -1.0447    7.6227   -0.8614 H         1 <0>         0.0924
     68 H33        -1.0099    7.7167    0.9321 H         1 <0>         0.0619
     69 H34        -0.9841   11.9212    1.0693 H         1 <0>         0.0712
     70 H35         0.5663   12.0157    0.1670 H         1 <0>         0.0278
     71 H36         0.5711   12.0144    1.9633 H         1 <0>         0.0708
@<TRIPOS>BOND
     1    1    2 1
     2    1   36 1
     3    1   37 1
     4    1   38 1
     5    2    7 ar
     6    2    3 ar
     7    3    4 ar
     8    3   39 1
     9    4    5 ar
    10    4   29 1
    11    5    6 ar
    12    6   11 ar
    13    6    7 ar
    14    7    8 ar
    15    8    9 ar
    16    8   40 1
    17    9   10 ar
    18    9   12 1
    19   10   11 ar
    20   10   41 1
    21   11   42 1
    22   12   13 am
    23   12   43 1
    24   13   14 2
    25   13   15 1
    26   15   16 2
    27   15   44 1
    28   16   17 1
    29   16   45 1
    30   17   22 ar
    31   17   18 ar
    32   18   19 ar
    33   18   46 1
    34   19   20 ar
    35   19   47 1
    36   20   21 ar
    37   20   23 1
    38   21   22 ar
    39   21   48 1
    40   22   49 1
    41   23   24 1
    42   24   25 1
    43   24   50 1
    44   24   51 1
    45   25   26 1
    46   25   52 1
    47   25   53 1
    48   26   27 1
    49   26   28 1
    50   26   54 1
    51   27   55 1
    52   27   56 1
    53   27   57 1
    54   28   58 1
    55   28   59 1
    56   28   60 1
    57   29   34 1
    58   29   30 1
    59   30   31 1
    60   30   61 1
    61   30   62 1
    62   31   32 1
    63   31   63 1
    64   31   64 1
    65   32   33 1
    66   32   35 1
    67   33   34 1
    68   33   65 1
    69   33   66 1
    70   34   67 1
    71   34   68 1
    72   35   69 1
    73   35   70 1
    74   35   71 1
@<TRIPOS>MOLECULE
ZINC20108587
   67    70     0     0     0
SMALL
USER_CHARGES

@<TRIPOS>ATOM
      1 C1          0.3030    0.6309    1.3294 C.3       1 <0>        -0.1550
      2 C2          0.2573   -0.7086    0.5915 C.3       1 <0>        -0.1259
      3 C3         -1.1752   -1.2459    0.5979 C.3       1 <0>        -0.1142
      4 C4         -1.2209   -2.5854   -0.1400 C.3       1 <0>        -0.0900
      5 C5         -2.6319   -3.1146   -0.1337 C.ar      1 <0>        -0.0441
      6 C6         -3.0582   -3.9267    0.9022 C.ar      1 <0>        -0.1243
      7 C7         -4.3487   -4.4142    0.9144 C.ar      1 <0>        -0.0498
      8 C8         -5.2250   -4.0863   -0.1215 C.ar      1 <0>        -0.1500
      9 C9         -4.7885   -3.2665   -1.1636 C.ar      1 <0>        -0.0811
     10 C10        -3.4970   -2.7815   -1.1608 C.ar      1 <0>        -0.1247
     11 C11        -6.6090   -4.6054   -0.1153 C.2       1 <0>         0.5655
     12 O1         -6.9863   -5.3195    0.7933 O.2       1 <0>        -0.5140
     13 N1         -7.4526   -4.2870   -1.1170 N.am      1 <0>        -0.6729
     14 C12        -8.7306   -4.8545   -1.1622 C.ar      1 <0>         0.1500
     15 C13        -9.4222   -5.1022    0.0285 C.ar      1 <0>        -0.0795
     16 C14       -10.6654   -5.6529    0.0140 C.ar      1 <0>        -0.0929
     17 C15       -11.2741   -5.9823   -1.2096 C.ar      1 <0>         0.1675
     18 C16       -10.5794   -5.7340   -2.4187 C.ar      1 <0>        -0.1126
     19 C17        -9.3000   -5.1595   -2.3794 C.ar      1 <0>        -0.1197
     20 C18       -11.1932   -6.0658   -3.6439 C.ar      1 <0>         0.0204
     21 C19       -12.4394   -6.6160   -3.6140 C.ar      1 <0>        -0.2241
     22 C20       -13.0754   -6.8373   -2.3844 C.ar      1 <0>         0.4152
     23 N2        -12.4971   -6.5249   -1.2432 N.ar      1 <0>        -0.5332
     24 N3        -14.3446   -7.3979   -2.3695 N.pl3     1 <0>        -0.6255
     25 C21       -15.1380   -7.4411   -1.1314 C.3       1 <0>         0.1060
     26 C22       -16.5315   -6.8771   -1.4276 C.3       1 <0>        -0.0217
     27 N4        -17.1254   -7.6087   -2.5537 N.4       1 <0>        -0.3840
     28 C23       -16.3384   -7.3768   -3.7715 C.3       1 <0>        -0.0262
     29 C24       -14.9375   -7.9605   -3.5927 C.3       1 <0>         0.1012
     30 C25       -18.5022   -7.1427   -2.7665 C.3       1 <0>        -0.0110
     31 C26       -19.1642   -7.9885   -3.8562 C.3       1 <0>        -0.1890
     32 C27       -10.4892   -5.8177   -4.9531 C.3       1 <0>        -0.1268
     33 H1          1.3235    1.0136    1.3248 H         1 <0>         0.0559
     34 H2         -0.3544    1.3430    0.8306 H         1 <0>         0.0538
     35 H3         -0.0277    0.4903    2.3584 H         1 <0>         0.0543
     36 H4          0.5880   -0.5680   -0.4376 H         1 <0>         0.0627
     37 H5          0.9147   -1.4208    1.0902 H         1 <0>         0.0632
     38 H6         -1.5059   -1.3865    1.6270 H         1 <0>         0.0649
     39 H7         -1.8326   -0.5337    0.0991 H         1 <0>         0.0642
     40 H8         -0.8902   -2.4448   -1.1691 H         1 <0>         0.0775
     41 H9         -0.5635   -3.2976    0.3588 H         1 <0>         0.0782
     42 H10        -2.3791   -4.1799    1.7029 H         1 <0>         0.1331
     43 H11        -4.6801   -5.0483    1.7233 H         1 <0>         0.1382
     44 H12        -5.4614   -3.0094   -1.9682 H         1 <0>         0.1245
     45 H13        -3.1592   -2.1438   -1.9643 H         1 <0>         0.1314
     46 H14        -7.1738   -3.6644   -1.8065 H         1 <0>         0.4129
     47 H15        -8.9617   -4.8529    0.9731 H         1 <0>         0.1502
     48 H16       -11.1851   -5.8374    0.9426 H         1 <0>         0.1401
     49 H17        -8.7637   -4.9622   -3.2958 H         1 <0>         0.1369
     50 H18       -12.9363   -6.8807   -4.5356 H         1 <0>         0.1349
     51 H19       -15.2254   -8.4719   -0.7881 H         1 <0>         0.0870
     52 H20       -14.6535   -6.8365   -0.3647 H         1 <0>         0.1372
     53 H21       -17.1639   -6.9898   -0.5470 H         1 <0>         0.1416
     54 H22       -16.4493   -5.8207   -1.6833 H         1 <0>         0.1312
     55 H23       -16.8285   -7.8577   -4.6180 H         1 <0>         0.1441
     56 H24       -16.2620   -6.3053   -3.9563 H         1 <0>         0.1330
     57 H25       -14.3206   -7.6991   -4.4524 H         1 <0>         0.1284
     58 H26       -15.0043   -9.0446   -3.5022 H         1 <0>         0.0922
     59 H27       -19.0660   -7.2395   -1.8387 H         1 <0>         0.1318
     60 H28       -18.4884   -6.0976   -3.0759 H         1 <0>         0.1283
     61 H29       -20.1858   -7.6427   -4.0141 H         1 <0>         0.1070
     62 H30       -18.6004   -7.8917   -4.7840 H         1 <0>         0.0801
     63 H31       -19.1780   -9.0335   -3.5468 H         1 <0>         0.0812
     64 H32        -9.9036   -6.6966   -5.2229 H         1 <0>         0.0869
     65 H33       -11.2271   -5.6200   -5.7307 H         1 <0>         0.0774
     66 H34        -9.8278   -4.9572   -4.8526 H         1 <0>         0.0794
     67 H35       -17.1356   -8.5956   -2.3441 H         1 <0>         0.4227
@<TRIPOS>BOND
     1    1    2 1
     2    1   33 1
     3    1   34 1
     4    1   35 1
     5    2    3 1
     6    2   36 1
     7    2   37 1
     8    3    4 1
     9    3   38 1
    10    3   39 1
    11    4    5 1
    12    4   40 1
    13    4   41 1
    14    5   10 ar
    15    5    6 ar
    16    6    7 ar
    17    6   42 1
    18    7    8 ar
    19    7   43 1
    20    8    9 ar
    21    8   11 1
    22    9   10 ar
    23    9   44 1
    24   10   45 1
    25   11   12 2
    26   11   13 am
    27   13   14 1
    28   13   46 1
    29   14   19 ar
    30   14   15 ar
    31   15   16 ar
    32   15   47 1
    33   16   17 ar
    34   16   48 1
    35   17   23 ar
    36   17   18 ar
    37   18   19 ar
    38   18   20 ar
    39   19   49 1
    40   20   21 ar
    41   20   32 1
    42   21   22 ar
    43   21   50 1
    44   22   23 ar
    45   22   24 1
    46   24   29 1
    47   24   25 1
    48   25   26 1
    49   25   51 1
    50   25   52 1
    51   26   27 1
    52   26   53 1
    53   26   54 1
    54   27   28 1
    55   27   30 1
    56   27   67 1
    57   28   29 1
    58   28   55 1
    59   28   56 1
    60   29   57 1
    61   29   58 1
    62   30   31 1
    63   30   59 1
    64   30   60 1
    65   31   61 1
    66   31   62 1
    67   31   63 1
    68   32   64 1
    69   32   65 1
    70   32   66 1
@<TRIPOS>MOLECULE
ZINC20108587
   67    70     0     0     0
SMALL
USER_CHARGES

@<TRIPOS>ATOM
      1 C1         -1.3449    0.5916   -0.4099 C.3       1 <0>        -0.1553
      2 C2         -0.6450   -0.7322   -0.0956 C.3       1 <0>        -0.1261
      3 C3          0.0746   -1.2384   -1.3473 C.3       1 <0>        -0.1140
      4 C4          0.7744   -2.5621   -1.0330 C.3       1 <0>        -0.0921
      5 C5          1.4832   -3.0608   -2.2659 C.ar      1 <0>        -0.0379
      6 C6          0.8179   -3.8833   -3.1576 C.ar      1 <0>        -0.1239
      7 C7          1.4607   -4.3429   -4.2884 C.ar      1 <0>        -0.0468
      8 C8          2.7854   -3.9763   -4.5320 C.ar      1 <0>        -0.1566
      9 C9          3.4508   -3.1461   -3.6283 C.ar      1 <0>        -0.0793
     10 C10         2.7946   -2.6893   -2.5041 C.ar      1 <0>        -0.1242
     11 C11         3.4806   -4.4653   -5.7413 C.2       1 <0>         0.5706
     12 O1          2.8987   -5.1885   -6.5263 O.2       1 <0>        -0.5120
     13 N1          4.7596   -4.1095   -5.9736 N.am      1 <0>        -0.6744
     14 C12         5.4464   -4.6439   -7.0690 C.ar      1 <0>         0.1656
     15 C13         4.7615   -4.8917   -8.2636 C.ar      1 <0>        -0.0409
     16 C14         5.4040   -5.4105   -9.3438 C.ar      1 <0>        -0.1258
     17 C15         6.7763   -5.7065   -9.2704 C.ar      1 <0>         0.1490
     18 C16         7.4756   -5.4580   -8.0640 C.ar      1 <0>        -0.0926
     19 C17         6.7931   -4.9166   -6.9643 C.ar      1 <0>        -0.0936
     20 C18         8.8519   -5.7562   -7.9942 C.ar      1 <0>         0.0962
     21 C19         9.4573   -6.2752   -9.0990 C.ar      1 <0>        -0.2253
     22 C20         8.7104   -6.4985  -10.2642 C.ar      1 <0>         0.4974
     23 N2          7.4251   -6.2175  -10.3235 N.ar      1 <0>        -0.5282
     24 N3          9.3405   -7.0271  -11.3819 N.pl3     1 <0>        -0.5790
     25 C21        10.7399   -7.4752  -11.3182 C.3       1 <0>         0.1114
     26 C22        10.8212   -8.8987  -11.8798 C.3       1 <0>         0.0346
     27 N4         10.2199   -8.9281  -13.2198 N.3       1 <0>        -0.5378
     28 C23         8.7912   -8.5903  -13.1702 C.3       1 <0>         0.0329
     29 C24         8.6248   -7.1598  -12.6599 C.3       1 <0>         0.0999
     30 C25        10.4305  -10.2320  -13.8628 C.3       1 <0>         0.0506
     31 C26        10.0175  -10.1480  -15.3336 C.3       1 <0>        -0.1536
     32 C27         9.6335   -5.5068   -6.7301 C.3       1 <0>        -0.1437
     33 H1         -0.6055    1.3272   -0.7265 H         1 <0>         0.0539
     34 H2         -2.0702    0.4383   -1.2090 H         1 <0>         0.0543
     35 H3         -1.8575    0.9522    0.4819 H         1 <0>         0.0567
     36 H4          0.0803   -0.5789    0.7035 H         1 <0>         0.0632
     37 H5         -1.3844   -1.4679    0.2210 H         1 <0>         0.0636
     38 H6         -0.6507   -1.3916   -2.1464 H         1 <0>         0.0651
     39 H7          0.8139   -0.5027   -1.6639 H         1 <0>         0.0644
     40 H8          1.4997   -2.4089   -0.2339 H         1 <0>         0.0789
     41 H9          0.0351   -3.2978   -0.7164 H         1 <0>         0.0795
     42 H10        -0.2069   -4.1665   -2.9678 H         1 <0>         0.1350
     43 H11         0.9403   -4.9851   -4.9834 H         1 <0>         0.1387
     44 H12         4.4758   -2.8591   -3.8108 H         1 <0>         0.1247
     45 H13         3.3070   -2.0437   -1.8062 H         1 <0>         0.1334
     46 H14         5.2040   -3.4829   -5.3812 H         1 <0>         0.4195
     47 H15         3.7069   -4.6679   -8.3286 H         1 <0>         0.1663
     48 H16         4.8599   -5.5955  -10.2583 H         1 <0>         0.1545
     49 H17         7.3181   -4.7194   -6.0413 H         1 <0>         0.1584
     50 H18        10.5104   -6.5138   -9.0773 H         1 <0>         0.1791
     51 H19        11.3648   -6.8102  -11.9143 H         1 <0>         0.1066
     52 H20        11.0792   -7.4703  -10.2824 H         1 <0>         0.1065
     53 H21        11.8652   -9.2058  -11.9428 H         1 <0>         0.1077
     54 H22        10.2802   -9.5802  -11.2233 H         1 <0>         0.0475
     55 H23         8.3628   -8.6736  -14.1690 H         1 <0>         0.1095
     56 H24         8.2784   -9.2760  -12.4957 H         1 <0>         0.0462
     57 H25         7.5663   -6.9465  -12.5107 H         1 <0>         0.0823
     58 H26         9.0424   -6.4639  -13.3874 H         1 <0>         0.1118
     59 H27        11.4840  -10.5040  -13.7962 H         1 <0>         0.0850
     60 H28         9.8277  -10.9874  -13.3587 H         1 <0>         0.0399
     61 H29         8.9641   -9.8760  -15.4002 H         1 <0>         0.0543
     62 H30        10.6204   -9.3927  -15.8377 H         1 <0>         0.0678
     63 H31        10.1738  -11.1155  -15.8107 H         1 <0>         0.0680
     64 H32         9.5998   -6.3960   -6.1006 H         1 <0>         0.1082
     65 H33        10.6692   -5.2791   -6.9822 H         1 <0>         0.0976
     66 H34         9.1968   -4.6647   -6.1931 H         1 <0>         0.0936
     67 H35         6.9391   -6.3849  -11.1461 H         1 <0>         0.4331
@<TRIPOS>BOND
     1    1    2 1
     2    1   33 1
     3    1   34 1
     4    1   35 1
     5    2    3 1
     6    2   36 1
     7    2   37 1
     8    3    4 1
     9    3   38 1
    10    3   39 1
    11    4    5 1
    12    4   40 1
    13    4   41 1
    14    5   10 ar
    15    5    6 ar
    16    6    7 ar
    17    6   42 1
    18    7    8 ar
    19    7   43 1
    20    8    9 ar
    21    8   11 1
    22    9   10 ar
    23    9   44 1
    24   10   45 1
    25   11   12 2
    26   11   13 am
    27   13   14 1
    28   13   46 1
    29   14   19 ar
    30   14   15 ar
    31   15   16 ar
    32   15   47 1
    33   16   17 ar
    34   16   48 1
    35   17   23 ar
    36   17   18 ar
    37   18   19 ar
    38   18   20 ar
    39   19   49 1
    40   20   21 ar
    41   20   32 1
    42   21   22 ar
    43   21   50 1
    44   22   23 ar
    45   22   24 1
    46   23   67 1
    47   24   29 1
    48   24   25 1
    49   25   26 1
    50   25   51 1
    51   25   52 1
    52   26   27 1
    53   26   53 1
    54   26   54 1
    55   27   28 1
    56   27   30 1
    57   28   29 1
    58   28   55 1
    59   28   56 1
    60   29   57 1
    61   29   58 1
    62   30   31 1
    63   30   59 1
    64   30   60 1
    65   31   61 1
    66   31   62 1
    67   31   63 1
    68   32   64 1
    69   32   65 1
    70   32   66 1
@<TRIPOS>MOLECULE
ZINC03828640
   64    68     0     0     0
SMALL
USER_CHARGES

@<TRIPOS>ATOM
      1 C1          2.4030   -3.5768   -2.0092 C.ar      1 <0>        -0.1203
      2 C2          3.6670   -3.0308   -2.2260 C.ar      1 <0>        -0.0806
      3 C3          4.1055   -1.9679   -1.4981 C.ar      1 <0>        -0.1408
      4 C4          3.2737   -1.4096   -0.5123 C.ar      1 <0>         0.0301
      5 C5          1.9881   -1.9645   -0.2921 C.ar      1 <0>        -0.0755
      6 C6          1.5704   -3.0626   -1.0635 C.ar      1 <0>        -0.0905
      7 C7          1.1563   -1.4060    0.6930 C.ar      1 <0>        -0.0358
      8 C8          1.5947   -0.3425    1.4208 C.ar      1 <0>        -0.1522
      9 C9          2.8583    0.2032    1.2041 C.ar      1 <0>         0.0093
     10 C10         3.6914   -0.3118    0.2587 C.ar      1 <0>        -0.6758
     11 S1          5.2853    0.3945    0.0034 S.o2      1 <0>         2.6957
     12 O1          5.3860    1.5007    0.8896 O.2       1 <0>        -0.9606
     13 O2          6.2136   -0.6813    0.0193 O.2       1 <0>        -0.9492
     14 N1          5.3058    1.0147   -1.5320 N.pl3     1 <0>        -1.1160
     15 C11         4.4105    2.1181   -1.8883 C.3       1 <0>         0.1171
     16 C12         4.8902    2.7643   -3.1895 C.3       1 <0>        -0.0952
     17 C13         6.2587    3.4102   -2.9638 C.3       1 <0>        -0.1158
     18 C14         6.1448    4.4793   -1.8752 C.3       1 <0>        -0.1217
     19 C15         5.1422    5.5487   -2.3134 C.3       1 <0>        -0.0956
     20 C16         3.7737    4.9028   -2.5391 C.3       1 <0>        -0.1255
     21 C17         3.8876    3.8337   -3.6277 C.3       1 <0>        -0.1134
     22 C18         5.0283    6.6177   -1.2248 C.3       1 <0>         0.0885
     23 N2          4.1608    7.7013   -1.6934 N.pl3     1 <0>        -0.6662
     24 C19         3.9075    8.7873   -0.8752 C.ar      1 <0>         0.6845
     25 N3          4.4656    8.8219    0.3199 N.ar      1 <0>        -0.5846
     26 C20         4.2448    9.8579    1.1425 C.ar      1 <0>         0.2022
     27 C21         4.8216    9.9274    2.4180 C.ar      1 <0>        -0.1475
     28 C22         4.5652   11.0033    3.2152 C.ar      1 <0>        -0.0186
     29 C23         3.7380   12.0356    2.7823 C.ar      1 <0>        -0.1209
     30 C24         3.1607   11.9993    1.5468 C.ar      1 <0>        -0.0370
     31 C25         3.4039   10.9096    0.7040 C.ar      1 <0>        -0.1948
     32 C26         2.8323   10.8181   -0.5896 C.ar      1 <0>         0.5606
     33 N4          3.1160    9.7554   -1.3282 N.ar      1 <0>        -0.5977
     34 N5          2.0062   11.8119   -1.0692 N.pl3     1 <0>        -0.7694
     35 H1          2.0778   -4.4178   -2.6036 H         1 <0>         0.1319
     36 H2          4.3081   -3.4580   -2.9829 H         1 <0>         0.1328
     37 H3          5.0877   -1.5558   -1.6767 H         1 <0>         0.1313
     38 H4          0.5936   -3.4958   -0.9069 H         1 <0>         0.1342
     39 H5          0.1742   -1.8182    0.8715 H         1 <0>         0.1385
     40 H6          0.9534    0.0849    2.1774 H         1 <0>         0.1364
     41 H7          3.1817    1.0473    1.7952 H         1 <0>         0.1434
     42 H8          5.9106    0.6473   -2.1954 H         1 <0>         0.4207
     43 H9          3.3988    1.7358   -2.0240 H         1 <0>         0.0668
     44 H10         4.4142    2.8611   -1.0907 H         1 <0>         0.0824
     45 H11         4.9714    2.0027   -3.9650 H         1 <0>         0.0867
     46 H12         6.9730    2.6484   -2.6516 H         1 <0>         0.0741
     47 H13         6.6005    3.8706   -3.8908 H         1 <0>         0.0711
     48 H14         5.8030    4.0189   -0.9482 H         1 <0>         0.0792
     49 H15         7.1198    4.9394   -1.7144 H         1 <0>         0.0726
     50 H16         5.4840    6.0090   -3.2404 H         1 <0>         0.0914
     51 H17         3.4319    4.4424   -1.6121 H         1 <0>         0.0729
     52 H18         3.0594    5.6646   -2.8514 H         1 <0>         0.0650
     53 H19         4.2294    4.2941   -4.5547 H         1 <0>         0.0738
     54 H20         2.9127    3.3736   -3.7885 H         1 <0>         0.0731
     55 H21         4.6027    6.1752   -0.3242 H         1 <0>         0.0902
     56 H22         6.0182    7.0156   -1.0013 H         1 <0>         0.0896
     57 H23         3.7641    7.6571   -2.5774 H         1 <0>         0.4405
     58 H24         5.4649    9.1334    2.7674 H         1 <0>         0.1568
     59 H25         5.0104   11.0552    4.1977 H         1 <0>         0.1559
     60 H26         3.5503   12.8765    3.4335 H         1 <0>         0.1526
     61 H27         2.5203   12.8060    1.2219 H         1 <0>         0.1487
     62 H28         1.8096   12.5865   -0.5193 H         1 <0>         0.4311
     63 H29         1.6216   11.7367   -1.9564 H         1 <0>         0.4316
     64 H30         5.0388    8.0933    0.6055 H         1 <0>         0.4384
@<TRIPOS>BOND
     1    1    6 ar
     2    1    2 ar
     3    1   35 1
     4    2    3 ar
     5    2   36 1
     6    3    4 ar
     7    3   37 1
     8    4   10 ar
     9    4    5 ar
    10    5    6 ar
    11    5    7 ar
    12    6   38 1
    13    7    8 ar
    14    7   39 1
    15    8    9 ar
    16    8   40 1
    17    9   10 ar
    18    9   41 1
    19   10   11 1
    20   11   12 2
    21   11   13 2
    22   11   14 1
    23   14   15 1
    24   14   42 1
    25   15   16 1
    26   15   43 1
    27   15   44 1
    28   16   21 1
    29   16   17 1
    30   16   45 1
    31   17   18 1
    32   17   46 1
    33   17   47 1
    34   18   19 1
    35   18   48 1
    36   18   49 1
    37   19   20 1
    38   19   22 1
    39   19   50 1
    40   20   21 1
    41   20   51 1
    42   20   52 1
    43   21   53 1
    44   21   54 1
    45   22   23 1
    46   22   55 1
    47   22   56 1
    48   23   24 1
    49   23   57 1
    50   24   33 ar
    51   24   25 ar
    52   25   26 ar
    53   25   64 1
    54   26   31 ar
    55   26   27 ar
    56   27   28 ar
    57   27   58 1
    58   28   29 ar
    59   28   59 1
    60   29   30 ar
    61   29   60 1
    62   30   31 ar
    63   30   61 1
    64   31   32 ar
    65   32   33 ar
    66   32   34 1
    67   34   62 1
    68   34   63 1
@<TRIPOS>MOLECULE
ZINC13671923
   63    66     0     0     0
SMALL
USER_CHARGES

@<TRIPOS>ATOM
      1 C1         -0.0624    1.5522    0.0238 C.3       1 <0>        -0.1890
      2 C2         -0.0413    0.0224    0.0237 C.3       1 <0>        -0.0109
      3 N1         -1.4194   -0.4863    0.0263 N.4       1 <0>        -0.3839
      4 C3         -2.0854   -0.0968   -1.2231 C.3       1 <0>        -0.0265
      5 C4         -3.5552   -0.5270   -1.1729 C.3       1 <0>         0.1011
      6 N2         -3.6097   -1.9674   -0.8793 N.pl3     1 <0>        -0.6246
      7 C5         -2.8347   -2.4715    0.2650 C.3       1 <0>         0.1045
      8 C6         -1.3989   -1.9496    0.1469 C.3       1 <0>        -0.0214
      9 C7         -4.3710   -2.8263   -1.6592 C.ar      1 <0>         0.4177
     10 C8         -5.0992   -2.3063   -2.7390 C.ar      1 <0>        -0.2268
     11 C9         -5.8505   -3.1376   -3.5136 C.ar      1 <0>         0.0267
     12 C10        -5.8688   -4.5118   -3.1967 C.ar      1 <0>        -0.1153
     13 C11        -6.6213   -5.4216   -3.9544 C.ar      1 <0>        -0.0872
     14 C12        -6.6140   -6.7570   -3.6142 C.ar      1 <0>         0.1374
     15 C13        -5.8644   -7.2085   -2.5224 C.ar      1 <0>        -0.0976
     16 C14        -5.1281   -6.3443   -1.7740 C.ar      1 <0>        -0.0923
     17 C15        -5.1119   -4.9754   -2.0933 C.ar      1 <0>         0.1654
     18 N3         -4.3882   -4.1110   -1.3714 N.ar      1 <0>        -0.5376
     19 N4         -7.3625   -7.6685   -4.3662 N.am      1 <0>        -0.6715
     20 C16        -7.4984   -7.4942   -5.6957 C.2       1 <0>         0.5535
     21 O1         -6.8912   -6.6012   -6.2577 O.2       1 <0>        -0.5287
     22 C17        -8.3751   -8.3777   -6.4630 C.2       1 <0>        -0.2409
     23 C18        -8.5112   -8.2031   -7.7947 C.2       1 <0>         0.0153
     24 C19        -9.3925   -9.0913   -8.5662 C.ar      1 <0>        -0.1305
     25 C20       -10.0962  -10.1152   -7.9215 C.ar      1 <0>        -0.0540
     26 C21       -10.9202  -10.9443   -8.6485 C.ar      1 <0>        -0.1564
     27 C22       -11.0542  -10.7660  -10.0207 C.ar      1 <0>         0.1497
     28 C23       -10.3576   -9.7506  -10.6658 C.ar      1 <0>        -0.2139
     29 C24        -9.5354   -8.9124   -9.9471 C.ar      1 <0>        -0.0455
     30 O2        -11.8677  -11.5865  -10.7332 O.3       1 <0>        -0.3126
     31 C25       -11.9595  -11.3480  -12.1391 C.3       1 <0>         0.0237
     32 C26        -6.6421   -2.6027   -4.6790 C.3       1 <0>        -0.1272
     33 H1          0.9601    1.9297    0.0219 H         1 <0>         0.1069
     34 H2         -0.5829    1.9085   -0.8652 H         1 <0>         0.0802
     35 H3         -0.5795    1.9084    0.9148 H         1 <0>         0.0811
     36 H4          0.4758   -0.3338   -0.8673 H         1 <0>         0.1283
     37 H5          0.4791   -0.3339    0.9127 H         1 <0>         0.1317
     38 H6         -2.0272    0.9849   -1.3440 H         1 <0>         0.1439
     39 H7         -1.5927   -0.5838   -2.0647 H         1 <0>         0.1330
     40 H8         -4.0722    0.0264   -0.3889 H         1 <0>         0.0930
     41 H9         -4.0272   -0.3313   -2.1357 H         1 <0>         0.1288
     42 H10        -3.2789   -2.1145    1.1941 H         1 <0>         0.0865
     43 H11        -2.8303   -3.5615    0.2528 H         1 <0>         0.1394
     44 H12        -0.9270   -2.3805   -0.7361 H         1 <0>         0.1315
     45 H13        -0.8349   -2.2331    1.0355 H         1 <0>         0.1412
     46 H14        -5.0648   -1.2488   -2.9557 H         1 <0>         0.1355
     47 H15        -7.2022   -5.0780   -4.7976 H         1 <0>         0.1451
     48 H16        -5.8708   -8.2586   -2.2703 H         1 <0>         0.1374
     49 H17        -4.5558   -6.7097   -0.9342 H         1 <0>         0.1401
     50 H18        -7.7837   -8.4261   -3.9308 H         1 <0>         0.4153
     51 H19        -8.9137   -9.1699   -5.9645 H         1 <0>         0.1333
     52 H20        -7.9725   -7.4108   -8.2933 H         1 <0>         0.1361
     53 H21        -9.9925  -10.2548   -6.8556 H         1 <0>         0.1354
     54 H22       -11.4633  -11.7349   -8.1521 H         1 <0>         0.1373
     55 H23       -10.4648   -9.6164  -11.7321 H         1 <0>         0.1349
     56 H24        -8.9981   -8.1210  -10.4485 H         1 <0>         0.1327
     57 H25       -12.3356  -10.3398  -12.3128 H         1 <0>         0.0591
     58 H26       -10.9725  -11.4503  -12.5902 H         1 <0>         0.0592
     59 H27       -12.6404  -12.0719  -12.5868 H         1 <0>         0.1052
     60 H28        -6.0263   -2.6266   -5.5781 H         1 <0>         0.0879
     61 H29        -7.5287   -3.2186   -4.8293 H         1 <0>         0.0800
     62 H30        -6.9438   -1.5758   -4.4725 H         1 <0>         0.0774
     63 H31        -1.9205   -0.0926    0.8086 H         1 <0>         0.4224
@<TRIPOS>BOND
     1    1    2 1
     2    1   33 1
     3    1   34 1
     4    1   35 1
     5    2    3 1
     6    2   36 1
     7    2   37 1
     8    3    8 1
     9    3    4 1
    10    3   63 1
    11    4    5 1
    12    4   38 1
    13    4   39 1
    14    5    6 1
    15    5   40 1
    16    5   41 1
    17    6    7 1
    18    6    9 1
    19    7    8 1
    20    7   42 1
    21    7   43 1
    22    8   44 1
    23    8   45 1
    24    9   18 ar
    25    9   10 ar
    26   10   11 ar
    27   10   46 1
    28   11   12 ar
    29   11   32 1
    30   12   17 ar
    31   12   13 ar
    32   13   14 ar
    33   13   47 1
    34   14   15 ar
    35   14   19 1
    36   15   16 ar
    37   15   48 1
    38   16   17 ar
    39   16   49 1
    40   17   18 ar
    41   19   20 am
    42   19   50 1
    43   20   21 2
    44   20   22 1
    45   22   23 2
    46   22   51 1
    47   23   24 1
    48   23   52 1
    49   24   29 ar
    50   24   25 ar
    51   25   26 ar
    52   25   53 1
    53   26   27 ar
    54   26   54 1
    55   27   28 ar
    56   27   30 1
    57   28   29 ar
    58   28   55 1
    59   29   56 1
    60   30   31 1
    61   31   57 1
    62   31   58 1
    63   31   59 1
    64   32   60 1
    65   32   61 1
    66   32   62 1
@<TRIPOS>MOLECULE
ZINC13671923
   63    66     0     0     0
SMALL
USER_CHARGES

@<TRIPOS>ATOM
      1 C1          0.0481    1.4659   -0.0111 C.3       1 <0>        -0.1536
      2 C2          0.0558   -0.0641   -0.0157 C.3       1 <0>         0.0507
      3 N1         -1.3267   -0.5607   -0.0044 N.3       1 <0>        -0.5383
      4 C3         -2.0245   -0.2039   -1.2468 C.3       1 <0>         0.0348
      5 C4         -3.5054   -0.5774   -1.1224 C.3       1 <0>         0.0989
      6 N2         -3.5993   -1.9949   -0.7415 N.pl3     1 <0>        -0.5792
      7 C5         -2.8172   -2.4581    0.4148 C.3       1 <0>         0.1108
      8 C6         -1.3633   -2.0105    0.2298 C.3       1 <0>         0.0346
      9 C7         -4.4040   -2.8722   -1.4544 C.ar      1 <0>         0.4990
     10 C8         -4.3855   -4.2362   -1.1294 C.ar      1 <0>        -0.2283
     11 C9         -5.1707   -5.1089   -1.8205 C.ar      1 <0>         0.1009
     12 C10        -5.9860   -4.6011   -2.8533 C.ar      1 <0>        -0.0933
     13 C11        -6.8183   -5.4457   -3.6029 C.ar      1 <0>        -0.0657
     14 C12        -7.6010   -4.9126   -4.6041 C.ar      1 <0>         0.1593
     15 C13        -7.5702   -3.5405   -4.8762 C.ar      1 <0>        -0.0613
     16 C14        -6.7707   -2.7035   -4.1625 C.ar      1 <0>        -0.1234
     17 C15        -5.9599   -3.2132   -3.1334 C.ar      1 <0>         0.1440
     18 N3         -5.1711   -2.4034   -2.4166 N.ar      1 <0>        -0.5285
     19 N4         -8.4327   -5.7501   -5.3547 N.am      1 <0>        -0.6738
     20 C16        -9.0247   -6.8108   -4.7709 C.2       1 <0>         0.5586
     21 O1         -8.9163   -6.9843   -3.5708 O.2       1 <0>        -0.5254
     22 C17        -9.7973   -7.7533   -5.5789 C.2       1 <0>        -0.2530
     23 C18       -10.3903   -8.8157   -4.9941 C.2       1 <0>         0.0298
     24 C19       -11.1670   -9.7632   -5.8065 C.ar      1 <0>        -0.1383
     25 C20       -11.2884   -9.5692   -7.1874 C.ar      1 <0>        -0.0510
     26 C21       -12.0169  -10.4594   -7.9436 C.ar      1 <0>        -0.1577
     27 C22       -12.6314  -11.5496   -7.3381 C.ar      1 <0>         0.1548
     28 C23       -12.5139  -11.7468   -5.9670 C.ar      1 <0>        -0.2148
     29 C24       -11.7829  -10.8656   -5.2026 C.ar      1 <0>        -0.0417
     30 O2        -13.3490  -12.4242   -8.0882 O.3       1 <0>        -0.3115
     31 C25       -13.9543  -13.5223   -7.4027 C.3       1 <0>         0.0230
     32 C26        -5.1679   -6.5792   -1.4903 C.3       1 <0>        -0.1439
     33 H1          1.0738    1.8344   -0.0195 H         1 <0>         0.0679
     34 H2         -0.4758    1.8293   -0.8952 H         1 <0>         0.0542
     35 H3         -0.4593    1.8240    0.8846 H         1 <0>         0.0676
     36 H4          0.5632   -0.4222   -0.9115 H         1 <0>         0.0398
     37 H5          0.5796   -0.4274    0.8684 H         1 <0>         0.0849
     38 H6         -1.9331    0.8684   -1.4202 H         1 <0>         0.1087
     39 H7         -1.5813   -0.7468   -2.0817 H         1 <0>         0.0469
     40 H8         -3.9755    0.0394   -0.3565 H         1 <0>         0.1102
     41 H9         -4.0040   -0.4216   -2.0791 H         1 <0>         0.0831
     42 H10        -3.2211   -2.0220    1.3284 H         1 <0>         0.1065
     43 H11        -2.8607   -3.5456    0.4744 H         1 <0>         0.1070
     44 H12        -0.9294   -2.5282   -0.6256 H         1 <0>         0.0481
     45 H13        -0.7925   -2.2484    1.1274 H         1 <0>         0.1072
     46 H14        -3.7498   -4.5942   -0.3331 H         1 <0>         0.1791
     47 H15        -6.8451   -6.5056   -3.3973 H         1 <0>         0.1649
     48 H16        -8.1901   -3.1403   -5.6648 H         1 <0>         0.1553
     49 H17        -6.7586   -1.6470   -4.3863 H         1 <0>         0.1547
     50 H18        -8.5834   -5.5675   -6.2953 H         1 <0>         0.4216
     51 H19        -9.8935   -7.5994   -6.6435 H         1 <0>         0.1355
     52 H20       -10.2941   -8.9696   -3.9295 H         1 <0>         0.1372
     53 H21       -10.8117   -8.7224   -7.6587 H         1 <0>         0.1353
     54 H22       -12.1116  -10.3105   -9.0091 H         1 <0>         0.1382
     55 H23       -12.9935  -12.5950   -5.5013 H         1 <0>         0.1363
     56 H24       -11.6884  -11.0222   -4.1382 H         1 <0>         0.1336
     57 H25       -14.4961  -14.1423   -8.1169 H         1 <0>         0.1064
     58 H26       -13.1813  -14.1182   -6.9173 H         1 <0>         0.0600
     59 H27       -14.6471  -13.1440   -6.6510 H         1 <0>         0.0601
     60 H28        -5.9278   -6.7837   -0.7360 H         1 <0>         0.1106
     61 H29        -5.3855   -7.1542   -2.3904 H         1 <0>         0.0935
     62 H30        -4.1884   -6.8634   -1.1056 H         1 <0>         0.0965
     63 H31        -5.1618   -1.4534   -2.6120 H         1 <0>         0.4328
@<TRIPOS>BOND
     1    1    2 1
     2    1   33 1
     3    1   34 1
     4    1   35 1
     5    2    3 1
     6    2   36 1
     7    2   37 1
     8    3    8 1
     9    3    4 1
    10    4    5 1
    11    4   38 1
    12    4   39 1
    13    5    6 1
    14    5   40 1
    15    5   41 1
    16    6    7 1
    17    6    9 1
    18    7    8 1
    19    7   42 1
    20    7   43 1
    21    8   44 1
    22    8   45 1
    23    9   18 ar
    24    9   10 ar
    25   10   11 ar
    26   10   46 1
    27   11   12 ar
    28   11   32 1
    29   12   17 ar
    30   12   13 ar
    31   13   14 ar
    32   13   47 1
    33   14   15 ar
    34   14   19 1
    35   15   16 ar
    36   15   48 1
    37   16   17 ar
    38   16   49 1
    39   17   18 ar
    40   18   63 1
    41   19   20 am
    42   19   50 1
    43   20   21 2
    44   20   22 1
    45   22   23 2
    46   22   51 1
    47   23   24 1
    48   23   52 1
    49   24   29 ar
    50   24   25 ar
    51   25   26 ar
    52   25   53 1
    53   26   27 ar
    54   26   54 1
    55   27   28 ar
    56   27   30 1
    57   28   29 ar
    58   28   55 1
    59   29   56 1
    60   30   31 1
    61   31   57 1
    62   31   58 1
    63   31   59 1
    64   32   60 1
    65   32   61 1
    66   32   62 1
@<TRIPOS>MOLECULE
ZINC06222594
   52    55     0     0     0
SMALL
USER_CHARGES
4-[(1-cinnamyl-4-piperidyl)amino]chromen-2-one
@<TRIPOS>ATOM
      1 C1         -7.5288    3.2502    5.3470 C.ar      1 <0>        -0.0938
      2 C2         -8.0966    3.8108    4.2169 C.ar      1 <0>        -0.1192
      3 C3         -7.5747    3.5352    2.9698 C.ar      1 <0>        -0.0896
      4 C4         -6.4715    2.6892    2.8499 C.ar      1 <0>        -0.1011
      5 C5         -5.9068    2.1227    3.9933 C.ar      1 <0>        -0.0997
      6 C6         -6.4347    2.4110    5.2350 C.ar      1 <0>        -0.1210
      7 C7         -5.9073    2.3896    1.5170 C.2       1 <0>        -0.0123
      8 C8         -4.8591    1.5855    1.4064 C.2       1 <0>        -0.2580
      9 C9         -4.2838    1.2801    0.0475 C.3       1 <0>         0.0432
     10 C10        -2.2065    1.1092   -1.1838 C.3       1 <0>         0.0038
     11 C11        -0.7558    1.5943   -1.2305 C.3       1 <0>        -0.1569
     12 C12        -0.0127    1.0858    0.0080 C.3       1 <0>         0.1342
     13 C13        -0.7320    1.5809    1.2658 C.3       1 <0>        -0.1681
     14 C14        -2.1847    1.0962    1.2393 C.3       1 <0>        -0.0043
     15 N1          1.3612    1.5941   -0.0024 N.pl3     1 <0>        -0.7084
     16 C15         2.3525    0.9131    0.6687 C.2       1 <0>         0.3096
     17 C16         2.0759   -0.2396    1.3579 C.2       1 <0>        -0.3724
     18 C17         3.1061   -0.9118    2.0277 C.2       1 <0>         0.5242
     19 O1          2.8480   -1.9379    2.6329 O.2       1 <0>        -0.4770
     20 O2          4.3694   -0.4564    2.0252 O.3       1 <0>        -0.2772
     21 C18         4.7157    0.6742    1.3722 C.ar      1 <0>         0.1702
     22 C19         3.7411    1.4037    0.6731 C.ar      1 <0>        -0.1712
     23 C20         4.0940    2.5728   -0.0021 C.ar      1 <0>        -0.0610
     24 C21         5.4021    3.0048    0.0222 C.ar      1 <0>        -0.1384
     25 C22         6.3644    2.2838    0.7129 C.ar      1 <0>        -0.0516
     26 C23         6.0283    1.1268    1.3848 C.ar      1 <0>        -0.1318
     27 H1         -7.9413    3.4688    6.3209 H         1 <0>         0.1312
     28 H2         -8.9504    4.4654    4.3110 H         1 <0>         0.1322
     29 H3         -8.0188    3.9735    2.0883 H         1 <0>         0.1292
     30 H4         -5.0556    1.4636    3.9068 H         1 <0>         0.1228
     31 H5         -5.9958    1.9767    6.1212 H         1 <0>         0.1305
     32 H6         -6.3489    2.8258    0.6332 H         1 <0>         0.1304
     33 H7         -4.4175    1.1493    2.2902 H         1 <0>         0.1383
     34 H8         -4.7993    1.8741   -0.7072 H         1 <0>         0.1293
     35 H9         -4.4144    0.2205   -0.1726 H         1 <0>         0.1374
     36 H10        -2.7422    1.4815   -2.0571 H         1 <0>         0.1366
     37 H11        -2.2252    0.0194   -1.1839 H         1 <0>         0.1359
     38 H12        -0.7367    2.6840   -1.2444 H         1 <0>         0.0959
     39 H13        -0.2722    1.2098   -2.1284 H         1 <0>         0.1218
     40 H14         0.0021   -0.0041    0.0020 H         1 <0>         0.1075
     41 H15        -0.2313    1.1868    2.1502 H         1 <0>         0.1196
     42 H16        -0.7125    2.6704    1.2911 H         1 <0>         0.0941
     43 H17        -2.7046    1.4590    2.1260 H         1 <0>         0.1378
     44 H18        -2.2036    0.0064    1.2279 H         1 <0>         0.1347
     45 H19         1.5728    2.4104   -0.4819 H         1 <0>         0.4105
     46 H20         1.0688   -0.6288    1.3820 H         1 <0>         0.1523
     47 H21         3.3461    3.1356   -0.5409 H         1 <0>         0.1294
     48 H22         5.6793    3.9093   -0.4988 H         1 <0>         0.1397
     49 H23         7.3867    2.6316    0.7253 H         1 <0>         0.1464
     50 H24         6.7857    0.5732    1.9198 H         1 <0>         0.1507
     51 N2         -2.8508    1.6396    0.0364 N.4       1 <0>        -0.3939
     52 H25        -2.7637    2.6627    0.0411 H         1 <0>         0.4273
@<TRIPOS>BOND
     1    1    6 ar
     2    1    2 ar
     3    1   27 1
     4    2    3 ar
     5    2   28 1
     6    3    4 ar
     7    3   29 1
     8    4    5 ar
     9    4    7 1
    10    5    6 ar
    11    5   30 1
    12    6   31 1
    13    7    8 2
    14    7   32 1
    15    8    9 1
    16    8   33 1
    17    9   34 1
    18    9   35 1
    19    9   51 1
    20   10   11 1
    21   10   36 1
    22   10   37 1
    23   10   51 1
    24   11   12 1
    25   11   38 1
    26   11   39 1
    27   12   13 1
    28   12   15 1
    29   12   40 1
    30   13   14 1
    31   13   41 1
    32   13   42 1
    33   14   43 1
    34   14   44 1
    35   14   51 1
    36   15   16 1
    37   15   45 1
    38   16   22 1
    39   16   17 2
    40   17   18 1
    41   17   46 1
    42   18   19 2
    43   18   20 1
    44   20   21 1
    45   21   26 ar
    46   21   22 ar
    47   22   23 ar
    48   23   24 ar
    49   23   47 1
    50   24   25 ar
    51   24   48 1
    52   25   26 ar
    53   25   49 1
    54   26   50 1
    55   51   52 1
@<TRIPOS>MOLECULE
ZINC20114377
   56    59     0     0     0
SMALL
USER_CHARGES
(E)-3-(3-chlorophenyl)-N-[4-methyl-2-(4-methylpiperazin-1-yl)-6-quinolyl]prop-2-enamide
@<TRIPOS>ATOM
      1 C1         10.9886    3.1453    0.3151 C.3       1 <0>        -0.1461
      2 C2         10.9042    1.6408    0.2945 C.ar      1 <0>         0.0851
      3 C3         12.0301    0.8768    0.3663 C.ar      1 <0>        -0.1868
      4 C4         11.9275   -0.5212    0.3459 C.ar      1 <0>         0.4243
      5 N1         10.7606   -1.1255    0.2579 N.ar      1 <0>        -0.5216
      6 C5          9.6207   -0.4281    0.1849 C.ar      1 <0>         0.1359
      7 C6          9.6581    0.9877    0.2008 C.ar      1 <0>        -0.0757
      8 C7          8.4610    1.7152    0.1231 C.ar      1 <0>        -0.1074
      9 C8          7.2624    1.0413    0.0322 C.ar      1 <0>         0.1854
     10 C9          7.2320   -0.3575    0.0227 C.ar      1 <0>        -0.0450
     11 C10         8.3801   -1.0827    0.0917 C.ar      1 <0>        -0.1203
     12 N2          6.0659    1.7616   -0.0455 N.am      1 <0>        -0.6867
     13 C11         5.0356    1.2807   -0.7691 C.2       1 <0>         0.5597
     14 O1          5.1770    0.2698   -1.4321 O.2       1 <0>        -0.5223
     15 C12         3.7464    1.9741   -0.7577 C.2       1 <0>        -0.2352
     16 C13         2.7157    1.4930   -1.4816 C.2       1 <0>         0.0117
     17 C14         1.4194    2.1902   -1.4701 C.ar      1 <0>        -0.0787
     18 C15         1.2529    3.3519   -0.7091 C.ar      1 <0>        -0.0928
     19 C16         0.0358    3.9995   -0.7027 C.ar      1 <0>        -0.1081
     20 C17        -1.0204    3.5036   -1.4471 C.ar      1 <0>        -0.0899
     21 C18        -0.8625    2.3569   -2.2075 C.ar      1 <0>        -0.0385
     22 C19         0.3483    1.6944   -2.2194 C.ar      1 <0>        -0.0807
     23 Cl1        -2.1923    1.7479   -3.1426 Cl        1 <0>        -0.0555
     24 N3         13.0827   -1.2864    0.4198 N.pl3     1 <0>        -0.4727
     25 C20        14.0204   -0.9294   -0.6540 C.3       1 <0>         0.0546
     26 C21        15.3103   -1.7369   -0.4906 C.3       1 <0>         0.0460
     27 N4         14.9948   -3.1717   -0.5262 N.3       1 <0>        -0.5463
     28 C22        14.0571   -3.5287    0.5475 C.3       1 <0>         0.0541
     29 C23        12.7672   -2.7212    0.3841 C.3       1 <0>         0.0159
     30 C24        16.2178   -3.9817   -0.4481 C.3       1 <0>         0.0194
     31 H1         12.0421    3.4524    0.3919 H         1 <0>         0.0952
     32 H2         10.4299    3.5321    1.1801 H         1 <0>         0.1048
     33 H3         10.5555    3.5495   -0.6117 H         1 <0>         0.1044
     34 H4         12.9995    1.3472    0.4384 H         1 <0>         0.1809
     35 H5          8.4787    2.7950    0.1348 H         1 <0>         0.1589
     36 H6          6.2830   -0.8687   -0.0443 H         1 <0>         0.1620
     37 H7          8.3387   -2.1619    0.0790 H         1 <0>         0.1556
     38 H8          5.9659    2.7206    0.4840 H         1 <0>         0.4492
     39 H9          3.6186    2.8877   -0.1585 H         1 <0>         0.1411
     40 H10         2.8435    0.5794   -2.0808 H         1 <0>         0.1447
     41 H11         2.0759    3.7404   -0.1276 H         1 <0>         0.1344
     42 H12        -0.0937    4.8966   -0.1154 H         1 <0>         0.1400
     43 H13        -1.9711    4.0159   -1.4385 H         1 <0>         0.1403
     44 H14         0.4693    0.7979   -2.8095 H         1 <0>         0.1411
     45 H15        13.5651   -1.1572   -1.6291 H         1 <0>         0.0805
     46 H16        14.2497    0.1450   -0.5984 H         1 <0>         0.1112
     47 H17        16.0023   -1.4922   -1.3099 H         1 <0>         0.1056
     48 H18        15.7796   -1.4875    0.4725 H         1 <0>         0.0577
     49 H19        13.8278   -4.6031    0.4918 H         1 <0>         0.1040
     50 H20        14.5123   -3.3010    1.5227 H         1 <0>         0.0583
     51 H21        12.0747   -2.9648    1.2033 H         1 <0>         0.1020
     52 H22        12.2975   -2.9695   -0.5791 H         1 <0>         0.0815
     53 H23        15.9531   -5.0490   -0.4767 H         1 <0>         0.0784
     54 H24        16.7452   -3.7597    0.4913 H         1 <0>         0.0360
     55 H25        16.8708   -3.7429   -1.3005 H         1 <0>         0.0799
     56 H26        10.7099   -2.2242    0.2433 H         1 <0>         0.4704
@<TRIPOS>BOND
     1    1    2 1
     2    1   31 1
     3    1   32 1
     4    1   33 1
     5    2    7 ar
     6    2    3 ar
     7    3    4 ar
     8    3   34 1
     9    4    5 ar
    10    4   24 1
    11    5    6 ar
    12    5   56 1
    13    6   11 ar
    14    6    7 ar
    15    7    8 ar
    16    8    9 ar
    17    8   35 1
    18    9   10 ar
    19    9   12 1
    20   10   11 ar
    21   10   36 1
    22   11   37 1
    23   12   13 am
    24   12   38 1
    25   13   14 2
    26   13   15 1
    27   15   16 2
    28   15   39 1
    29   16   17 1
    30   16   40 1
    31   17   22 ar
    32   17   18 ar
    33   18   19 ar
    34   18   41 1
    35   19   20 ar
    36   19   42 1
    37   20   21 ar
    38   20   43 1
    39   21   22 ar
    40   21   23 1
    41   22   44 1
    42   24   29 1
    43   24   25 1
    44   25   26 1
    45   25   45 1
    46   25   46 1
    47   26   27 1
    48   26   47 1
    49   26   48 1
    50   27   28 1
    51   27   30 1
    52   28   29 1
    53   28   49 1
    54   28   50 1
    55   29   51 1
    56   29   52 1
    57   30   53 1
    58   30   54 1
    59   30   55 1
@<TRIPOS>MOLECULE
ZINC20114377
   56    59     0     0     0
SMALL
USER_CHARGES
(E)-3-(3-chlorophenyl)-N-[4-methyl-2-(4-methylpiperazin-1-yl)-6-quinolyl]prop-2-enamide
@<TRIPOS>ATOM
      1 C1         10.9886    3.1453    0.3151 C.3       1 <0>        -0.1269
      2 C2         10.9042    1.6408    0.2945 C.ar      1 <0>         0.0024
      3 C3         12.0301    0.8768    0.3663 C.ar      1 <0>        -0.1817
      4 C4         11.9275   -0.5212    0.3459 C.ar      1 <0>         0.3189
      5 N1         10.7606   -1.1255    0.2579 N.ar      1 <0>        -0.5080
      6 C5          9.6207   -0.4281    0.1849 C.ar      1 <0>         0.1411
      7 C6          9.6581    0.9877    0.2008 C.ar      1 <0>        -0.0878
      8 C7          8.4610    1.7152    0.1231 C.ar      1 <0>        -0.1324
      9 C8          7.2624    1.0413    0.0322 C.ar      1 <0>         0.1718
     10 C9          7.2320   -0.3575    0.0227 C.ar      1 <0>        -0.0875
     11 C10         8.3801   -1.0827    0.0917 C.ar      1 <0>        -0.0822
     12 N2          6.0659    1.7616   -0.0455 N.am      1 <0>        -0.6850
     13 C11         5.0356    1.2807   -0.7691 C.2       1 <0>         0.5551
     14 O1          5.1770    0.2698   -1.4321 O.2       1 <0>        -0.5251
     15 C12         3.7464    1.9741   -0.7577 C.2       1 <0>        -0.2238
     16 C13         2.7157    1.4930   -1.4816 C.2       1 <0>        -0.0021
     17 C14         1.4194    2.1902   -1.4701 C.ar      1 <0>        -0.0718
     18 C15         1.2529    3.3519   -0.7091 C.ar      1 <0>        -0.0953
     19 C16         0.0358    3.9995   -0.7027 C.ar      1 <0>        -0.1076
     20 C17        -1.0204    3.5036   -1.4471 C.ar      1 <0>        -0.0940
     21 C18        -0.8625    2.3569   -2.2075 C.ar      1 <0>        -0.0377
     22 C19         0.3483    1.6944   -2.2194 C.ar      1 <0>        -0.0836
     23 Cl1        -2.1923    1.7479   -3.1426 Cl        1 <0>        -0.0585
     24 N3         13.0827   -1.2864    0.4198 N.pl3     1 <0>        -0.4769
     25 C20        14.0204   -0.9294   -0.6540 C.3       1 <0>         0.0266
     26 C21        15.3103   -1.7369   -0.4906 C.3       1 <0>         0.0010
     27 N4         14.9948   -3.1717   -0.5262 N.4       1 <0>        -0.4046
     28 C22        14.0571   -3.5287    0.5475 C.3       1 <0>        -0.0031
     29 C23        12.7672   -2.7212    0.3841 C.3       1 <0>         0.0364
     30 C24        16.2178   -3.9817   -0.4481 C.3       1 <0>        -0.0450
     31 H1         12.0421    3.4524    0.3919 H         1 <0>         0.0769
     32 H2         10.4299    3.5321    1.1801 H         1 <0>         0.0851
     33 H3         10.5555    3.5495   -0.6117 H         1 <0>         0.0838
     34 H4         12.9995    1.3472    0.4384 H         1 <0>         0.1391
     35 H5          8.4787    2.7950    0.1348 H         1 <0>         0.1382
     36 H6          6.2830   -0.8687   -0.0443 H         1 <0>         0.1454
     37 H7          8.3387   -2.1619    0.0790 H         1 <0>         0.1398
     38 H8          5.9659    2.7206    0.4840 H         1 <0>         0.4411
     39 H9          3.6186    2.8877   -0.1585 H         1 <0>         0.1385
     40 H10         2.8435    0.5794   -2.0808 H         1 <0>         0.1439
     41 H11         2.0759    3.7404   -0.1276 H         1 <0>         0.1344
     42 H12        -0.0937    4.8966   -0.1154 H         1 <0>         0.1390
     43 H13        -1.9711    4.0159   -1.4385 H         1 <0>         0.1390
     44 H14         0.4693    0.7979   -2.8095 H         1 <0>         0.1405
     45 H15        13.5651   -1.1572   -1.6291 H         1 <0>         0.0725
     46 H16        14.2497    0.1450   -0.5984 H         1 <0>         0.1307
     47 H17        16.0023   -1.4922   -1.3099 H         1 <0>         0.1420
     48 H18        15.7796   -1.4875    0.4725 H         1 <0>         0.1380
     49 H19        13.8278   -4.6031    0.4918 H         1 <0>         0.1407
     50 H20        14.5123   -3.3010    1.5227 H         1 <0>         0.1354
     51 H21        12.0747   -2.9648    1.2033 H         1 <0>         0.1330
     52 H22        12.2975   -2.9695   -0.5791 H         1 <0>         0.0769
     53 H23        15.9531   -5.0490   -0.4767 H         1 <0>         0.1255
     54 H24        16.7452   -3.7597    0.4913 H         1 <0>         0.1203
     55 H25        16.8708   -3.7429   -1.3005 H         1 <0>         0.1251
     56 H26        14.5079   -3.3887   -1.4884 H         1 <0>         0.4424
@<TRIPOS>BOND
     1    1    2 1
     2    1   31 1
     3    1   32 1
     4    1   33 1
     5    2    7 ar
     6    2    3 ar
     7    3    4 ar
     8    3   34 1
     9    4    5 ar
    10    4   24 1
    11    5    6 ar
    12    6   11 ar
    13    6    7 ar
    14    7    8 ar
    15    8    9 ar
    16    8   35 1
    17    9   10 ar
    18    9   12 1
    19   10   11 ar
    20   10   36 1
    21   11   37 1
    22   12   13 am
    23   12   38 1
    24   13   14 2
    25   13   15 1
    26   15   16 2
    27   15   39 1
    28   16   17 1
    29   16   40 1
    30   17   22 ar
    31   17   18 ar
    32   18   19 ar
    33   18   41 1
    34   19   20 ar
    35   19   42 1
    36   20   21 ar
    37   20   43 1
    38   21   22 ar
    39   21   23 1
    40   22   44 1
    41   24   29 1
    42   24   25 1
    43   25   26 1
    44   25   45 1
    45   25   46 1
    46   26   27 1
    47   26   47 1
    48   26   48 1
    49   27   28 1
    50   27   30 1
    51   27   56 1
    52   28   29 1
    53   28   49 1
    54   28   50 1
    55   29   51 1
    56   29   52 1
    57   30   53 1
    58   30   54 1
    59   30   55 1
@<TRIPOS>MOLECULE
ZINC20114377
   55    58     0     0     0
SMALL
USER_CHARGES
(E)-3-(3-chlorophenyl)-N-[4-methyl-2-(4-methylpiperazin-1-yl)-6-quinolyl]prop-2-enamide
@<TRIPOS>ATOM
      1 C1         10.9886    3.1453    0.3151 C.3       1 <0>        -0.1202
      2 C2         10.9042    1.6408    0.2945 C.ar      1 <0>        -0.0104
      3 C3         12.0301    0.8768    0.3663 C.ar      1 <0>        -0.1771
      4 C4         11.9275   -0.5212    0.3459 C.ar      1 <0>         0.3416
      5 N1         10.7606   -1.1255    0.2579 N.ar      1 <0>        -0.5158
      6 C5          9.6207   -0.4281    0.1849 C.ar      1 <0>         0.1490
      7 C6          9.6581    0.9877    0.2008 C.ar      1 <0>        -0.1013
      8 C7          8.4610    1.7152    0.1231 C.ar      1 <0>        -0.1242
      9 C8          7.2624    1.0413    0.0322 C.ar      1 <0>         0.1517
     10 C9          7.2320   -0.3575    0.0227 C.ar      1 <0>        -0.0924
     11 C10         8.3801   -1.0827    0.0917 C.ar      1 <0>        -0.0832
     12 N2          6.0659    1.7616   -0.0455 N.am      1 <0>        -0.6815
     13 C11         5.0356    1.2807   -0.7691 C.2       1 <0>         0.5505
     14 O1          5.1770    0.2698   -1.4321 O.2       1 <0>        -0.5249
     15 C12         3.7464    1.9741   -0.7577 C.2       1 <0>        -0.2133
     16 C13         2.7157    1.4930   -1.4816 C.2       1 <0>        -0.0137
     17 C14         1.4194    2.1902   -1.4701 C.ar      1 <0>        -0.0651
     18 C15         1.2529    3.3519   -0.7091 C.ar      1 <0>        -0.0972
     19 C16         0.0358    3.9995   -0.7027 C.ar      1 <0>        -0.1075
     20 C17        -1.0204    3.5036   -1.4471 C.ar      1 <0>        -0.0980
     21 C18        -0.8625    2.3569   -2.2075 C.ar      1 <0>        -0.0370
     22 C19         0.3483    1.6944   -2.2194 C.ar      1 <0>        -0.0856
     23 Cl1        -2.1923    1.7479   -3.1426 Cl        1 <0>        -0.0619
     24 N3         13.0827   -1.2864    0.4198 N.pl3     1 <0>        -0.4786
     25 C20        14.0204   -0.9294   -0.6540 C.3       1 <0>         0.0605
     26 C21        15.3103   -1.7369   -0.4906 C.3       1 <0>         0.0542
     27 N4         14.9948   -3.1717   -0.5262 N.3       1 <0>        -0.5460
     28 C22        14.0571   -3.5287    0.5475 C.3       1 <0>         0.0506
     29 C23        12.7672   -2.7212    0.3841 C.3       1 <0>         0.0686
     30 C24        16.2178   -3.9817   -0.4481 C.3       1 <0>         0.0227
     31 H1         12.0421    3.4524    0.3919 H         1 <0>         0.0743
     32 H2         10.4299    3.5321    1.1801 H         1 <0>         0.0793
     33 H3         10.5555    3.5495   -0.6117 H         1 <0>         0.0788
     34 H4         12.9995    1.3472    0.4384 H         1 <0>         0.1379
     35 H5          8.4787    2.7950    0.1348 H         1 <0>         0.1328
     36 H6          6.2830   -0.8687   -0.0443 H         1 <0>         0.1400
     37 H7          8.3387   -2.1619    0.0790 H         1 <0>         0.1378
     38 H8          5.9659    2.7206    0.4840 H         1 <0>         0.4364
     39 H9          3.6186    2.8877   -0.1585 H         1 <0>         0.1368
     40 H10         2.8435    0.5794   -2.0808 H         1 <0>         0.1441
     41 H11         2.0759    3.7404   -0.1276 H         1 <0>         0.1349
     42 H12        -0.0937    4.8966   -0.1154 H         1 <0>         0.1378
     43 H13        -1.9711    4.0159   -1.4385 H         1 <0>         0.1373
     44 H14         0.4693    0.7979   -2.8095 H         1 <0>         0.1404
     45 H15        13.5651   -1.1572   -1.6291 H         1 <0>         0.0576
     46 H16        14.2497    0.1450   -0.5984 H         1 <0>         0.0901
     47 H17        16.0023   -1.4922   -1.3099 H         1 <0>         0.0879
     48 H18        15.7796   -1.4875    0.4725 H         1 <0>         0.0467
     49 H19        13.8278   -4.6031    0.4918 H         1 <0>         0.0866
     50 H20        14.5123   -3.3010    1.5227 H         1 <0>         0.0436
     51 H21        12.0747   -2.9648    1.2033 H         1 <0>         0.0924
     52 H22        12.2975   -2.9695   -0.5791 H         1 <0>         0.0620
     53 H23        15.9531   -5.0490   -0.4767 H         1 <0>         0.0712
     54 H24        16.7452   -3.7597    0.4913 H         1 <0>         0.0279
     55 H25        16.8708   -3.7429   -1.3005 H         1 <0>         0.0709
@<TRIPOS>BOND
     1    1    2 1
     2    1   31 1
     3    1   32 1
     4    1   33 1
     5    2    7 ar
     6    2    3 ar
     7    3    4 ar
     8    3   34 1
     9    4    5 ar
    10    4   24 1
    11    5    6 ar
    12    6   11 ar
    13    6    7 ar
    14    7    8 ar
    15    8    9 ar
    16    8   35 1
    17    9   10 ar
    18    9   12 1
    19   10   11 ar
    20   10   36 1
    21   11   37 1
    22   12   13 am
    23   12   38 1
    24   13   14 2
    25   13   15 1
    26   15   16 2
    27   15   39 1
    28   16   17 1
    29   16   40 1
    30   17   22 ar
    31   17   18 ar
    32   18   19 ar
    33   18   41 1
    34   19   20 ar
    35   19   42 1
    36   20   21 ar
    37   20   43 1
    38   21   22 ar
    39   21   23 1
    40   22   44 1
    41   24   29 1
    42   24   25 1
    43   25   26 1
    44   25   45 1
    45   25   46 1
    46   26   27 1
    47   26   47 1
    48   26   48 1
    49   27   28 1
    50   27   30 1
    51   28   29 1
    52   28   49 1
    53   28   50 1
    54   29   51 1
    55   29   52 1
    56   30   53 1
    57   30   54 1
    58   30   55 1
@<TRIPOS>MOLECULE
ZINC16603986
   53    55     0     0     0
SMALL
USER_CHARGES
N-(1-benzyl-4-piperidyl)-3,5-dimethoxy-benzamide
@<TRIPOS>ATOM
      1 C1         -2.2927   -0.3729    0.0118 C.3       1 <0>         0.0230
      2 O1         -2.3904    1.0528    0.0195 O.3       1 <0>        -0.3112
      3 C2         -1.2244    1.7511    0.0174 C.ar      1 <0>         0.1651
      4 C3         -1.2477    3.1360    0.0299 C.ar      1 <0>        -0.1605
      5 C4         -0.0502    3.8518    0.0223 C.ar      1 <0>        -0.0683
      6 C5          1.1662    3.1688    0.0075 C.ar      1 <0>        -0.1265
      7 C6          1.1805    1.7838    0.0004 C.ar      1 <0>         0.1676
      8 C7         -0.0126    1.0758    0.0080 C.ar      1 <0>        -0.2701
      9 O2          2.3649    1.1174   -0.0136 O.3       1 <0>        -0.3070
     10 C8          2.3060   -0.3103   -0.0198 C.3       1 <0>         0.0229
     11 C9         -0.0703    5.3304    0.0304 C.2       1 <0>         0.5730
     12 O3          0.9740    5.9524    0.0242 O.2       1 <0>        -0.5181
     13 N1         -1.2465    5.9883    0.0447 N.am      1 <0>        -0.7259
     14 C10        -1.2663    7.4531    0.0528 C.3       1 <0>         0.1370
     15 C11        -1.1423    7.9587    1.4928 C.3       1 <0>        -0.1611
     16 C12        -1.2248    9.4868    1.5007 C.3       1 <0>        -0.0024
     17 C13        -2.6273    9.4786   -0.4754 C.3       1 <0>         0.0038
     18 C14        -2.5866    7.9503   -0.5424 C.3       1 <0>        -0.1578
     19 C15        -2.6796   11.3660    1.0396 C.3       1 <0>         0.0491
     20 C16        -2.7943   11.7425    2.4944 C.ar      1 <0>        -0.1637
     21 C17        -4.0352   11.7833    3.1020 C.ar      1 <0>        -0.0944
     22 C18        -4.1399   12.1235    4.4377 C.ar      1 <0>        -0.1135
     23 C19        -3.0047   12.4334    5.1630 C.ar      1 <0>        -0.0839
     24 C20        -1.7642   12.3981    4.5539 C.ar      1 <0>        -0.1134
     25 C21        -1.6590   12.0524    3.2197 C.ar      1 <0>        -0.0966
     26 H1         -3.2931   -0.8056    0.0145 H         1 <0>         0.1082
     27 H2         -1.7596   -0.6957   -0.8825 H         1 <0>         0.0595
     28 H3         -1.7509   -0.7048    0.8974 H         1 <0>         0.0593
     29 H4         -2.1915    3.6609    0.0414 H         1 <0>         0.1337
     30 H5          2.0954    3.7192    0.0019 H         1 <0>         0.1484
     31 H6          0.0021   -0.0041    0.0020 H         1 <0>         0.1433
     32 H7          1.7695   -0.6480   -0.9065 H         1 <0>         0.0591
     33 H8          3.3177   -0.7157   -0.0310 H         1 <0>         0.1093
     34 H9          1.7858   -0.6564    0.8734 H         1 <0>         0.0590
     35 H10        -2.0798    5.4919    0.0497 H         1 <0>         0.4080
     36 H11        -0.4339    7.8320   -0.5402 H         1 <0>         0.1079
     37 H12        -1.9531    7.5473    2.0940 H         1 <0>         0.0905
     38 H13        -0.1848    7.6438    1.9078 H         1 <0>         0.1177
     39 H14        -0.4057    9.8978    0.9107 H         1 <0>         0.1339
     40 H15        -1.1512    9.8492    2.5261 H         1 <0>         0.1325
     41 H16        -1.8016    9.8897   -1.0562 H         1 <0>         0.1354
     42 H17        -3.5723    9.8351   -0.8854 H         1 <0>         0.1354
     43 H18        -2.6611    7.6294   -1.5814 H         1 <0>         0.1212
     44 H19        -3.4202    7.5388    0.0268 H         1 <0>         0.0950
     45 H20        -1.8195   11.8713    0.6003 H         1 <0>         0.1376
     46 H21        -3.5857   11.6673    0.5139 H         1 <0>         0.1359
     47 H22        -4.9226   11.5455    2.5342 H         1 <0>         0.1310
     48 H23        -5.1090   12.1508    4.9137 H         1 <0>         0.1359
     49 H24        -3.0868   12.7028    6.2057 H         1 <0>         0.1358
     50 H25        -0.8773   12.6402    5.1206 H         1 <0>         0.1362
     51 H26        -0.6899   12.0248    2.7438 H         1 <0>         0.1315
     52 N2         -2.5282    9.8998    0.9381 N.4       1 <0>        -0.3943
     53 H27        -3.2797    9.4492    1.4733 H         1 <0>         0.4261
@<TRIPOS>BOND
     1    1    2 1
     2    1   26 1
     3    1   27 1
     4    1   28 1
     5    2    3 1
     6    3    8 ar
     7    3    4 ar
     8    4    5 ar
     9    4   29 1
    10    5    6 ar
    11    5   11 1
    12    6    7 ar
    13    6   30 1
    14    7    8 ar
    15    7    9 1
    16    8   31 1
    17    9   10 1
    18   10   32 1
    19   10   33 1
    20   10   34 1
    21   11   12 2
    22   11   13 am
    23   13   14 1
    24   13   35 1
    25   14   18 1
    26   14   15 1
    27   14   36 1
    28   15   16 1
    29   15   37 1
    30   15   38 1
    31   16   39 1
    32   16   40 1
    33   16   52 1
    34   17   18 1
    35   17   41 1
    36   17   42 1
    37   17   52 1
    38   18   43 1
    39   18   44 1
    40   19   20 1
    41   19   45 1
    42   19   46 1
    43   19   52 1
    44   20   25 ar
    45   20   21 ar
    46   21   22 ar
    47   21   47 1
    48   22   23 ar
    49   22   48 1
    50   23   24 ar
    51   23   49 1
    52   24   25 ar
    53   24   50 1
    54   25   51 1
    55   52   53 1
@<TRIPOS>MOLECULE
ZINC03815899
   58    62     0     0     0
SMALL
USER_CHARGES
8-(4-chlorophenyl)-4-[3-methoxy-4-(2-pyrrolidin-1-ylethoxy)phenyl]-7-thia-2,4-diazabicyclo[4.3.0]nona-2,8,10-trien-5-one
@<TRIPOS>ATOM
      1 C1         -3.0567   10.4143   -0.2254 C.3       1 <0>         0.0205
      2 O1         -1.7294   10.9354   -0.1312 O.3       1 <0>        -0.3049
      3 C2         -0.7164   10.0324   -0.0431 C.ar      1 <0>         0.1248
      4 C3         -0.9943    8.6758   -0.0531 C.ar      1 <0>        -0.1603
      5 C4          0.0410    7.7559    0.0425 C.ar      1 <0>         0.1311
      6 C5          1.3546    8.1961    0.1371 C.ar      1 <0>        -0.0842
      7 C6          1.6327    9.5494    0.1415 C.ar      1 <0>        -0.1529
      8 C7          0.6012   10.4704    0.0514 C.ar      1 <0>         0.0994
      9 O2          0.8765   11.8026    0.0549 O.3       1 <0>        -0.3119
     10 C8          2.2510   12.1807    0.1540 C.3       1 <0>         0.0226
     11 C9          2.3623   13.7066    0.1425 C.3       1 <0>         0.0098
     12 C10         2.2516   13.6057    2.5727 C.3       1 <0>        -0.0121
     13 C11         1.8949   14.6177    3.6903 C.3       1 <0>        -0.1463
     14 C12         2.1147   15.9845    3.0022 C.3       1 <0>        -0.1468
     15 C13         2.0130   15.6959    1.4929 C.3       1 <0>        -0.0104
     16 N1         -0.2391    6.3825    0.0378 N.am      1 <0>        -0.4957
     17 C14        -0.8988    5.8125    1.0826 C.2       1 <0>         0.3761
     18 N2         -1.1858    4.5515    1.1364 N.2       1 <0>        -0.4945
     19 C15        -0.8406    3.6835    0.1284 C.2       1 <0>         0.1651
     20 C16        -1.0859    2.3101    0.0431 C.2       1 <0>        -0.1512
     21 C17        -0.6582    1.6085   -1.0455 C.2       1 <0>        -0.0560
     22 S1          0.1190    2.8689   -2.0429 S.3       1 <0>         0.2095
     23 C18        -0.1569    4.2491   -0.9643 C.2       1 <0>        -0.3251
     24 C19         0.1446    5.6100   -1.0066 C.2       1 <0>         0.5832
     25 O3          0.7379    6.0912   -1.9576 O.2       1 <0>        -0.5080
     26 C20        -0.8067    0.1655   -1.3313 C.ar      1 <0>        -0.0237
     27 C21        -1.4485   -0.6679   -0.4140 C.ar      1 <0>        -0.0727
     28 C22        -1.5888   -2.0123   -0.6885 C.ar      1 <0>        -0.1060
     29 C23        -1.0847   -2.5376   -1.8665 C.ar      1 <0>        -0.0189
     30 C24        -0.4424   -1.7165   -2.7780 C.ar      1 <0>        -0.1049
     31 C25        -0.3008   -0.3696   -2.5169 C.ar      1 <0>        -0.0834
     32 Cl1        -1.2592   -4.2319   -2.2020 Cl        1 <0>        -0.0541
     33 H1         -3.2751    9.8145    0.6581 H         1 <0>         0.0615
     34 H2         -3.7669   11.2387   -0.2895 H         1 <0>         0.1094
     35 H3         -3.1405    9.7924   -1.1166 H         1 <0>         0.0610
     36 H4         -2.0158    8.3338   -0.1312 H         1 <0>         0.1493
     37 H5          2.1598    7.4797    0.2071 H         1 <0>         0.1391
     38 H6          2.6550    9.8898    0.2148 H         1 <0>         0.1457
     39 H7          2.6684   11.7930    1.0833 H         1 <0>         0.0880
     40 H8          2.8028   11.7698   -0.6915 H         1 <0>         0.1104
     41 H9          3.4136   13.9942    0.1285 H         1 <0>         0.1476
     42 H10         1.8661   14.1005   -0.7445 H         1 <0>         0.1433
     43 H11         1.7578   12.6498    2.7473 H         1 <0>         0.1356
     44 H12         3.3315   13.4749    2.5024 H         1 <0>         0.1336
     45 H13         2.5646   14.5029    4.5427 H         1 <0>         0.1159
     46 H14         0.8553   14.5031    3.9971 H         1 <0>         0.0985
     47 H15         3.1019   16.3768    3.2466 H         1 <0>         0.1033
     48 H16         1.3408   16.6896    3.3055 H         1 <0>         0.1050
     49 H17         2.9576   15.9353    1.0046 H         1 <0>         0.1313
     50 H18         1.2063   16.2844    1.0559 H         1 <0>         0.1340
     51 H19        -1.1978    6.4430    1.9069 H         1 <0>         0.2070
     52 H20        -1.6106    1.8042    0.8401 H         1 <0>         0.1547
     53 H21        -1.8380   -0.2602    0.5071 H         1 <0>         0.1412
     54 H22        -2.0891   -2.6574    0.0186 H         1 <0>         0.1445
     55 H23        -0.0513   -2.1318   -3.6951 H         1 <0>         0.1442
     56 H24         0.2010    0.2697   -3.2282 H         1 <0>         0.1363
     57 N3          1.7212   14.2669    1.3700 N.4       1 <0>        -0.3963
     58 H25         0.7059   14.1239    1.3147 H         1 <0>         0.4378
@<TRIPOS>BOND
     1    1    2 1
     2    1   33 1
     3    1   34 1
     4    1   35 1
     5    2    3 1
     6    3    8 ar
     7    3    4 ar
     8    4    5 ar
     9    4   36 1
    10    5    6 ar
    11    5   16 1
    12    6    7 ar
    13    6   37 1
    14    7    8 ar
    15    7   38 1
    16    8    9 1
    17    9   10 1
    18   10   11 1
    19   10   39 1
    20   10   40 1
    21   11   41 1
    22   11   42 1
    23   11   57 1
    24   12   13 1
    25   12   43 1
    26   12   44 1
    27   12   57 1
    28   13   14 1
    29   13   45 1
    30   13   46 1
    31   14   15 1
    32   14   47 1
    33   14   48 1
    34   15   49 1
    35   15   50 1
    36   15   57 1
    37   16   24 am
    38   16   17 1
    39   17   18 2
    40   17   51 1
    41   18   19 1
    42   19   23 2
    43   19   20 1
    44   20   21 2
    45   20   52 1
    46   21   22 1
    47   21   26 1
    48   22   23 1
    49   23   24 1
    50   24   25 2
    51   26   31 ar
    52   26   27 ar
    53   27   28 ar
    54   27   53 1
    55   28   29 ar
    56   28   54 1
    57   29   30 ar
    58   29   32 1
    59   30   31 ar
    60   30   55 1
    61   31   56 1
    62   57   58 1
@<TRIPOS>MOLECULE
ZINC00087267
   51    54     0     0     0
SMALL
USER_CHARGES

@<TRIPOS>ATOM
      1 C1         -0.0167    1.3794    0.0096 C.ar      1 <0>        -0.0837
      2 C2          1.1684    2.0935    0.0021 C.ar      1 <0>        -0.1241
      3 C3          2.3774    1.4292   -0.0129 C.ar      1 <0>        -0.0558
      4 C4          2.4034    0.0337   -0.0206 C.ar      1 <0>        -0.1495
      5 C5          1.2043   -0.6806   -0.0130 C.ar      1 <0>        -0.0866
      6 C6          0.0021   -0.0041    0.0020 C.ar      1 <0>        -0.1264
      7 C7          3.6955   -0.6847   -0.0372 C.2       1 <0>         0.5688
      8 O1          4.7382   -0.0600   -0.0443 O.2       1 <0>        -0.5265
      9 N1          3.7172   -2.0323   -0.0446 N.am      1 <0>        -0.7287
     10 C8          4.9975   -2.7441   -0.0611 C.3       1 <0>         0.1368
     11 C9          5.4871   -2.8841   -1.5054 C.3       1 <0>        -0.1610
     12 C10         6.7833   -3.6970   -1.5223 C.3       1 <0>        -0.0028
     13 N2          6.5373   -5.0288   -0.9563 N.4       1 <0>        -0.3832
     14 C11         6.1366   -4.9059    0.4504 C.3       1 <0>        -0.0069
     15 C12         4.8154   -4.1394    0.5432 C.3       1 <0>        -0.1546
     16 C13         7.7643   -5.8316   -1.0460 C.3       1 <0>         0.0433
     17 C14         7.4808   -7.2361   -0.5790 C.ar      1 <0>        -0.1572
     18 C15         7.6374   -7.5563    0.7684 C.ar      1 <0>        -0.1206
     19 C16         7.3902   -8.8150    1.2229 C.ar      1 <0>        -0.0836
     20 C17         6.9702   -9.8093    0.3228 C.ar      1 <0>        -0.0359
     21 C18         6.7049  -11.1200    0.7548 C.ar      1 <0>        -0.1110
     22 C19         6.2995  -12.0567   -0.1454 C.ar      1 <0>        -0.0941
     23 C20         6.1426  -11.7365   -1.4928 C.ar      1 <0>        -0.1027
     24 C21         6.3903  -10.4778   -1.9473 C.ar      1 <0>        -0.1056
     25 C22         6.8106   -9.4837   -1.0472 C.ar      1 <0>        -0.0594
     26 C23         7.0705   -8.1715   -1.4783 C.ar      1 <0>        -0.0614
     27 H1         -0.9605    1.9042    0.0260 H         1 <0>         0.1329
     28 H2          1.1468    3.1732    0.0078 H         1 <0>         0.1352
     29 H3          3.3017    1.9878   -0.0191 H         1 <0>         0.1375
     30 H4          1.2176   -1.7605   -0.0193 H         1 <0>         0.1226
     31 H5         -0.9265   -0.5556    0.0079 H         1 <0>         0.1325
     32 H6          2.8851   -2.5308   -0.0391 H         1 <0>         0.4058
     33 H7          5.7316   -2.1875    0.5215 H         1 <0>         0.1071
     34 H8          4.7290   -3.3954   -2.0988 H         1 <0>         0.0907
     35 H9          5.6722   -1.8950   -1.9244 H         1 <0>         0.1183
     36 H10         7.1347   -3.7984   -2.5491 H         1 <0>         0.1352
     37 H11         7.5407   -3.1848   -0.9289 H         1 <0>         0.1333
     38 H12         6.0105   -5.8997    0.8800 H         1 <0>         0.1386
     39 H13         6.9077   -4.3678    1.0017 H         1 <0>         0.1330
     40 H14         4.5205   -4.0477    1.5885 H         1 <0>         0.1195
     41 H15         4.0434   -4.6768   -0.0076 H         1 <0>         0.0936
     42 H16         8.1084   -5.8550   -2.0800 H         1 <0>         0.1376
     43 H17         8.5356   -5.3881   -0.4163 H         1 <0>         0.1375
     44 H18         7.9600   -6.7941    1.4622 H         1 <0>         0.1303
     45 H19         7.5165   -9.0488    2.2697 H         1 <0>         0.1385
     46 H20         6.8224  -11.3827    1.7958 H         1 <0>         0.1359
     47 H21         6.0966  -13.0633    0.1891 H         1 <0>         0.1337
     48 H22         5.8201  -12.4987   -2.1866 H         1 <0>         0.1332
     49 H23         6.2648  -10.2442   -2.9942 H         1 <0>         0.1333
     50 H24         6.9490   -7.9078   -2.5186 H         1 <0>         0.1349
     51 H25         5.8016   -5.4834   -1.4760 H         1 <0>         0.4214
@<TRIPOS>BOND
     1    1    6 ar
     2    1    2 ar
     3    1   27 1
     4    2    3 ar
     5    2   28 1
     6    3    4 ar
     7    3   29 1
     8    4    5 ar
     9    4    7 1
    10    5    6 ar
    11    5   30 1
    12    6   31 1
    13    7    8 2
    14    7    9 am
    15    9   10 1
    16    9   32 1
    17   10   15 1
    18   10   11 1
    19   10   33 1
    20   11   12 1
    21   11   34 1
    22   11   35 1
    23   12   13 1
    24   12   36 1
    25   12   37 1
    26   13   14 1
    27   13   16 1
    28   13   51 1
    29   14   15 1
    30   14   38 1
    31   14   39 1
    32   15   40 1
    33   15   41 1
    34   16   17 1
    35   16   42 1
    36   16   43 1
    37   17   26 ar
    38   17   18 ar
    39   18   19 ar
    40   18   44 1
    41   19   20 ar
    42   19   45 1
    43   20   25 ar
    44   20   21 ar
    45   21   22 ar
    46   21   46 1
    47   22   23 ar
    48   22   47 1
    49   23   24 ar
    50   23   48 1
    51   24   25 ar
    52   24   49 1
    53   25   26 ar
    54   26   50 1
@<TRIPOS>MOLECULE
ZINC03961758
   68    71     0     0     0
SMALL
USER_CHARGES
N-[3-[1-[[4-(3,4-difluorophenoxy)phenyl]methyl]-4-piperidyl]-4-methyl-phenyl]-2-methyl-propanamide
@<TRIPOS>ATOM
      1 C1        -11.4774   -0.2377   -4.1281 C.3       1 <0>        -0.1190
      2 C2        -10.4099   -0.7752   -5.0461 C.ar      1 <0>        -0.0895
      3 C3        -10.7160   -1.0703   -6.3621 C.ar      1 <0>        -0.0922
      4 C4         -9.7402   -1.5634   -7.2057 C.ar      1 <0>        -0.1081
      5 C5         -8.4501   -1.7625   -6.7313 C.ar      1 <0>         0.1512
      6 C6         -8.1445   -1.4595   -5.4111 C.ar      1 <0>        -0.1406
      7 C7         -9.1265   -0.9719   -4.5709 C.ar      1 <0>        -0.0766
      8 C8         -8.7971   -0.6481   -3.1364 C.3       1 <0>        -0.0584
      9 C9         -8.1920   -1.8810   -2.4595 C.3       1 <0>        -0.1410
     10 C10        -7.8036   -1.5286   -1.0218 C.3       1 <0>        -0.0014
     11 C11        -7.4071    0.7822   -1.6344 C.3       1 <0>        -0.0072
     12 C12        -7.7836    0.4988   -3.0904 C.3       1 <0>        -0.1381
     13 C13        -6.3322   -0.1541    0.3222 C.3       1 <0>         0.0481
     14 C14        -5.1697    0.8018    0.2450 C.ar      1 <0>        -0.1615
     15 C15        -5.3924    2.1653    0.3018 C.ar      1 <0>        -0.0790
     16 C16        -4.3286    3.0436    0.2312 C.ar      1 <0>        -0.1313
     17 C17        -3.0356    2.5566    0.1033 C.ar      1 <0>         0.1219
     18 C18        -2.8154    1.1880    0.0408 C.ar      1 <0>        -0.1151
     19 C19        -3.8823    0.3138    0.1170 C.ar      1 <0>        -0.0753
     20 O1         -1.9874    3.4184    0.0337 O.3       1 <0>        -0.2510
     21 C20        -1.5829    4.0251    1.1808 C.ar      1 <0>         0.1359
     22 C21        -2.2928    3.8302    2.3569 C.ar      1 <0>        -0.1795
     23 C22        -1.8844    4.4511    3.5216 C.ar      1 <0>        -0.0839
     24 C23        -0.7605    5.2588    3.5192 C.ar      1 <0>         0.0469
     25 C24        -0.0457    5.4503    2.3466 C.ar      1 <0>         0.1143
     26 C25        -0.4562    4.8340    1.1780 C.ar      1 <0>        -0.1488
     27 F1          1.0513    6.2389    2.3451 F         1 <0>        -0.1132
     28 F2         -0.3593    5.8607    4.6602 F         1 <0>        -0.1207
     29 N1         -7.4589   -2.2615   -7.5836 N.am      1 <0>        -0.6794
     30 C26        -7.4578   -1.9215   -8.8877 C.2       1 <0>         0.5168
     31 O2         -8.2537   -1.1056   -9.3024 O.2       1 <0>        -0.5104
     32 C27        -6.4678   -2.5552   -9.8308 C.3       1 <0>        -0.1123
     33 C28        -6.6744   -4.0711   -9.8442 C.3       1 <0>        -0.1471
     34 C29        -6.6786   -1.9993  -11.2406 C.3       1 <0>        -0.1376
     35 H1        -11.4235    0.8508   -4.1063 H         1 <0>         0.0724
     36 H2        -12.4578   -0.5457   -4.4915 H         1 <0>         0.0720
     37 H3        -11.3230   -0.6294   -3.1227 H         1 <0>         0.0665
     38 H4        -11.7194   -0.9152   -6.7304 H         1 <0>         0.1310
     39 H5         -9.9800   -1.7943   -8.2331 H         1 <0>         0.1361
     40 H6         -7.1411   -1.6087   -5.0405 H         1 <0>         0.1208
     41 H7         -9.7053   -0.3529   -2.6108 H         1 <0>         0.1037
     42 H8         -7.3056   -2.1992   -3.0083 H         1 <0>         0.0886
     43 H9         -8.9246   -2.6880   -2.4511 H         1 <0>         0.1151
     44 H10        -7.3593   -2.4003   -0.5415 H         1 <0>         0.1307
     45 H11        -8.6927   -1.2237   -0.4698 H         1 <0>         0.1324
     46 H12        -8.2981    1.0763   -1.0795 H         1 <0>         0.1321
     47 H13        -6.6748    1.5888   -1.5991 H         1 <0>         0.1292
     48 H14        -6.8908    0.2181   -3.6491 H         1 <0>         0.0879
     49 H15        -8.2244    1.3919   -3.5334 H         1 <0>         0.1137
     50 H16        -6.0062   -1.0860    0.7840 H         1 <0>         0.1379
     51 H17        -7.1279    0.2892    0.9209 H         1 <0>         0.1394
     52 H18        -6.3989    2.5439    0.4017 H         1 <0>         0.1411
     53 H19        -4.5031    4.1085    0.2760 H         1 <0>         0.1464
     54 H20        -1.8105    0.8065   -0.0636 H         1 <0>         0.1476
     55 H21        -3.7111   -0.7516    0.0729 H         1 <0>         0.1420
     56 H22        -3.1674    3.1966    2.3609 H         1 <0>         0.1427
     57 H23        -2.4401    4.3025    4.4356 H         1 <0>         0.1551
     58 H24         0.1002    4.9824    0.2643 H         1 <0>         0.1607
     59 H25        -6.7725   -2.8522   -7.2358 H         1 <0>         0.4107
     60 H26        -5.4543   -2.3295   -9.4990 H         1 <0>         0.1007
     61 H27        -6.5242   -4.4671   -8.8398 H         1 <0>         0.0582
     62 H28        -7.6879   -4.2967  -10.1759 H         1 <0>         0.0639
     63 H29        -5.9583   -4.5294  -10.5263 H         1 <0>         0.0754
     64 H30        -6.5314   -0.9193  -11.2310 H         1 <0>         0.0638
     65 H31        -5.9625   -2.4576  -11.9227 H         1 <0>         0.0682
     66 H32        -7.6921   -2.2249  -11.5723 H         1 <0>         0.0648
     67 N2         -6.8084   -0.4357   -1.0478 N.4       1 <0>        -0.3933
     68 H33        -6.0104   -0.7257   -1.6251 H         1 <0>         0.4257
@<TRIPOS>BOND
     1    1    2 1
     2    1   35 1
     3    1   36 1
     4    1   37 1
     5    2    7 ar
     6    2    3 ar
     7    3    4 ar
     8    3   38 1
     9    4    5 ar
    10    4   39 1
    11    5    6 ar
    12    5   29 1
    13    6    7 ar
    14    6   40 1
    15    7    8 1
    16    8   12 1
    17    8    9 1
    18    8   41 1
    19    9   10 1
    20    9   42 1
    21    9   43 1
    22   10   44 1
    23   10   45 1
    24   10   67 1
    25   11   12 1
    26   11   46 1
    27   11   47 1
    28   11   67 1
    29   12   48 1
    30   12   49 1
    31   13   14 1
    32   13   50 1
    33   13   51 1
    34   13   67 1
    35   14   19 ar
    36   14   15 ar
    37   15   16 ar
    38   15   52 1
    39   16   17 ar
    40   16   53 1
    41   17   18 ar
    42   17   20 1
    43   18   19 ar
    44   18   54 1
    45   19   55 1
    46   20   21 1
    47   21   26 ar
    48   21   22 ar
    49   22   23 ar
    50   22   56 1
    51   23   24 ar
    52   23   57 1
    53   24   25 ar
    54   24   28 1
    55   25   26 ar
    56   25   27 1
    57   26   58 1
    58   29   30 am
    59   29   59 1
    60   30   31 2
    61   30   32 1
    62   32   33 1
    63   32   34 1
    64   32   60 1
    65   33   61 1
    66   33   62 1
    67   33   63 1
    68   34   64 1
    69   34   65 1
    70   34   66 1
    71   67   68 1
@<TRIPOS>MOLECULE
ZINC25540072
   47    49     0     0     0
SMALL
USER_CHARGES
6-[[(3-chlorophenyl)methyl-methyl-amino]methyl]-N'-(o-tolyl)-1,3,5-triazine-2,4-diamine
@<TRIPOS>ATOM
      1 C1          5.0547    5.2537    2.2511 C.3       1 <0>        -0.1162
      2 C2          6.0739    4.1444    2.2109 C.ar      1 <0>        -0.1205
      3 C3          7.4223    4.4431    2.2346 C.ar      1 <0>        -0.0989
      4 C4          8.3580    3.4258    2.1982 C.ar      1 <0>        -0.1391
      5 C5          7.9476    2.1064    2.1380 C.ar      1 <0>        -0.1051
      6 C6          6.6012    1.8007    2.1199 C.ar      1 <0>        -0.1252
      7 C7          5.6585    2.8206    2.1505 C.ar      1 <0>         0.1677
      8 N1          4.2942    2.5148    2.1263 N.pl3     1 <0>        -0.6354
      9 C8          3.8629    1.3245    1.5736 C.ar      1 <0>         0.6271
     10 N2          2.5799    0.9785    1.6541 N.ar      1 <0>        -0.6326
     11 C9          2.1664   -0.1595    1.1253 C.ar      1 <0>         0.4418
     12 N3          3.0248   -0.9613    0.5195 N.ar      1 <0>        -0.6203
     13 C10         4.3081   -0.6197    0.4302 C.ar      1 <0>         0.6287
     14 N4          4.7278    0.5239    0.9607 N.ar      1 <0>        -0.6444
     15 N5          5.2026   -1.4549   -0.2075 N.pl3     1 <0>        -0.8284
     16 C11         0.7131   -0.5473    1.2187 C.3       1 <0>         0.1213
     17 N6         -0.0089   -0.0257    0.0506 N.3       1 <0>        -0.5265
     18 C12        -0.0377    1.4430    0.0621 C.3       1 <0>         0.0189
     19 C13        -1.3683   -0.5783   -0.0180 C.3       1 <0>         0.0943
     20 C14        -1.9893   -0.2214   -1.3439 C.ar      1 <0>        -0.0660
     21 C15        -2.7134    0.9491   -1.4752 C.ar      1 <0>        -0.1089
     22 C16        -3.2793    1.2794   -2.6923 C.ar      1 <0>        -0.1079
     23 C17        -3.1304    0.4344   -3.7761 C.ar      1 <0>        -0.1101
     24 C18        -2.4105   -0.7394   -3.6439 C.ar      1 <0>        -0.0352
     25 C19        -1.8398   -1.0670   -2.4267 C.ar      1 <0>        -0.0873
     26 Cl1        -2.2236   -1.8013   -5.0044 Cl        1 <0>        -0.0694
     27 H1          5.5706    6.2241    2.2970 H         1 <0>         0.0716
     28 H2          4.4180    5.1345    3.1401 H         1 <0>         0.0666
     29 H3          4.4316    5.2121    1.3455 H         1 <0>         0.0678
     30 H4          7.7460    5.4723    2.2819 H         1 <0>         0.1243
     31 H5          9.4117    3.6621    2.2172 H         1 <0>         0.1210
     32 H6          8.6811    1.3142    2.1098 H         1 <0>         0.1220
     33 H7          6.2813    0.7700    2.0778 H         1 <0>         0.1480
     34 H8          3.5645    3.2221    2.5474 H         1 <0>         0.4498
     35 H9          6.2630   -1.1719   -0.2809 H         1 <0>         0.4394
     36 H10         4.8552   -2.4037   -0.6424 H         1 <0>         0.4426
     37 H11         0.6270   -1.6436    1.2435 H         1 <0>         0.1074
     38 H12         0.2791   -0.1246    2.1368 H         1 <0>         0.0696
     39 H13        -0.5831    1.8059   -0.8215 H         1 <0>         0.0720
     40 H14         0.9918    1.8301    0.0422 H         1 <0>         0.0701
     41 H15        -0.5433    1.7927    0.9743 H         1 <0>         0.0338
     42 H16        -1.3248   -1.6727    0.0838 H         1 <0>         0.0920
     43 H17        -1.9764   -0.1582    0.7967 H         1 <0>         0.0532
     44 H18        -2.8338    1.6074   -0.6276 H         1 <0>         0.1267
     45 H19        -3.8416    2.1957   -2.7953 H         1 <0>         0.1323
     46 H20        -3.5763    0.6905   -4.7259 H         1 <0>         0.1326
     47 H21        -1.2774   -1.9831   -2.3229 H         1 <0>         0.1349
@<TRIPOS>BOND
     1    1    2 1
     2    1   27 1
     3    1   28 1
     4    1   29 1
     5    2    7 ar
     6    2    3 ar
     7    3    4 ar
     8    3   30 1
     9    4    5 ar
    10    4   31 1
    11    5    6 ar
    12    5   32 1
    13    6    7 ar
    14    6   33 1
    15    7    8 1
    16    8    9 1
    17    8   34 1
    18    9   14 ar
    19    9   10 ar
    20   10   11 ar
    21   11   12 ar
    22   11   16 1
    23   12   13 ar
    24   13   14 ar
    25   13   15 1
    26   15   35 1
    27   15   36 1
    28   16   17 1
    29   16   37 1
    30   16   38 1
    31   17   18 1
    32   17   19 1
    33   18   39 1
    34   18   40 1
    35   18   41 1
    36   19   20 1
    37   19   42 1
    38   19   43 1
    39   20   25 ar
    40   20   21 ar
    41   21   22 ar
    42   21   44 1
    43   22   23 ar
    44   22   45 1
    45   23   24 ar
    46   23   46 1
    47   24   25 ar
    48   24   26 1
    49   25   47 1
@<TRIPOS>MOLECULE
ZINC15777176
   60    61     0     0     0
SMALL
USER_CHARGES
N,N-bis(p-tolylsulfonylmethyl)hexan-1-amine
@<TRIPOS>ATOM
      1 C1          6.7108    2.9624   -4.3276 C.3       1 <0>        -0.1562
      2 C2          5.3319    2.6169   -3.7618 C.3       1 <0>        -0.1248
      3 C3          5.1823    1.0967   -3.6757 C.3       1 <0>        -0.1224
      4 C4          3.8034    0.7512   -3.1099 C.3       1 <0>        -0.1187
      5 C5          3.6538   -0.7690   -3.0238 C.3       1 <0>        -0.1273
      6 C6          2.2749   -1.1146   -2.4580 C.3       1 <0>         0.0151
      7 N1          2.1788   -2.5662   -2.2545 N.3       1 <0>        -0.4627
      8 C7          0.9341   -2.9190   -1.5586 C.3       1 <0>        -0.4731
      9 S1          1.1539   -2.6893    0.2273 S.o2      1 <0>         2.4968
     10 O1          2.3843   -3.2633    0.6469 O.2       1 <0>        -0.9076
     11 O2         -0.0552   -2.9874    0.9117 O.2       1 <0>        -0.9281
     12 C8          1.3730   -0.9535    0.4370 C.ar      1 <0>        -0.6690
     13 C9          0.2731   -0.1168    0.4675 C.ar      1 <0>        -0.0244
     14 C10         0.4449    1.2448    0.6329 C.ar      1 <0>        -0.1417
     15 C11         1.7166    1.7697    0.7678 C.ar      1 <0>        -0.0237
     16 C12         2.8166    0.9331    0.7359 C.ar      1 <0>        -0.1407
     17 C13         2.6447   -0.4286    0.5714 C.ar      1 <0>        -0.0084
     18 C14         1.9039    3.2542    0.9477 C.3       1 <0>        -0.1300
     19 C15         2.2903   -3.2852   -3.5307 C.3       1 <0>        -0.4467
     20 S2          3.0185   -4.9212   -3.2414 S.o2      1 <0>         2.4983
     21 O3          3.0893   -5.6479   -4.4605 O.2       1 <0>        -0.9335
     22 O4          4.1568   -4.8082   -2.3983 O.2       1 <0>        -0.9056
     23 C16         1.8253   -5.7831   -2.2728 C.ar      1 <0>        -0.6743
     24 C17         1.8783   -5.7186   -0.8930 C.ar      1 <0>        -0.0485
     25 C18         0.9396   -6.3912   -0.1331 C.ar      1 <0>        -0.1491
     26 C19        -0.0463   -7.1361   -0.7530 C.ar      1 <0>        -0.0229
     27 C20        -0.0963   -7.2044   -2.1327 C.ar      1 <0>        -0.1409
     28 C21         0.8398   -6.5283   -2.8926 C.ar      1 <0>        -0.0225
     29 C22        -1.0668   -7.8731    0.0755 C.3       1 <0>        -0.1325
     30 H1          6.8184    4.0554   -4.3895 H         1 <0>         0.0537
     31 H2          6.8147    2.5262   -5.3321 H         1 <0>         0.0539
     32 H3          7.4906    2.5540   -3.6680 H         1 <0>         0.0551
     33 H4          5.2280    3.0531   -2.7573 H         1 <0>         0.0609
     34 H5          4.5521    3.0253   -4.4214 H         1 <0>         0.0594
     35 H6          5.2863    0.6606   -4.6802 H         1 <0>         0.0623
     36 H7          5.9621    0.6883   -3.0161 H         1 <0>         0.0663
     37 H8          3.6995    1.1874   -2.1054 H         1 <0>         0.0672
     38 H9          3.0236    1.1596   -3.7695 H         1 <0>         0.0613
     39 H10         3.7578   -1.2051   -4.0283 H         1 <0>         0.0654
     40 H11         4.4336   -1.1774   -2.3642 H         1 <0>         0.0880
     41 H12         2.1335   -0.5994   -1.4964 H         1 <0>         0.1050
     42 H13         1.4968   -0.7912   -3.1651 H         1 <0>         0.0549
     43 H14         0.1191   -2.2714   -1.9140 H         1 <0>         0.1247
     44 H15         0.6838   -3.9701   -1.7651 H         1 <0>         0.1524
     45 H16        -0.7205   -0.5269    0.3625 H         1 <0>         0.1372
     46 H17        -0.4142    1.8991    0.6522 H         1 <0>         0.1336
     47 H18         3.8101    1.3431    0.8416 H         1 <0>         0.1359
     48 H19         3.5040   -1.0824    0.5483 H         1 <0>         0.1516
     49 H20         2.9767    3.4802    1.0369 H         1 <0>         0.0730
     50 H21         1.3832    3.5816    1.8596 H         1 <0>         0.0795
     51 H22         1.4885    3.7842    0.0779 H         1 <0>         0.0789
     52 H23         1.2905   -3.4021   -3.9742 H         1 <0>         0.1223
     53 H24         2.9320   -2.7146   -4.2182 H         1 <0>         0.1570
     54 H25         2.6509   -5.1399   -0.4087 H         1 <0>         0.1688
     55 H26         0.9784   -6.3375    0.9448 H         1 <0>         0.1392
     56 H27        -0.8665   -7.7864   -2.6170 H         1 <0>         0.1363
     57 H28         0.8009   -6.5820   -3.9706 H         1 <0>         0.1436
     58 H29        -1.7637   -8.4049   -0.5890 H         1 <0>         0.0731
     59 H30        -1.6254   -7.1547    0.6934 H         1 <0>         0.0829
     60 H31        -0.5562   -8.5977    0.7268 H         1 <0>         0.0818
@<TRIPOS>BOND
     1    1    2 1
     2    1   30 1
     3    1   31 1
     4    1   32 1
     5    2    3 1
     6    2   33 1
     7    2   34 1
     8    3    4 1
     9    3   35 1
    10    3   36 1
    11    4    5 1
    12    4   37 1
    13    4   38 1
    14    5    6 1
    15    5   39 1
    16    5   40 1
    17    6    7 1
    18    6   41 1
    19    6   42 1
    20    7    8 1
    21    7   19 1
    22    8    9 1
    23    8   43 1
    24    8   44 1
    25    9   10 2
    26    9   11 2
    27    9   12 1
    28   12   17 ar
    29   12   13 ar
    30   13   14 ar
    31   13   45 1
    32   14   15 ar
    33   14   46 1
    34   15   16 ar
    35   15   18 1
    36   16   17 ar
    37   16   47 1
    38   17   48 1
    39   18   49 1
    40   18   50 1
    41   18   51 1
    42   19   20 1
    43   19   52 1
    44   19   53 1
    45   20   21 2
    46   20   22 2
    47   20   23 1
    48   23   28 ar
    49   23   24 ar
    50   24   25 ar
    51   24   54 1
    52   25   26 ar
    53   25   55 1
    54   26   27 ar
    55   26   29 1
    56   27   28 ar
    57   27   56 1
    58   28   57 1
    59   29   58 1
    60   29   59 1
    61   29   60 1
@<TRIPOS>MOLECULE
ZINC02516029
   50    52     0     0     0
SMALL
USER_CHARGES
1-(4-chlorophenyl)-4-[4-(4-chlorophenyl)-4-hydroxy-1-piperidyl]butan-1-one
@<TRIPOS>ATOM
      1 C1          0.0092    4.0966    8.9632 C.ar      1 <0>        -0.0607
      2 C2         -0.3639    4.4158   10.2509 C.ar      1 <0>        -0.1233
      3 C3          0.2543    3.8005   11.3276 C.ar      1 <0>         0.0007
      4 C4          1.2466    2.8563   11.1185 C.ar      1 <0>        -0.1210
      5 C5          1.6257    2.5226    9.8362 C.ar      1 <0>        -0.0436
      6 C6          1.0063    3.1400    8.7443 C.ar      1 <0>        -0.1807
      7 C7          1.4057    2.7896    7.3727 C.2       1 <0>         0.4031
      8 O1          2.2738    1.9636    7.1864 O.2       1 <0>        -0.4474
      9 C8          0.7361    3.4569    6.1991 C.3       1 <0>        -0.1676
     10 C9          1.3319    2.9171    4.8974 C.3       1 <0>        -0.1449
     11 C10         0.6521    3.5946    3.7059 C.3       1 <0>        -0.0058
     12 N1          1.2241    3.0763    2.4560 N.4       1 <0>        -0.3969
     13 C11         0.4423    3.5211    1.2952 C.3       1 <0>         0.0006
     14 C12         1.1461    3.0865    0.0077 C.3       1 <0>        -0.1348
     15 C13         1.2864    1.5618   -0.0018 C.3       1 <0>         0.1860
     16 C14         2.0624    1.1207    1.2422 C.3       1 <0>        -0.1702
     17 C15         1.3320    1.6123    2.4940 C.3       1 <0>        -0.0087
     18 C16         2.0306    1.1322   -1.2398 C.ar      1 <0>        -0.1237
     19 C17         2.9652    1.9752   -1.8116 C.ar      1 <0>        -0.1028
     20 C18         3.6522    1.5795   -2.9437 C.ar      1 <0>        -0.1045
     21 C19         3.3962    0.3440   -3.5113 C.ar      1 <0>        -0.0260
     22 C20         2.4567   -0.4970   -2.9419 C.ar      1 <0>        -0.1026
     23 C21         1.7744   -0.1024   -1.8065 C.ar      1 <0>        -0.0924
     24 Cl1         4.2540   -0.1511   -4.9371 Cl        1 <0>        -0.0512
     25 O2         -0.0110    0.9628    0.0073 O.3       1 <0>        -0.5787
     26 Cl2        -0.2171    4.2141   12.9464 Cl        1 <0>        -0.0466
     27 H1         -0.4703    4.5803    8.1250 H         1 <0>         0.1404
     28 H2         -1.1369    5.1506   10.4214 H         1 <0>         0.1444
     29 H3          1.7239    2.3804   11.9624 H         1 <0>         0.1452
     30 H4          2.3988    1.7859    9.6746 H         1 <0>         0.1448
     31 H5         -0.3431    3.2454    6.2238 H         1 <0>         0.1133
     32 H6          0.8981    4.5435    6.2536 H         1 <0>         0.1138
     33 H7          2.4111    3.1285    4.8727 H         1 <0>         0.0952
     34 H8          1.1698    1.8305    4.8428 H         1 <0>         0.0967
     35 H9         -0.4271    3.3832    3.7306 H         1 <0>         0.1293
     36 H10         0.8142    4.6812    3.7604 H         1 <0>         0.1343
     37 H11        -0.5606    3.0708    1.3343 H         1 <0>         0.1354
     38 H12         0.3529    4.6173    1.3116 H         1 <0>         0.1330
     39 H13         0.5523    3.4073   -0.8609 H         1 <0>         0.1225
     40 H14         2.1433    3.5485   -0.0390 H         1 <0>         0.1045
     41 H15         2.1298    0.0229    1.2622 H         1 <0>         0.1158
     42 H16         3.0749    1.5497    1.2141 H         1 <0>         0.0988
     43 H17         1.8949    1.3093    3.3892 H         1 <0>         0.1380
     44 H18         0.3249    1.1711    2.5274 H         1 <0>         0.1328
     45 H19         3.1617    2.9415   -1.3709 H         1 <0>         0.1325
     46 H20         4.3855    2.2364   -3.3878 H         1 <0>         0.1399
     47 H21         2.2567   -1.4617   -3.3844 H         1 <0>         0.1406
     48 H22         1.0412   -0.7590   -1.3617 H         1 <0>         0.1317
     49 H23        -0.1111   -0.1326    0.0024 H         1 <0>         0.4221
     50 H24         2.2402    3.4848    2.3523 H         1 <0>         0.4388
@<TRIPOS>BOND
     1    1    6 ar
     2    1    2 ar
     3    1   27 1
     4    2    3 ar
     5    2   28 1
     6    3    4 ar
     7    3   26 1
     8    4    5 ar
     9    4   29 1
    10    5    6 ar
    11    5   30 1
    12    6    7 1
    13    7    8 2
    14    7    9 1
    15    9   10 1
    16    9   31 1
    17    9   32 1
    18   10   11 1
    19   10   33 1
    20   10   34 1
    21   11   12 1
    22   11   35 1
    23   11   36 1
    24   12   17 1
    25   12   13 1
    26   12   50 1
    27   13   14 1
    28   13   37 1
    29   13   38 1
    30   14   15 1
    31   14   39 1
    32   14   40 1
    33   15   16 1
    34   15   18 1
    35   15   25 1
    36   16   17 1
    37   16   41 1
    38   16   42 1
    39   17   43 1
    40   17   44 1
    41   18   23 ar
    42   18   19 ar
    43   19   20 ar
    44   19   45 1
    45   20   21 ar
    46   20   46 1
    47   21   22 ar
    48   21   24 1
    49   22   23 ar
    50   22   47 1
    51   23   48 1
    52   25   49 1
@<TRIPOS>MOLECULE
ZINC20108598
   59    62     0     0     0
SMALL
USER_CHARGES

@<TRIPOS>ATOM
      1 C1          0.0148    1.5541    0.0426 C.3       1 <0>        -0.1890
      2 C2          0.0423    0.0244    0.0295 C.3       1 <0>        -0.0109
      3 N1          0.7460   -0.4629    1.2234 N.4       1 <0>        -0.3840
      4 C3         -0.0125   -0.0881    2.4235 C.3       1 <0>        -0.0265
      5 C4          0.7763   -0.4945    3.6727 C.3       1 <0>         0.1011
      6 N2          1.0936   -1.9278    3.5780 N.pl3     1 <0>        -0.6245
      7 C5          1.7095   -2.4209    2.3363 C.3       1 <0>         0.1045
      8 C6          0.8767   -1.9236    1.1502 C.3       1 <0>        -0.0214
      9 C7          0.8194   -2.7903    4.6298 C.ar      1 <0>         0.4180
     10 C8          0.2347   -2.2809    5.7982 C.ar      1 <0>        -0.2270
     11 C9         -0.0406   -3.1160    6.8386 C.ar      1 <0>         0.0274
     12 C10         0.2774   -4.4832    6.7007 C.ar      1 <0>        -0.1150
     13 C11         0.0194   -5.3963    7.7340 C.ar      1 <0>        -0.0860
     14 C12         0.3437   -6.7245    7.5622 C.ar      1 <0>         0.1387
     15 C13         0.9264   -7.1655    6.3691 C.ar      1 <0>        -0.0970
     16 C14         1.1852   -6.2980    5.3545 C.ar      1 <0>        -0.0917
     17 C15         0.8668   -4.9361    5.4955 C.ar      1 <0>         0.1662
     18 N3          1.1094   -4.0687    4.5052 N.ar      1 <0>        -0.5377
     19 N4          0.0885   -7.6395    8.5894 N.am      1 <0>        -0.6741
     20 C16        -0.9996   -7.4898    9.3704 C.2       1 <0>         0.5669
     21 O1         -1.8109   -6.6186    9.1222 O.2       1 <0>        -0.4935
     22 C17        -1.2065   -8.3826   10.5262 C.ar      1 <0>        -0.1704
     23 C18        -0.2738   -9.3812   10.8183 C.ar      1 <0>        -0.0374
     24 C19        -0.4732  -10.2125   11.9002 C.ar      1 <0>        -0.0827
     25 C20        -1.5959  -10.0621   12.6997 C.ar      1 <0>        -0.0336
     26 C21        -2.5246   -9.0792   12.4215 C.ar      1 <0>        -0.2052
     27 C22        -2.3365   -8.2304   11.3408 C.ar      1 <0>         0.1966
     28 O2         -3.2457   -7.2603   11.0702 O.3       1 <0>        -0.2788
     29 C23        -4.3723   -7.1651   11.9441 C.3       1 <0>         0.0169
     30 Cl1         0.6860  -11.4529   12.2624 Cl        1 <0>        -0.0549
     31 C24        -0.6682   -2.5924    8.1046 C.3       1 <0>        -0.1273
     32 H1          1.0358    1.9359    0.0437 H         1 <0>         0.0811
     33 H2         -0.5073    1.9157   -0.8433 H         1 <0>         0.1069
     34 H3         -0.5036    1.9006    0.9366 H         1 <0>         0.0802
     35 H4         -0.9786   -0.3573    0.0284 H         1 <0>         0.1282
     36 H5          0.5608   -0.3220   -0.8645 H         1 <0>         0.1317
     37 H6         -0.1732    0.9900    2.4299 H         1 <0>         0.1439
     38 H7         -0.9752   -0.5992    2.4193 H         1 <0>         0.1330
     39 H8          1.6996    0.0823    3.7266 H         1 <0>         0.0931
     40 H9          0.1738   -0.3108    4.5622 H         1 <0>         0.1288
     41 H10         2.7271   -2.0387    2.2553 H         1 <0>         0.0865
     42 H11         1.7239   -3.5108    2.3423 H         1 <0>         0.1395
     43 H12        -0.1130   -2.3792    1.1846 H         1 <0>         0.1315
     44 H13         1.3711   -2.1980    0.2184 H         1 <0>         0.1412
     45 H14         0.0034   -1.2287    5.8731 H         1 <0>         0.1354
     46 H15        -0.4297   -5.0608    8.6572 H         1 <0>         0.1456
     47 H16         1.1745   -8.2101    6.2524 H         1 <0>         0.1376
     48 H17         1.6355   -6.6554    4.4402 H         1 <0>         0.1404
     49 H18         0.6948   -8.3817    8.7395 H         1 <0>         0.4118
     50 H19         0.6016   -9.5020   10.1975 H         1 <0>         0.1426
     51 H20        -1.7450  -10.7178   13.5448 H         1 <0>         0.1460
     52 H21        -3.3969   -8.9685   13.0487 H         1 <0>         0.1491
     53 H22        -4.0287   -6.9693   12.9599 H         1 <0>         0.0614
     54 H23        -5.0188   -6.3511   11.6161 H         1 <0>         0.1074
     55 H24        -4.9287   -8.1021   11.9230 H         1 <0>         0.0614
     56 H25        -1.7538   -2.6438    8.0202 H         1 <0>         0.0881
     57 H26        -0.3405   -3.1976    8.9499 H         1 <0>         0.0801
     58 H27        -0.3644   -1.5572    8.2596 H         1 <0>         0.0772
     59 H28         1.6639   -0.0460    1.2648 H         1 <0>         0.4224
@<TRIPOS>BOND
     1    1    2 1
     2    1   32 1
     3    1   33 1
     4    1   34 1
     5    2    3 1
     6    2   35 1
     7    2   36 1
     8    3    8 1
     9    3    4 1
    10    3   59 1
    11    4    5 1
    12    4   37 1
    13    4   38 1
    14    5    6 1
    15    5   39 1
    16    5   40 1
    17    6    7 1
    18    6    9 1
    19    7    8 1
    20    7   41 1
    21    7   42 1
    22    8   43 1
    23    8   44 1
    24    9   18 ar
    25    9   10 ar
    26   10   11 ar
    27   10   45 1
    28   11   12 ar
    29   11   31 1
    30   12   17 ar
    31   12   13 ar
    32   13   14 ar
    33   13   46 1
    34   14   15 ar
    35   14   19 1
    36   15   16 ar
    37   15   47 1
    38   16   17 ar
    39   16   48 1
    40   17   18 ar
    41   19   20 am
    42   19   49 1
    43   20   21 2
    44   20   22 1
    45   22   27 ar
    46   22   23 ar
    47   23   24 ar
    48   23   50 1
    49   24   25 ar
    50   24   30 1
    51   25   26 ar
    52   25   51 1
    53   26   27 ar
    54   26   52 1
    55   27   28 1
    56   28   29 1
    57   29   53 1
    58   29   54 1
    59   29   55 1
    60   31   56 1
    61   31   57 1
    62   31   58 1
@<TRIPOS>MOLECULE
ZINC20108598
   59    62     0     0     0
SMALL
USER_CHARGES

@<TRIPOS>ATOM
      1 C1          0.0483    1.4659   -0.0116 C.3       1 <0>        -0.1536
      2 C2          0.0562   -0.0641   -0.0165 C.3       1 <0>         0.0507
      3 N1         -1.3262   -0.5609   -0.0049 N.3       1 <0>        -0.5383
      4 C3         -2.0244   -0.2039   -1.2471 C.3       1 <0>         0.0348
      5 C4         -3.5052   -0.5777   -1.1224 C.3       1 <0>         0.0988
      6 N2         -3.5988   -1.9953   -0.7418 N.pl3     1 <0>        -0.5790
      7 C5         -2.8164   -2.4585    0.4143 C.3       1 <0>         0.1108
      8 C6         -1.3626   -2.0107    0.2290 C.3       1 <0>         0.0346
      9 C7         -4.4043   -2.8723   -1.4541 C.ar      1 <0>         0.4993
     10 C8         -4.3858   -4.2364   -1.1293 C.ar      1 <0>        -0.2282
     11 C9         -5.1717   -5.1088   -1.8198 C.ar      1 <0>         0.1013
     12 C10        -5.9878   -4.6007   -2.8519 C.ar      1 <0>        -0.0929
     13 C11        -6.8209   -5.4451   -3.6009 C.ar      1 <0>        -0.0645
     14 C12        -7.6043   -4.9118   -4.6012 C.ar      1 <0>         0.1605
     15 C13        -7.5735   -3.5397   -4.8732 C.ar      1 <0>        -0.0607
     16 C14        -6.7736   -2.7028   -4.1598 C.ar      1 <0>        -0.1228
     17 C15        -5.9617   -3.2128   -3.1318 C.ar      1 <0>         0.1449
     18 N3         -5.1721   -2.4033   -2.4155 N.ar      1 <0>        -0.5287
     19 N4         -8.4370   -5.7493   -5.3514 N.am      1 <0>        -0.6765
     20 C16        -9.0288   -6.8099   -4.7672 C.2       1 <0>         0.5718
     21 O1         -8.9196   -6.9832   -3.5685 O.2       1 <0>        -0.4893
     22 C17        -9.8089   -7.7605   -5.5818 C.ar      1 <0>        -0.1767
     23 C18        -9.9321   -7.5683   -6.9602 C.ar      1 <0>        -0.0368
     24 C19       -10.6629   -8.4606   -7.7159 C.ar      1 <0>        -0.0827
     25 C20       -11.2767   -9.5482   -7.1136 C.ar      1 <0>        -0.0289
     26 C21       -11.1623   -9.7490   -5.7525 C.ar      1 <0>        -0.2040
     27 C22       -10.4259   -8.8646   -4.9784 C.ar      1 <0>         0.2001
     28 O2        -10.3080   -9.0646   -3.6416 O.3       1 <0>        -0.2802
     29 C23       -10.9640  -10.2112   -3.0968 C.3       1 <0>         0.0162
     30 Cl1       -10.8154   -8.2211   -9.4285 Cl        1 <0>        -0.0513
     31 C24        -5.1689   -6.5792   -1.4898 C.3       1 <0>        -0.1440
     32 H1          1.0740    1.8346   -0.0202 H         1 <0>         0.0679
     33 H2         -0.4759    1.8294   -0.8955 H         1 <0>         0.0542
     34 H3         -0.4590    1.8238    0.8844 H         1 <0>         0.0676
     35 H4          0.5634   -0.4219   -0.9124 H         1 <0>         0.0398
     36 H5          0.5803   -0.4275    0.8674 H         1 <0>         0.0848
     37 H6         -1.9332    0.8684   -1.4203 H         1 <0>         0.1087
     38 H7         -1.5813   -0.7466   -2.0822 H         1 <0>         0.0469
     39 H8         -3.9752    0.0390   -0.3563 H         1 <0>         0.1102
     40 H9         -4.0041   -0.4217   -2.0789 H         1 <0>         0.0832
     41 H10        -3.2202   -2.0227    1.3281 H         1 <0>         0.1065
     42 H11        -2.8598   -3.5460    0.4737 H         1 <0>         0.1070
     43 H12        -0.9288   -2.5282   -0.6266 H         1 <0>         0.0481
     44 H13        -0.7916   -2.2488    1.1264 H         1 <0>         0.1072
     45 H14        -3.7495   -4.5945   -0.3336 H         1 <0>         0.1791
     46 H15        -6.8477   -6.5050   -3.3954 H         1 <0>         0.1654
     47 H16        -8.1938   -3.1394   -5.6615 H         1 <0>         0.1557
     48 H17        -6.7621   -1.6462   -4.3830 H         1 <0>         0.1552
     49 H18        -8.5883   -5.5666   -6.2919 H         1 <0>         0.4180
     50 H19        -9.4561   -6.7220   -7.4330 H         1 <0>         0.1422
     51 H20       -11.8478  -10.2420   -7.7126 H         1 <0>         0.1479
     52 H21       -11.6436  -10.5983   -5.2905 H         1 <0>         0.1510
     53 H22       -10.7903  -10.2526   -2.0216 H         1 <0>         0.1092
     54 H23       -12.0347  -10.1430   -3.2895 H         1 <0>         0.0629
     55 H24       -10.5676  -11.1128   -3.5639 H         1 <0>         0.0628
     56 H25        -5.9282   -6.7836   -0.7349 H         1 <0>         0.1108
     57 H26        -5.3873   -7.1540   -2.3898 H         1 <0>         0.0936
     58 H27        -4.1891   -6.8635   -1.1059 H         1 <0>         0.0964
     59 H28        -5.1629   -1.4532   -2.6108 H         1 <0>         0.4328
@<TRIPOS>BOND
     1    1    2 1
     2    1   32 1
     3    1   33 1
     4    1   34 1
     5    2    3 1
     6    2   35 1
     7    2   36 1
     8    3    8 1
     9    3    4 1
    10    4    5 1
    11    4   37 1
    12    4   38 1
    13    5    6 1
    14    5   39 1
    15    5   40 1
    16    6    7 1
    17    6    9 1
    18    7    8 1
    19    7   41 1
    20    7   42 1
    21    8   43 1
    22    8   44 1
    23    9   18 ar
    24    9   10 ar
    25   10   11 ar
    26   10   45 1
    27   11   12 ar
    28   11   31 1
    29   12   17 ar
    30   12   13 ar
    31   13   14 ar
    32   13   46 1
    33   14   15 ar
    34   14   19 1
    35   15   16 ar
    36   15   47 1
    37   16   17 ar
    38   16   48 1
    39   17   18 ar
    40   18   59 1
    41   19   20 am
    42   19   49 1
    43   20   21 2
    44   20   22 1
    45   22   27 ar
    46   22   23 ar
    47   23   24 ar
    48   23   50 1
    49   24   25 ar
    50   24   30 1
    51   25   26 ar
    52   25   51 1
    53   26   27 ar
    54   26   52 1
    55   27   28 1
    56   28   29 1
    57   29   53 1
    58   29   54 1
    59   29   55 1
    60   31   56 1
    61   31   57 1
    62   31   58 1
@<TRIPOS>MOLECULE
ZINC03626312
   54    57     0     0     0
SMALL
USER_CHARGES
2-(2,4-dichlorophenoxy)-N-[4-methyl-2-(1-piperidyl)-6-quinolyl]-acetamide
@<TRIPOS>ATOM
      1 C1         -1.7469    5.3467   -2.4724 C.3       1 <0>        -0.1475
      2 C2         -1.5904    3.8609   -2.2749 C.ar      1 <0>         0.1059
      3 C3         -0.8622    3.3672   -1.2344 C.ar      1 <0>        -0.1914
      4 C4         -0.7259    1.9813   -1.0731 C.ar      1 <0>         0.4369
      5 C5         -2.0294    1.5572   -2.9377 C.ar      1 <0>         0.1413
      6 C6         -2.1999    2.9460   -3.1577 C.ar      1 <0>        -0.0810
      7 C7         -2.9689    3.3877   -4.2448 C.ar      1 <0>        -0.0670
      8 C8         -3.5492    2.4631   -5.0854 C.ar      1 <0>         0.1567
      9 C9         -3.3773    1.0928   -4.8624 C.ar      1 <0>        -0.0572
     10 C10        -2.6355    0.6419   -3.8158 C.ar      1 <0>        -0.1261
     11 N1         -4.3175    2.8985   -6.1715 N.am      1 <0>        -0.6719
     12 C11        -5.0737    4.0086   -6.0601 C.2       1 <0>         0.5219
     13 O1         -5.0254    4.6763   -5.0487 O.2       1 <0>        -0.4830
     14 C12        -5.9793    4.4201   -7.1922 C.3       1 <0>         0.0390
     15 O2         -6.6710    5.6191   -6.8371 O.3       1 <0>        -0.2762
     16 C13        -7.5346    6.1284   -7.7552 C.ar      1 <0>         0.1368
     17 C14        -7.7120    5.4873   -8.9723 C.ar      1 <0>        -0.1864
     18 C15        -8.5899    6.0063   -9.9042 C.ar      1 <0>        -0.0626
     19 C16        -9.2924    7.1653   -9.6246 C.ar      1 <0>        -0.0570
     20 C17        -9.1171    7.8072   -8.4117 C.ar      1 <0>        -0.0618
     21 C18        -8.2441    7.2877   -7.4738 C.ar      1 <0>        -0.0529
     22 Cl1        -8.0303    8.0885   -5.9485 Cl        1 <0>        -0.0349
     23 Cl2       -10.3948    7.8150  -10.7977 Cl        1 <0>        -0.0466
     24 N2          0.0240    1.4931   -0.0125 N.pl3     1 <0>        -0.4724
     25 C19         1.3865    2.0403   -0.0356 C.3       1 <0>         0.0528
     26 C20         2.1367    1.5977    1.2228 C.3       1 <0>        -0.1249
     27 C21         2.1816    0.0680    1.2728 C.3       1 <0>        -0.1318
     28 C22         0.7513   -0.4779    1.2470 C.3       1 <0>        -0.1170
     29 C23         0.0413    0.0248   -0.0121 C.3       1 <0>         0.0162
     30 H1         -2.6254    5.6949   -1.9293 H         1 <0>         0.1146
     31 H2         -0.8609    5.8585   -2.0966 H         1 <0>         0.1006
     32 H3         -1.8675    5.5613   -3.5343 H         1 <0>         0.0958
     33 H4         -0.3868    4.0423   -0.5382 H         1 <0>         0.1865
     34 H5         -3.1048    4.4445   -4.4216 H         1 <0>         0.1740
     35 H6         -3.8401    0.3826   -5.5317 H         1 <0>         0.1572
     36 H7         -2.5128   -0.4195   -3.6585 H         1 <0>         0.1564
     37 H8         -4.3056    2.4013   -7.0043 H         1 <0>         0.4238
     38 H9         -5.3840    4.5959   -8.0882 H         1 <0>         0.1071
     39 H10        -6.7021    3.6275   -7.3858 H         1 <0>         0.1069
     40 H11        -7.1644    4.5825   -9.1912 H         1 <0>         0.1464
     41 H12        -8.7283    5.5068  -10.8517 H         1 <0>         0.1473
     42 H13        -9.6663    8.7116   -8.1953 H         1 <0>         0.1551
     43 H14         1.9102    1.6736   -0.9184 H         1 <0>         0.0721
     44 H15         1.3403    3.1288   -0.0669 H         1 <0>         0.1059
     45 H16         1.6211    1.9757    2.1056 H         1 <0>         0.0846
     46 H17         3.1529    1.9910    1.1978 H         1 <0>         0.0928
     47 H18         2.6772   -0.2520    2.1894 H         1 <0>         0.0847
     48 H19         2.7310   -0.3087    0.4100 H         1 <0>         0.0688
     49 H20         0.2140   -0.1326    2.1302 H         1 <0>         0.0853
     50 H21         0.7778   -1.5676    1.2393 H         1 <0>         0.0909
     51 H22        -0.9820   -0.3505   -0.0263 H         1 <0>         0.0943
     52 H23         0.5713   -0.3324   -0.8950 H         1 <0>         0.0730
     53 N3         -1.2882    1.0560   -1.8897 N.ar      1 <0>        -0.5450
     54 H24        -1.1694    0.0476   -1.7370 H         1 <0>         0.4628
@<TRIPOS>BOND
     1    1    2 1
     2    1   30 1
     3    1   31 1
     4    1   32 1
     5    2    6 ar
     6    2    3 ar
     7    3    4 ar
     8    3   33 1
     9    4   24 1
    10    4   53 ar
    11    5   10 ar
    12    5    6 ar
    13    5   53 ar
    14    6    7 ar
    15    7    8 ar
    16    7   34 1
    17    8    9 ar
    18    8   11 1
    19    9   10 ar
    20    9   35 1
    21   10   36 1
    22   11   12 am
    23   11   37 1
    24   12   13 2
    25   12   14 1
    26   14   15 1
    27   14   38 1
    28   14   39 1
    29   15   16 1
    30   16   21 ar
    31   16   17 ar
    32   17   18 ar
    33   17   40 1
    34   18   19 ar
    35   18   41 1
    36   19   20 ar
    37   19   23 1
    38   20   21 ar
    39   20   42 1
    40   21   22 1
    41   24   29 1
    42   24   25 1
    43   25   26 1
    44   25   43 1
    45   25   44 1
    46   26   27 1
    47   26   45 1
    48   26   46 1
    49   27   28 1
    50   27   47 1
    51   27   48 1
    52   28   29 1
    53   28   49 1
    54   28   50 1
    55   29   51 1
    56   29   52 1
    57   53   54 1
@<TRIPOS>MOLECULE
ZINC15778673
   54    56     0     0     0
SMALL
USER_CHARGES
N,N-bis(o-tolylsulfanylmethyl)-2-phenyl-ethanamine
@<TRIPOS>ATOM
      1 C1          4.9686   -2.7387    4.1797 C.3       1 <0>        -0.1207
      2 C2          3.8179   -3.2725    4.9933 C.ar      1 <0>        -0.0633
      3 C3          4.0570   -3.9025    6.1988 C.ar      1 <0>        -0.1024
      4 C4          3.0018   -4.3923    6.9462 C.ar      1 <0>        -0.1203
      5 C5          1.7033   -4.2529    6.4901 C.ar      1 <0>        -0.1068
      6 C6          1.4563   -3.6195    5.2885 C.ar      1 <0>        -0.1322
      7 C7          2.5149   -3.1311    4.5317 C.ar      1 <0>        -0.0915
      8 S1          2.2049   -2.3280    2.9943 S.3       1 <0>        -0.0718
      9 C8          0.4206   -2.5364    2.7423 C.3       1 <0>         0.0559
     10 N1          0.0412   -1.9743    1.4392 N.3       1 <0>        -0.5066
     11 C9         -0.2033   -0.5293    1.5402 C.3       1 <0>         0.0568
     12 C10        -0.1793    0.0909    0.1417 C.3       1 <0>        -0.0821
     13 C11        -0.4301    1.5733    0.2453 C.ar      1 <0>        -0.0806
     14 C12        -1.7217    2.0618    0.1818 C.ar      1 <0>        -0.1173
     15 C13        -1.9522    3.4211    0.2817 C.ar      1 <0>        -0.1189
     16 C14        -0.8904    4.2928    0.4350 C.ar      1 <0>        -0.1248
     17 C15         0.4017    3.8048    0.4928 C.ar      1 <0>        -0.1180
     18 C16         0.6318    2.4450    0.3982 C.ar      1 <0>        -0.1150
     19 C17        -1.1294   -2.6690    0.8869 C.3       1 <0>         0.0535
     20 S2         -1.1298   -2.5105   -0.9201 S.3       1 <0>        -0.0745
     21 C18         0.1269   -3.6279   -1.4463 C.ar      1 <0>        -0.0871
     22 C19         0.8417   -4.3641   -0.5087 C.ar      1 <0>        -0.1091
     23 C20         1.8220   -5.2426   -0.9250 C.ar      1 <0>        -0.1087
     24 C21         2.1003   -5.3829   -2.2727 C.ar      1 <0>        -0.1196
     25 C22         1.3951   -4.6480   -3.2080 C.ar      1 <0>        -0.1070
     26 C23         0.4095   -3.7712   -2.7992 C.ar      1 <0>        -0.0672
     27 C24        -0.3582   -2.9703   -3.8192 C.3       1 <0>        -0.1200
     28 H1          5.9140   -2.9432    4.7035 H         1 <0>         0.0702
     29 H2          4.8508   -1.6532    4.0461 H         1 <0>         0.0743
     30 H3          4.9809   -3.2301    3.1956 H         1 <0>         0.0768
     31 H4          5.0695   -4.0125    6.5583 H         1 <0>         0.1280
     32 H5          3.1918   -4.8846    7.8885 H         1 <0>         0.1253
     33 H6          0.8815   -4.6360    7.0768 H         1 <0>         0.1242
     34 H7          0.4419   -3.5074    4.9350 H         1 <0>         0.1178
     35 H8          0.1694   -3.6071    2.7670 H         1 <0>         0.0943
     36 H9         -0.1261   -2.0131    3.5406 H         1 <0>         0.0698
     37 H10        -1.1865   -0.3552    2.0017 H         1 <0>         0.0451
     38 H11         0.5795   -0.0674    2.1597 H         1 <0>         0.0868
     39 H12         0.8039   -0.0833   -0.3198 H         1 <0>         0.0833
     40 H13        -0.9621   -0.3711   -0.4778 H         1 <0>         0.0940
     41 H14        -2.5510    1.3811    0.0578 H         1 <0>         0.1184
     42 H15        -2.9616    3.8024    0.2361 H         1 <0>         0.1204
     43 H16        -1.0701    5.3551    0.5092 H         1 <0>         0.1202
     44 H17         1.2313    4.4858    0.6122 H         1 <0>         0.1211
     45 H18         1.6412    2.0637    0.4433 H         1 <0>         0.1214
     46 H19        -1.0875   -3.7333    1.1616 H         1 <0>         0.1034
     47 H20        -2.0477   -2.2211    1.2945 H         1 <0>         0.0970
     48 H21         0.6278   -4.2520    0.5439 H         1 <0>         0.1216
     49 H22         2.3753   -5.8177   -0.1973 H         1 <0>         0.1219
     50 H23         2.8705   -6.0679   -2.5952 H         1 <0>         0.1226
     51 H24         1.6155   -4.7596   -4.2593 H         1 <0>         0.1251
     52 H25         0.0042   -3.2177   -4.8279 H         1 <0>         0.0692
     53 H26        -0.2103   -1.8969   -3.6294 H         1 <0>         0.0744
     54 H27        -1.4288   -3.2117   -3.7447 H         1 <0>         0.0728
@<TRIPOS>BOND
     1    1    2 1
     2    1   28 1
     3    1   29 1
     4    1   30 1
     5    2    7 ar
     6    2    3 ar
     7    3    4 ar
     8    3   31 1
     9    4    5 ar
    10    4   32 1
    11    5    6 ar
    12    5   33 1
    13    6    7 ar
    14    6   34 1
    15    7    8 1
    16    8    9 1
    17    9   10 1
    18    9   35 1
    19    9   36 1
    20   10   11 1
    21   10   19 1
    22   11   12 1
    23   11   37 1
    24   11   38 1
    25   12   13 1
    26   12   39 1
    27   12   40 1
    28   13   18 ar
    29   13   14 ar
    30   14   15 ar
    31   14   41 1
    32   15   16 ar
    33   15   42 1
    34   16   17 ar
    35   16   43 1
    36   17   18 ar
    37   17   44 1
    38   18   45 1
    39   19   20 1
    40   19   46 1
    41   19   47 1
    42   20   21 1
    43   21   26 ar
    44   21   22 ar
    45   22   23 ar
    46   22   48 1
    47   23   24 ar
    48   23   49 1
    49   24   25 ar
    50   24   50 1
    51   25   26 ar
    52   25   51 1
    53   26   27 1
    54   27   52 1
    55   27   53 1
    56   27   54 1
@<TRIPOS>MOLECULE
ZINC15776492
   55    57     0     0     0
SMALL
USER_CHARGES
N-benzyl-1-(p-tolylsulfonyl)-N-(p-tolylsulfonylmethyl)methanamine
@<TRIPOS>ATOM
      1 C1          3.2512   -0.9029    3.6276 C.3       1 <0>        -0.1285
      2 C2          2.9378   -1.8491    2.4973 C.ar      1 <0>        -0.0175
      3 C3          1.7193   -2.5008    2.4593 C.ar      1 <0>        -0.1358
      4 C4          1.4316   -3.3684    1.4223 C.ar      1 <0>        -0.0179
      5 C5          2.3624   -3.5843    0.4233 C.ar      1 <0>        -0.6473
      6 C6          3.5807   -2.9322    0.4611 C.ar      1 <0>        -0.0048
      7 C7          3.8680   -2.0639    1.4976 C.ar      1 <0>        -0.1389
      8 S1          1.9962   -4.6910   -0.8979 S.o2      1 <0>         2.4929
      9 O1          3.2640   -5.0672   -1.4177 O.2       1 <0>        -0.9199
     10 O2          1.1299   -5.6624   -0.3276 O.2       1 <0>        -0.9417
     11 C8          1.0963   -3.6869   -2.1113 C.3       1 <0>        -0.4441
     12 N1          2.0056   -2.6907   -2.6933 N.3       1 <0>        -0.4659
     13 C9          1.3818   -1.3610   -2.7206 C.3       1 <0>         0.0596
     14 C10         1.4151   -0.7620   -1.3382 C.ar      1 <0>        -0.0818
     15 C11         0.3136   -0.8726   -0.5103 C.ar      1 <0>        -0.1172
     16 C12         0.3459   -0.3274    0.7596 C.ar      1 <0>        -0.1132
     17 C13         1.4760    0.3371    1.1979 C.ar      1 <0>        -0.1063
     18 C14         2.5754    0.4527    0.3680 C.ar      1 <0>        -0.1137
     19 C15         2.5451   -0.0971   -0.9000 C.ar      1 <0>        -0.0905
     20 C16         2.4403   -3.0959   -4.0367 C.3       1 <0>        -0.4523
     21 S2          4.0108   -2.2805   -4.4357 S.o2      1 <0>         2.5024
     22 O3          4.4812   -2.7179   -5.7033 O.2       1 <0>        -0.9322
     23 O4          3.9343   -0.8948   -4.1301 O.2       1 <0>        -0.9290
     24 C17         5.1670   -2.9332   -3.2774 C.ar      1 <0>        -0.6444
     25 C18         5.4986   -2.2078   -2.1483 C.ar      1 <0>        -0.0093
     26 C19         6.4024   -2.7218   -1.2373 C.ar      1 <0>        -0.1484
     27 C20         6.9818   -3.9569   -1.4602 C.ar      1 <0>        -0.0218
     28 C21         6.6539   -4.6802   -2.5917 C.ar      1 <0>        -0.1296
     29 C22         5.7468   -4.1681   -3.5005 C.ar      1 <0>        -0.0032
     30 C23         7.9707   -4.5152   -0.4695 C.3       1 <0>        -0.1289
     31 H1          2.3970   -0.8626    4.3195 H         1 <0>         0.0684
     32 H2          3.4426    0.1017    3.2224 H         1 <0>         0.0769
     33 H3          4.1427   -1.2572    4.1658 H         1 <0>         0.0746
     34 H4          0.9903   -2.3287    3.2373 H         1 <0>         0.1250
     35 H5          0.4798   -3.8779    1.3927 H         1 <0>         0.1298
     36 H6          4.3082   -3.1014   -0.3190 H         1 <0>         0.1454
     37 H7          4.8201   -1.5550    1.5276 H         1 <0>         0.1245
     38 H8          0.7062   -4.3371   -2.9082 H         1 <0>         0.1308
     39 H9          0.2598   -3.1738   -1.6144 H         1 <0>         0.1424
     40 H10         1.9342   -0.7111   -3.4152 H         1 <0>         0.1183
     41 H11         0.3380   -1.4524   -3.0555 H         1 <0>         0.0658
     42 H12        -0.5708   -1.3882   -0.8543 H         1 <0>         0.1144
     43 H13        -0.5132   -0.4173    1.4079 H         1 <0>         0.1176
     44 H14         1.4999    0.7664    2.1887 H         1 <0>         0.1169
     45 H15         3.4582    0.9721    0.7103 H         1 <0>         0.1187
     46 H16         3.4040   -0.0069   -1.5484 H         1 <0>         0.1294
     47 H17         2.5763   -4.1871   -4.0645 H         1 <0>         0.1515
     48 H18         1.6775   -2.8026   -4.7730 H         1 <0>         0.1247
     49 H19         5.0490   -1.2411   -1.9762 H         1 <0>         0.1395
     50 H20         6.6584   -2.1570   -0.3531 H         1 <0>         0.1284
     51 H21         7.1065   -5.6451   -2.7659 H         1 <0>         0.1292
     52 H22         5.4908   -4.7330   -4.3847 H         1 <0>         0.1333
     53 H23         8.3203   -5.4992   -0.8152 H         1 <0>         0.0705
     54 H24         7.4857   -4.6225    0.5119 H         1 <0>         0.0770
     55 H25         8.8279   -3.8314   -0.3821 H         1 <0>         0.0762
@<TRIPOS>BOND
     1    1    2 1
     2    1   31 1
     3    1   32 1
     4    1   33 1
     5    2    7 ar
     6    2    3 ar
     7    3    4 ar
     8    3   34 1
     9    4    5 ar
    10    4   35 1
    11    5    6 ar
    12    5    8 1
    13    6    7 ar
    14    6   36 1
    15    7   37 1
    16    8    9 2
    17    8   10 2
    18    8   11 1
    19   11   12 1
    20   11   38 1
    21   11   39 1
    22   12   13 1
    23   12   20 1
    24   13   14 1
    25   13   40 1
    26   13   41 1
    27   14   19 ar
    28   14   15 ar
    29   15   16 ar
    30   15   42 1
    31   16   17 ar
    32   16   43 1
    33   17   18 ar
    34   17   44 1
    35   18   19 ar
    36   18   45 1
    37   19   46 1
    38   20   21 1
    39   20   47 1
    40   20   48 1
    41   21   22 2
    42   21   23 2
    43   21   24 1
    44   24   29 ar
    45   24   25 ar
    46   25   26 ar
    47   25   49 1
    48   26   27 ar
    49   26   50 1
    50   27   28 ar
    51   27   30 1
    52   28   29 ar
    53   28   51 1
    54   29   52 1
    55   30   53 1
    56   30   54 1
    57   30   55 1
@<TRIPOS>MOLECULE
ZINC28389967
   29    30     0     0     0
SMALL
USER_CHARGES
8-propoxyquinolin-2-amine
@<TRIPOS>ATOM
      1 C1          4.6575    8.2463    0.0010 C.3       1 <0>        -0.1517
      2 C2          3.3118    7.5184    0.0100 C.3       1 <0>        -0.1232
      3 C3          3.5494    6.0070    0.0001 C.3       1 <0>         0.0527
      4 O1          2.2925    5.3271    0.0084 O.3       1 <0>        -0.2933
      5 C4          2.3259    3.9687    0.0012 C.ar      1 <0>         0.1388
      6 C5          3.5315    3.3055   -0.0140 C.ar      1 <0>        -0.1986
      7 C6          3.5801    1.9144   -0.0220 C.ar      1 <0>        -0.1005
      8 C7          2.4367    1.1742   -0.0154 C.ar      1 <0>        -0.1181
      9 C8          1.1882    1.8154    0.0005 C.ar      1 <0>        -0.1213
     10 C9          1.1256    3.2293    0.0087 C.ar      1 <0>         0.1670
     11 N1         -0.0618    3.8453    0.0230 N.ar      1 <0>        -0.5366
     12 C10        -1.1866    3.1606    0.0296 C.ar      1 <0>         0.4232
     13 C11        -1.1913    1.7583    0.0172 C.ar      1 <0>        -0.2085
     14 C12        -0.0126    1.0758    0.0080 C.ar      1 <0>        -0.0302
     15 N2         -2.3952    3.8425    0.0440 N.pl3     1 <0>        -0.8693
     16 H1          4.4866    9.3329    0.0081 H         1 <0>         0.0655
     17 H2          5.2182    7.9692   -0.9039 H         1 <0>         0.0580
     18 H3          5.2351    7.9601    0.8923 H         1 <0>         0.0580
     19 H4          2.7511    7.7955    0.9149 H         1 <0>         0.0742
     20 H5          2.7341    7.8046   -0.8813 H         1 <0>         0.0742
     21 H6          4.1102    5.7299   -0.9048 H         1 <0>         0.0625
     22 H7          4.1270    5.7208    0.8914 H         1 <0>         0.0625
     23 H8          4.4514    3.8713   -0.0201 H         1 <0>         0.1309
     24 H9          4.5376    1.4151   -0.0339 H         1 <0>         0.1261
     25 H10         2.4907    0.0955   -0.0214 H         1 <0>         0.1274
     26 H11        -2.1279    1.2205    0.0182 H         1 <0>         0.1342
     27 H12         0.0021   -0.0041    0.0020 H         1 <0>         0.1418
     28 H13        -3.3423    3.2831    0.0496 H         1 <0>         0.4281
     29 H14        -2.4061    4.9424    0.0498 H         1 <0>         0.4263
@<TRIPOS>BOND
     1    1    2 1
     2    1   16 1
     3    1   17 1
     4    1   18 1
     5    2    3 1
     6    2   19 1
     7    2   20 1
     8    3    4 1
     9    3   21 1
    10    3   22 1
    11    4    5 1
    12    5   10 ar
    13    5    6 ar
    14    6    7 ar
    15    6   23 1
    16    7    8 ar
    17    7   24 1
    18    8    9 ar
    19    8   25 1
    20    9   14 ar
    21    9   10 ar
    22   10   11 ar
    23   11   12 ar
    24   12   13 ar
    25   12   15 1
    26   13   14 ar
    27   13   26 1
    28   14   27 1
    29   15   28 1
    30   15   29 1
@<TRIPOS>MOLECULE
ZINC16134119
   52    53     0     0     0
SMALL
USER_CHARGES
2-dimethylaminoethyl 4-[(5E)-5-[(4-methoxyphenyl)methylene]-4-oxo-2-thioxo-thiazolidin-3-yl]butanoate
@<TRIPOS>ATOM
      1 C1         11.2924    1.0893    4.5628 C.3       1 <0>        -0.0497
      2 C2         13.3748    0.6213    3.4194 C.3       1 <0>        -0.0426
      3 C3         11.9181   -1.1983    4.0748 C.3       1 <0>         0.0030
      4 C4         10.4666   -1.6806    4.0351 C.3       1 <0>         0.0282
      5 O1         10.0009   -1.7013    2.6599 O.3       1 <0>        -0.3749
      6 C5          8.7377   -2.1038    2.4504 C.2       1 <0>         0.4710
      7 O2          8.0440   -2.4281    3.3850 O.2       1 <0>        -0.4822
      8 C6          8.1846   -2.1512    1.0493 C.3       1 <0>        -0.1061
      9 C7          6.7355   -2.6405    1.0894 C.3       1 <0>        -0.1266
     10 C8          6.1739   -2.6886   -0.3330 C.3       1 <0>         0.0857
     11 N1          4.7864   -3.1572   -0.2946 N.am      1 <0>        -0.5226
     12 C9          3.8095   -2.2745   -0.1705 C.2       1 <0>         0.5414
     13 O3          4.0330   -1.0810   -0.0868 O.2       1 <0>        -0.4521
     14 C10         2.4339   -2.8103   -0.1382 C.2       1 <0>        -0.2685
     15 C11         1.2519   -2.1532   -0.0209 C.2       1 <0>         0.1209
     16 C12         1.2176   -0.6866   -0.0860 C.ar      1 <0>        -0.1532
     17 C13         0.3621    0.0344    0.7564 C.ar      1 <0>        -0.0333
     18 C14         0.3344    1.4092    0.6915 C.ar      1 <0>        -0.1646
     19 C15         1.1534    2.0819   -0.2081 C.ar      1 <0>         0.1627
     20 C16         2.0045    1.3713   -1.0466 C.ar      1 <0>        -0.2201
     21 C17         2.0405   -0.0038   -0.9902 C.ar      1 <0>         0.0020
     22 O4          1.1220    3.4379   -0.2679 O.3       1 <0>        -0.3112
     23 C18         1.9890    4.0658   -1.2145 C.3       1 <0>         0.0243
     24 S1          2.7535   -4.5627   -0.2881 S.3       1 <0>         0.0850
     25 C19         4.5344   -4.4787   -0.3871 C.2       1 <0>         0.2753
     26 S2          5.6518   -5.7652   -0.5519 S.2       1 <0>        -0.3333
     27 H1         11.7637    1.0179    5.5431 H         1 <0>         0.1269
     28 H2         11.3556    2.1163    4.2032 H         1 <0>         0.1263
     29 H3         10.2457    0.7953    4.6406 H         1 <0>         0.1183
     30 H4         13.8419   -0.0128    2.6659 H         1 <0>         0.1236
     31 H5         13.3938    1.6583    3.0840 H         1 <0>         0.1243
     32 H6         13.9215    0.5330    4.3583 H         1 <0>         0.1247
     33 H7         12.2960   -1.2670    5.0949 H         1 <0>         0.1528
     34 H8         12.5262   -1.8218    3.4193 H         1 <0>         0.1430
     35 H9          9.8430   -1.0044    4.6198 H         1 <0>         0.0958
     36 H10        10.4059   -2.6849    4.4544 H         1 <0>         0.1181
     37 H11         8.7822   -2.8343    0.4457 H         1 <0>         0.1215
     38 H12         8.2193   -1.1538    0.6111 H         1 <0>         0.1148
     39 H13         6.1379   -1.9574    1.6930 H         1 <0>         0.0813
     40 H14         6.7008   -3.6379    1.5277 H         1 <0>         0.0886
     41 H15         6.7715   -3.3717   -0.9366 H         1 <0>         0.1171
     42 H16         6.2086   -1.6912   -0.7713 H         1 <0>         0.1077
     43 H17         0.3368   -2.7090    0.1202 H         1 <0>         0.1614
     44 H18        -0.2743   -0.4872    1.4559 H         1 <0>         0.1397
     45 H19        -0.3282    1.9661    1.3375 H         1 <0>         0.1397
     46 H20         2.6385    1.8989   -1.7438 H         1 <0>         0.1328
     47 H21         2.7023   -0.5548   -1.6419 H         1 <0>         0.1241
     48 H22         1.8651    5.1473   -1.1591 H         1 <0>         0.1054
     49 H23         3.0232    3.8065   -0.9877 H         1 <0>         0.0571
     50 H24         1.7402    3.7225   -2.2186 H         1 <0>         0.0602
     51 N2         11.9694    0.1992    3.5962 N.4       1 <0>        -0.4007
     52 H25        11.4866    0.2600    2.6921 H         1 <0>         0.4368
@<TRIPOS>BOND
     1    1   27 1
     2    1   28 1
     3    1   29 1
     4    1   51 1
     5    2   30 1
     6    2   31 1
     7    2   32 1
     8    2   51 1
     9    3    4 1
    10    3   33 1
    11    3   34 1
    12    3   51 1
    13    4    5 1
    14    4   35 1
    15    4   36 1
    16    5    6 1
    17    6    7 2
    18    6    8 1
    19    8    9 1
    20    8   37 1
    21    8   38 1
    22    9   10 1
    23    9   39 1
    24    9   40 1
    25   10   11 1
    26   10   41 1
    27   10   42 1
    28   11   25 1
    29   11   12 am
    30   12   13 2
    31   12   14 1
    32   14   15 2
    33   14   24 1
    34   15   16 1
    35   15   43 1
    36   16   21 ar
    37   16   17 ar
    38   17   18 ar
    39   17   44 1
    40   18   19 ar
    41   18   45 1
    42   19   20 ar
    43   19   22 1
    44   20   21 ar
    45   20   46 1
    46   21   47 1
    47   22   23 1
    48   23   48 1
    49   23   49 1
    50   23   50 1
    51   24   25 1
    52   25   26 2
    53   51   52 1
@<TRIPOS>MOLECULE
ZINC13983163
   56    59     0     0     0
SMALL
USER_CHARGES
4-[(4-fluorophenyl)methoxy]-1-[4-(2-pyrrolidin-1-ylethoxy)phenyl]pyridin-2-one
@<TRIPOS>ATOM
      1 C1          0.1419    0.3525   -0.3453 C.ar      1 <0>        -0.0629
      2 C2          1.4187   -0.1416   -0.5338 C.ar      1 <0>        -0.1565
      3 C3          2.1620   -0.5700    0.5529 C.ar      1 <0>         0.1157
      4 C4          1.6251   -0.5028    1.8274 C.ar      1 <0>        -0.1563
      5 C5          0.3481   -0.0083    2.0134 C.ar      1 <0>        -0.0627
      6 C6         -0.3931    0.4192    0.9276 C.ar      1 <0>        -0.1161
      7 C7         -1.7879    0.9525    1.1312 C.3       1 <0>         0.1000
      8 O1         -1.7315    2.3642    1.3455 O.3       1 <0>        -0.2934
      9 C8         -2.9089    3.0032    1.5466 C.2       1 <0>         0.2318
     10 C9         -2.9387    4.3940    1.7710 C.2       1 <0>        -0.2217
     11 C10        -4.1209    5.0175    1.9646 C.2       1 <0>         0.1582
     12 N1         -5.2879    4.3185    1.9566 N.am      1 <0>        -0.4700
     13 C11        -5.2991    2.9884    1.7511 C.2       1 <0>         0.5367
     14 O2         -6.3587    2.3811    1.7490 O.2       1 <0>        -0.5420
     15 C12        -4.0994    2.2997    1.5404 C.2       1 <0>        -0.3577
     16 C13        -6.4978    4.9941    2.1662 C.ar      1 <0>         0.0859
     17 C14        -7.1985    5.5152    1.0864 C.ar      1 <0>        -0.0551
     18 C15        -8.3930    6.1760    1.2931 C.ar      1 <0>        -0.1936
     19 C16        -8.8881    6.3286    2.5802 C.ar      1 <0>         0.1282
     20 C17        -8.1856    5.8131    3.6599 C.ar      1 <0>        -0.1310
     21 C18        -6.9937    5.1475    3.4542 C.ar      1 <0>        -0.0550
     22 O3        -10.0617    6.9838    2.7834 O.3       1 <0>        -0.3236
     23 C19       -10.7317    7.4886    1.6266 C.3       1 <0>         0.0245
     24 C20       -12.0239    8.1894    2.0508 C.3       1 <0>         0.0089
     25 C21       -10.7248   10.2462    2.1520 C.3       1 <0>        -0.0122
     26 C22       -10.9062   11.6164    2.8521 C.3       1 <0>        -0.1463
     27 C23       -12.4293   11.6737    3.1104 C.3       1 <0>        -0.1470
     28 C24       -12.8969   10.2067    3.0858 C.3       1 <0>        -0.0106
     29 F1          3.4105   -1.0529    0.3699 F         1 <0>        -0.1338
     30 H1         -0.4381    0.6868   -1.1928 H         1 <0>         0.1362
     31 H2          1.8365   -0.1936   -1.5284 H         1 <0>         0.1414
     32 H3          2.2042   -0.8363    2.6758 H         1 <0>         0.1415
     33 H4         -0.0707    0.0446    3.0075 H         1 <0>         0.1364
     34 H5         -2.3896    0.7430    0.2468 H         1 <0>         0.0828
     35 H6         -2.2379    0.4709    1.9993 H         1 <0>         0.0830
     36 H7         -2.0192    4.9603    1.7840 H         1 <0>         0.1611
     37 H8         -4.1397    6.0842    2.1321 H         1 <0>         0.1719
     38 H9         -4.1031    1.2324    1.3754 H         1 <0>         0.1551
     39 H10        -6.8110    5.4003    0.0849 H         1 <0>         0.1369
     40 H11        -8.9399    6.5781    0.4530 H         1 <0>         0.1364
     41 H12        -8.5715    5.9322    4.6616 H         1 <0>         0.1432
     42 H13        -6.4468    4.7466    4.2948 H         1 <0>         0.1418
     43 H14       -10.0845    8.1995    1.1131 H         1 <0>         0.0884
     44 H15       -10.9695    6.6633    0.9554 H         1 <0>         0.1108
     45 H16       -12.5787    8.4963    1.1642 H         1 <0>         0.1479
     46 H17       -12.6322    7.5040    2.6409 H         1 <0>         0.1434
     47 H18        -9.7080    9.8772    2.2863 H         1 <0>         0.1355
     48 H19       -10.9718   10.3196    1.0929 H         1 <0>         0.1338
     49 H20       -10.5954   12.4291    2.1956 H         1 <0>         0.1162
     50 H21       -10.3542   11.6456    3.7916 H         1 <0>         0.0986
     51 H22       -12.9253   12.2422    2.3237 H         1 <0>         0.1036
     52 H23       -12.6313   12.1188    4.0847 H         1 <0>         0.1053
     53 H24       -13.6116   10.0583    2.2762 H         1 <0>         0.1316
     54 H25       -13.3540    9.9465    4.0405 H         1 <0>         0.1343
     55 N2        -11.6963    9.3999    2.8626 N.4       1 <0>        -0.3963
     56 H26       -11.3046    9.1045    3.7646 H         1 <0>         0.4365
@<TRIPOS>BOND
     1    1    6 ar
     2    1    2 ar
     3    1   30 1
     4    2    3 ar
     5    2   31 1
     6    3    4 ar
     7    3   29 1
     8    4    5 ar
     9    4   32 1
    10    5    6 ar
    11    5   33 1
    12    6    7 1
    13    7    8 1
    14    7   34 1
    15    7   35 1
    16    8    9 1
    17    9   15 2
    18    9   10 1
    19   10   11 2
    20   10   36 1
    21   11   12 1
    22   11   37 1
    23   12   13 am
    24   12   16 1
    25   13   14 2
    26   13   15 1
    27   15   38 1
    28   16   21 ar
    29   16   17 ar
    30   17   18 ar
    31   17   39 1
    32   18   19 ar
    33   18   40 1
    34   19   20 ar
    35   19   22 1
    36   20   21 ar
    37   20   41 1
    38   21   42 1
    39   22   23 1
    40   23   24 1
    41   23   43 1
    42   23   44 1
    43   24   45 1
    44   24   46 1
    45   24   55 1
    46   25   26 1
    47   25   47 1
    48   25   48 1
    49   25   55 1
    50   26   27 1
    51   26   49 1
    52   26   50 1
    53   27   28 1
    54   27   51 1
    55   27   52 1
    56   28   53 1
    57   28   54 1
    58   28   55 1
    59   55   56 1
@<TRIPOS>MOLECULE
ZINC26399714
   23    24     0     0     0
SMALL
USER_CHARGES
8-methoxyquinolin-2-amine
@<TRIPOS>ATOM
      1 C1         -2.3907    1.2500    0.0202 C.3       1 <0>         0.0200
      2 O1         -1.1998    2.0399    0.0188 O.3       1 <0>        -0.2954
      3 C2         -0.0166    1.3719    0.0096 C.ar      1 <0>         0.1349
      4 C3          0.0021   -0.0041    0.0020 C.ar      1 <0>        -0.1973
      5 C4          1.2070   -0.7008   -0.0132 C.ar      1 <0>        -0.1012
      6 C5          2.3978   -0.0396   -0.0210 C.ar      1 <0>        -0.1172
      7 C6          2.4187    1.3638   -0.0137 C.ar      1 <0>        -0.1216
      8 C7          1.2002    2.0838    0.0018 C.ar      1 <0>         0.1671
      9 N1          1.2147    3.4214    0.0083 N.ar      1 <0>        -0.5375
     10 C8          2.3478    4.0924    0.0007 C.ar      1 <0>         0.4236
     11 C9          3.5876    3.4374   -0.0146 C.ar      1 <0>        -0.2084
     12 C10         3.6359    2.0761   -0.0219 C.ar      1 <0>        -0.0300
     13 N2          2.3141    5.4797    0.0084 N.pl3     1 <0>        -0.8692
     14 H1         -3.2695    1.9116    0.0279 H         1 <0>         0.1026
     15 H2         -2.4054    0.6104    0.9150 H         1 <0>         0.0564
     16 H3         -2.4139    0.6200   -0.8813 H         1 <0>         0.0564
     17 H4         -0.9297   -0.5501    0.0083 H         1 <0>         0.1319
     18 H5          1.1975   -1.7808   -0.0193 H         1 <0>         0.1263
     19 H6          3.3244   -0.5942   -0.0325 H         1 <0>         0.1276
     20 H7          4.5026    4.0112   -0.0202 H         1 <0>         0.1344
     21 H8          4.5821    1.5556   -0.0340 H         1 <0>         0.1420
     22 H9          3.2530    6.0527    0.0022 H         1 <0>         0.4283
     23 H10         1.3484    6.0063    0.0207 H         1 <0>         0.4265
@<TRIPOS>BOND
     1    1    2 1
     2    1   14 1
     3    1   15 1
     4    1   16 1
     5    2    3 1
     6    3    8 ar
     7    3    4 ar
     8    4    5 ar
     9    4   17 1
    10    5    6 ar
    11    5   18 1
    12    6    7 ar
    13    6   19 1
    14    7   12 ar
    15    7    8 ar
    16    8    9 ar
    17    9   10 ar
    18   10   11 ar
    19   10   13 1
    20   11   12 ar
    21   11   20 1
    22   12   21 1
    23   13   22 1
    24   13   23 1
