@<TRIPOS>MOLECULE
ZINC00603684
   58    61     0     0     0
SMALL
USER_CHARGES
N-[6-(dimethylaminomethyl)tetralin-2-yl]-4-(4-fluorophenyl)-benzamide
@<TRIPOS>ATOM
      1 C1        -11.7949   -3.6816   -1.1065 C.3       1 <0>        -0.0436
      2 C2        -10.8285   -2.4052   -2.9230 C.3       1 <0>        -0.0463
      3 C3        -10.8862   -1.4768   -0.6875 C.3       1 <0>        -0.0028
      4 C4         -9.5996   -0.6584   -0.8137 C.3       1 <0>        -0.1167
      5 H1         -9.3810   -0.4784   -1.8663 H         1 <0>         0.0987
      6 C5         -9.7655    0.6801   -0.0846 C.3       1 <0>        -0.1094
      7 C6         -8.5699    1.5664   -0.4273 C.3       1 <0>        -0.0818
      8 C7         -7.2783    0.8279   -0.1910 C.ar      1 <0>        -0.0543
      9 C8         -6.1168    1.5796   -0.0793 C.ar      1 <0>        -0.1472
     10 C9         -4.8947    0.9591    0.1255 C.ar      1 <0>         0.1642
     11 C10        -4.8365   -0.4250    0.2304 C.ar      1 <0>        -0.1185
     12 C11        -5.9932   -1.1667    0.1268 C.ar      1 <0>        -0.0944
     13 C12        -7.2180   -0.5437   -0.0815 C.ar      1 <0>        -0.1088
     14 C13        -8.4417   -1.4180   -0.1699 C.3       1 <0>        -0.0808
     15 N1         -3.7276    1.7221    0.2317 N.am      1 <0>        -0.6736
     16 C14        -2.7259    1.3132    1.0354 C.2       1 <0>         0.5645
     17 O1         -2.8720    0.3312    1.7372 O.2       1 <0>        -0.5120
     18 C15        -1.4511    2.0579    1.0636 C.ar      1 <0>        -0.1465
     19 C16        -0.4123    1.6344    1.8967 C.ar      1 <0>        -0.0471
     20 C17         0.7774    2.3263    1.9183 C.ar      1 <0>        -0.1192
     21 C18         0.9445    3.4532    1.1127 C.ar      1 <0>        -0.0035
     22 C19        -0.0939    3.8798    0.2841 C.ar      1 <0>        -0.1196
     23 C20        -1.2844    3.1894    0.2608 C.ar      1 <0>        -0.0783
     24 C21         2.2263    4.1975    1.1368 C.ar      1 <0>        -0.0736
     25 C22         3.2637    3.7767    1.9679 C.ar      1 <0>        -0.0736
     26 C23         4.4560    4.4701    1.9841 C.ar      1 <0>        -0.1512
     27 C24         4.6204    5.5889    1.1830 C.ar      1 <0>         0.1107
     28 C25         3.5903    6.0137    0.3590 C.ar      1 <0>        -0.1519
     29 C26         2.3960    5.3240    0.3329 C.ar      1 <0>        -0.0743
     30 F1          5.7882    6.2677    1.2057 F         1 <0>        -0.1338
     31 H2        -12.7804   -3.2863   -1.3529 H         1 <0>         0.1238
     32 H3        -11.6303   -4.6119   -1.6502 H         1 <0>         0.1224
     33 H4        -11.7374   -3.8720   -0.0348 H         1 <0>         0.1218
     34 H5        -10.0129   -1.7334   -3.1901 H         1 <0>         0.1213
     35 H6        -10.7374   -3.3311   -3.4908 H         1 <0>         0.1226
     36 H7        -11.7816   -1.9295   -3.1542 H         1 <0>         0.1244
     37 H8        -11.0495   -1.7381    0.3580 H         1 <0>         0.1313
     38 H9        -11.7285   -0.8879   -1.0506 H         1 <0>         0.1345
     39 H10        -9.8001    0.5102    0.9916 H         1 <0>         0.0799
     40 H11       -10.6865    1.1642   -0.4095 H         1 <0>         0.0808
     41 H12        -8.5932    2.4590    0.1979 H         1 <0>         0.0869
     42 H13        -8.6292    1.8606   -1.4752 H         1 <0>         0.0824
     43 H14        -6.1652    2.6557   -0.1571 H         1 <0>         0.1288
     44 H15        -3.8890   -0.9174    0.3922 H         1 <0>         0.1395
     45 H16        -5.9475   -2.2426    0.2085 H         1 <0>         0.1256
     46 H17        -8.2118   -2.2985   -0.7698 H         1 <0>         0.0681
     47 H18        -8.7317   -1.7327    0.8326 H         1 <0>         0.0875
     48 H19        -3.6389    2.5456   -0.2731 H         1 <0>         0.4129
     49 H20        -0.5412    0.7620    2.5201 H         1 <0>         0.1414
     50 H21         1.5821    1.9966    2.5588 H         1 <0>         0.1378
     51 H22         0.0368    4.7517   -0.3396 H         1 <0>         0.1363
     52 H23        -2.0880    3.5198   -0.3807 H         1 <0>         0.1276
     53 H24         3.1352    2.9071    2.5953 H         1 <0>         0.1386
     54 H25         5.2613    4.1431    2.6252 H         1 <0>         0.1420
     55 H26         3.7227    6.8863   -0.2634 H         1 <0>         0.1415
     56 H27         1.5936    5.6562   -0.3091 H         1 <0>         0.1376
     57 N2        -10.7406   -2.7156   -1.4805 N.4       1 <0>        -0.4009
     58 H28        -9.8225   -3.1313   -1.2841 H         1 <0>         0.4284
@<TRIPOS>BOND
     1    1   31 1
     2    1   32 1
     3    1   33 1
     4    1   57 1
     5    2   34 1
     6    2   35 1
     7    2   36 1
     8    2   57 1
     9    3    4 1
    10    3   37 1
    11    3   38 1
    12    3   57 1
    13    4    5 1
    14    4   14 1
    15    4    6 1
    16    6    7 1
    17    6   39 1
    18    6   40 1
    19    7    8 1
    20    7   41 1
    21    7   42 1
    22    8   13 ar
    23    8    9 ar
    24    9   10 ar
    25    9   43 1
    26   10   11 ar
    27   10   15 1
    28   11   12 ar
    29   11   44 1
    30   12   13 ar
    31   12   45 1
    32   13   14 1
    33   14   46 1
    34   14   47 1
    35   15   16 am
    36   15   48 1
    37   16   17 2
    38   16   18 1
    39   18   23 ar
    40   18   19 ar
    41   19   20 ar
    42   19   49 1
    43   20   21 ar
    44   20   50 1
    45   21   22 ar
    46   21   24 1
    47   22   23 ar
    48   22   51 1
    49   23   52 1
    50   24   29 ar
    51   24   25 ar
    52   25   26 ar
    53   25   53 1
    54   26   27 ar
    55   26   54 1
    56   27   28 ar
    57   27   30 1
    58   28   29 ar
    59   28   55 1
    60   29   56 1
    61   57   58 1
@<TRIPOS>MOLECULE
ZINC03972273
   58    61     0     0     0
SMALL
USER_CHARGES

@<TRIPOS>ATOM
      1 C1         -1.9664    1.2095    0.6391 C.3       1 <0>        -0.0456
      2 C2          0.4408    1.1351    0.3888 C.3       1 <0>        -0.0438
      3 C3         -0.6282    3.1409    1.2234 C.3       1 <0>        -0.0031
      4 C4         -1.4662    3.6397    2.4023 C.3       1 <0>        -0.1166
      5 H1         -2.4794    3.2451    2.3254 H         1 <0>         0.0985
      6 C5         -1.5063    5.1724    2.3956 C.3       1 <0>        -0.1093
      7 C6         -2.5354    5.6316    3.4264 C.3       1 <0>        -0.0819
      8 C7         -2.2841    4.9709    4.7567 C.ar      1 <0>        -0.0540
      9 C8         -2.8729    5.5365    5.8791 C.ar      1 <0>        -0.1472
     10 C9         -2.6904    4.9692    7.1303 C.ar      1 <0>         0.1644
     11 C10        -1.9113    3.8263    7.2588 C.ar      1 <0>        -0.1183
     12 C11        -1.3262    3.2699    6.1423 C.ar      1 <0>        -0.0943
     13 C12        -1.5084    3.8404    4.8881 C.ar      1 <0>        -0.1089
     14 C13        -0.8335    3.1801    3.7141 C.3       1 <0>        -0.0809
     15 N1         -3.2867    5.5443    8.2570 N.am      1 <0>        -0.6738
     16 C14        -2.6653    5.4869    9.4515 C.2       1 <0>         0.5646
     17 O1         -1.5460    5.0192    9.5327 O.2       1 <0>        -0.5120
     18 C15        -3.3439    5.9922   10.6618 C.ar      1 <0>        -0.1465
     19 C16        -4.6281    6.5351   10.5682 C.ar      1 <0>        -0.0783
     20 C17        -5.2619    7.0005   11.6979 C.ar      1 <0>        -0.1196
     21 C18        -4.6181    6.9409   12.9343 C.ar      1 <0>        -0.0035
     22 C19        -3.3336    6.4043   13.0281 C.ar      1 <0>        -0.1192
     23 C20        -2.7001    5.9330   11.9006 C.ar      1 <0>        -0.0472
     24 C21        -5.2992    7.4486   14.1492 C.ar      1 <0>        -0.0736
     25 C22        -4.6604    7.3854   15.3870 C.ar      1 <0>        -0.0736
     26 C23        -5.2965    7.8626   16.5141 C.ar      1 <0>        -0.1511
     27 C24        -6.5721    8.3957   16.4191 C.ar      1 <0>         0.1106
     28 C25        -7.2128    8.4561   15.1918 C.ar      1 <0>        -0.1519
     29 C26        -6.5828    7.9854   14.0586 C.ar      1 <0>        -0.0743
     30 F1         -7.1932    8.8575   17.5265 F         1 <0>        -0.1339
     31 H2         -1.9770    0.1199    0.6123 H         1 <0>         0.1226
     32 H3         -2.1033    1.5990   -0.3697 H         1 <0>         0.1244
     33 H4         -2.7742    1.5652    1.2786 H         1 <0>         0.1211
     34 H5          0.3070    1.3943   -0.6614 H         1 <0>         0.1240
     35 H6          1.3763    1.5606    0.7518 H         1 <0>         0.1220
     36 H7          0.4698    0.0506    0.4945 H         1 <0>         0.1222
     37 H8          0.4050    3.4647    1.3493 H         1 <0>         0.1315
     38 H9         -1.0267    3.5505    0.2952 H         1 <0>         0.1346
     39 H10        -0.5241    5.5664    2.6565 H         1 <0>         0.0799
     40 H11        -1.7940    5.5278    1.4061 H         1 <0>         0.0808
     41 H12        -3.5345    5.3698    3.0781 H         1 <0>         0.0825
     42 H13        -2.4678    6.7132    3.5438 H         1 <0>         0.0870
     43 H14        -3.4776    6.4255    5.7767 H         1 <0>         0.1289
     44 H15        -1.7645    3.3761    8.2295 H         1 <0>         0.1390
     45 H16        -0.7203    2.3814    6.2426 H         1 <0>         0.1256
     46 H17        -0.9353    2.0985    3.8027 H         1 <0>         0.0680
     47 H18         0.2245    3.4425    3.7142 H         1 <0>         0.0876
     48 H19        -4.1476    5.9844    8.1787 H         1 <0>         0.4129
     49 H20        -5.1248    6.5854    9.6105 H         1 <0>         0.1276
     50 H21        -6.2561    7.4164   11.6265 H         1 <0>         0.1363
     51 H22        -2.8364    6.3583   13.9857 H         1 <0>         0.1378
     52 H23        -1.7057    5.5180   11.9733 H         1 <0>         0.1414
     53 H24        -3.6678    6.9667   15.4626 H         1 <0>         0.1386
     54 H25        -4.8013    7.8169   17.4728 H         1 <0>         0.1420
     55 H26        -8.2071    8.8720   15.1226 H         1 <0>         0.1415
     56 H27        -7.0832    8.0322   13.1027 H         1 <0>         0.1376
     57 N2         -0.6763    1.6639    1.1995 N.4       1 <0>        -0.4012
     58 H28        -0.5874    1.3117    2.1598 H         1 <0>         0.4282
@<TRIPOS>BOND
     1    1   31 1
     2    1   32 1
     3    1   33 1
     4    1   57 1
     5    2   34 1
     6    2   35 1
     7    2   36 1
     8    2   57 1
     9    3    4 1
    10    3   37 1
    11    3   38 1
    12    3   57 1
    13    4    5 1
    14    4   14 1
    15    4    6 1
    16    6    7 1
    17    6   39 1
    18    6   40 1
    19    7    8 1
    20    7   41 1
    21    7   42 1
    22    8   13 ar
    23    8    9 ar
    24    9   10 ar
    25    9   43 1
    26   10   11 ar
    27   10   15 1
    28   11   12 ar
    29   11   44 1
    30   12   13 ar
    31   12   45 1
    32   13   14 1
    33   14   46 1
    34   14   47 1
    35   15   16 am
    36   15   48 1
    37   16   17 2
    38   16   18 1
    39   18   23 ar
    40   18   19 ar
    41   19   20 ar
    42   19   49 1
    43   20   21 ar
    44   20   50 1
    45   21   22 ar
    46   21   24 1
    47   22   23 ar
    48   22   51 1
    49   23   52 1
    50   24   29 ar
    51   24   25 ar
    52   25   26 ar
    53   25   53 1
    54   26   27 ar
    55   26   54 1
    56   27   28 ar
    57   27   30 1
    58   28   29 ar
    59   28   55 1
    60   29   56 1
    61   57   58 1
