@<TRIPOS>MOLECULE
ZINC29464717
   76    79     0     0     0
SMALL
USER_CHARGES
N-[4-(2-tert-butylphenyl)sulfonylphenyl]-2,3,4-trihydroxy-5-[(2-isopropylphenyl)methyl]benzamide
@<TRIPOS>ATOM
      1 C1         -1.0845   12.3592   -3.9933 C.3       1 <0>        -0.1475
      2 C2          0.2256   12.3787   -4.7834 C.3       1 <0>        -0.0654
      3 C3          0.0622   11.5549   -6.0623 C.3       1 <0>        -0.1471
      4 C4          0.5745   13.8001   -5.1425 C.ar      1 <0>        -0.0690
      5 C5         -0.3164   14.5681   -5.8690 C.ar      1 <0>        -0.1162
      6 C6          0.0035   15.8719   -6.1980 C.ar      1 <0>        -0.1199
      7 C7          1.2143   16.4080   -5.8007 C.ar      1 <0>        -0.1275
      8 C8          2.1033   15.6414   -5.0711 C.ar      1 <0>        -0.1002
      9 C9          1.7854   14.3357   -4.7461 C.ar      1 <0>        -0.0769
     10 C10         2.7565   13.4985   -3.9542 C.3       1 <0>        -0.0299
     11 C11         2.3914   13.5526   -2.4931 C.ar      1 <0>        -0.1250
     12 C12         1.7485   12.4857   -1.9075 C.ar      1 <0>        -0.0385
     13 C13         1.4036   12.5340   -0.5530 C.ar      1 <0>        -0.1933
     14 C14         1.7247   13.6681    0.2071 C.ar      1 <0>         0.2326
     15 C15         2.3776   14.7358   -0.3923 C.ar      1 <0>        -0.0458
     16 C16         2.7104   14.6776   -1.7411 C.ar      1 <0>         0.1514
     17 O1          3.3499   15.7234   -2.3259 O.3       1 <0>        -0.4805
     18 O2          2.6926   15.8391    0.3398 O.3       1 <0>        -0.5028
     19 O3          1.3985   13.7209    1.5240 O.3       1 <0>        -0.4668
     20 C17         0.7111   11.3955    0.0744 C.2       1 <0>         0.5713
     21 O4          0.4166   11.4377    1.2537 O.2       1 <0>        -0.4934
     22 N1          0.4037   10.3069   -0.6584 N.am      1 <0>        -0.6902
     23 C18        -0.3605    9.2789   -0.0968 C.ar      1 <0>         0.2217
     24 C19        -0.1324    7.9600   -0.4675 C.ar      1 <0>        -0.1686
     25 C20        -0.8884    6.9472    0.0892 C.ar      1 <0>        -0.0081
     26 C21        -1.8717    7.2451    1.0149 C.ar      1 <0>        -0.6774
     27 C22        -2.1051    8.5578    1.3819 C.ar      1 <0>         0.0014
     28 C23        -1.3488    9.5747    0.8331 C.ar      1 <0>        -0.1437
     29 S1         -2.8340    5.9500    1.7228 S.o2      1 <0>         2.5394
     30 O5         -2.5157    4.7672    1.0024 O.2       1 <0>        -0.8798
     31 O6         -4.1625    6.4428    1.8292 O.2       1 <0>        -0.9337
     32 C24        -2.2529    5.7090    3.3686 C.ar      1 <0>        -0.6474
     33 C25        -2.5602    6.6308    4.3522 C.ar      1 <0>        -0.0180
     34 C26        -2.0996    6.4448    5.6419 C.ar      1 <0>        -0.1457
     35 C27        -1.3358    5.3341    5.9497 C.ar      1 <0>        -0.0570
     36 C28        -1.0330    4.4099    4.9677 C.ar      1 <0>        -0.1452
     37 C29        -1.4938    4.5961    3.6775 C.ar      1 <0>         0.0393
     38 C30        -1.1632    3.5886    2.6067 C.3       1 <0>        -0.0357
     39 C31        -0.1931    2.5472    3.1681 C.3       1 <0>        -0.1451
     40 C32        -0.5145    4.3015    1.4185 C.3       1 <0>        -0.2301
     41 C33        -2.4464    2.8942    2.1462 C.3       1 <0>        -0.1722
     42 H1         -0.9670   12.9515   -3.0738 H         1 <0>         0.0560
     43 H2         -1.3391   11.3217   -3.7311 H         1 <0>         0.0589
     44 H3         -1.8892   12.7904   -4.6069 H         1 <0>         0.0586
     45 H4          1.0381   11.9610   -4.1708 H         1 <0>         0.0807
     46 H5          1.0041   11.5689   -6.6303 H         1 <0>         0.0567
     47 H6         -0.7425   11.9861   -6.6759 H         1 <0>         0.0579
     48 H7         -0.1925   10.5174   -5.8001 H         1 <0>         0.0598
     49 H8         -1.2624   14.1495   -6.1791 H         1 <0>         0.1195
     50 H9         -0.6926   16.4720   -6.7652 H         1 <0>         0.1189
     51 H10         1.4641   17.4269   -6.0574 H         1 <0>         0.1186
     52 H11         3.0476   16.0613   -4.7574 H         1 <0>         0.1242
     53 H12         2.7131   12.4567   -4.3046 H         1 <0>         0.0845
     54 H13         3.7753   13.8896   -4.0922 H         1 <0>         0.0858
     55 H14         1.5070   11.6124   -2.4952 H         1 <0>         0.1369
     56 H15         3.6032   16.6145   -1.7327 H         1 <0>         0.4178
     57 H16         3.2102   16.6853   -0.1357 H         1 <0>         0.4231
     58 H17         1.6514   14.6115    2.1180 H         1 <0>         0.4388
     59 H18         0.7538   10.2270   -1.6981 H         1 <0>         0.4333
     60 H19         0.6356    7.7266   -1.1901 H         1 <0>         0.1387
     61 H20        -0.7113    5.9214   -0.1983 H         1 <0>         0.1587
     62 H21        -2.8770    8.7875    2.1015 H         1 <0>         0.1389
     63 H22        -1.5284   10.5993    1.1237 H         1 <0>         0.1450
     64 H23        -3.1565    7.4986    4.1117 H         1 <0>         0.1359
     65 H24        -2.3359    7.1671    6.4092 H         1 <0>         0.1338
     66 H25        -0.9756    5.1889    6.9575 H         1 <0>         0.1316
     67 H26        -0.4361    3.5425    5.2081 H         1 <0>         0.1378
     68 H27         0.0481    1.8119    2.3864 H         1 <0>         0.0633
     69 H28        -0.6595    2.0346    4.0224 H         1 <0>         0.0575
     70 H29         0.7295    3.0464    3.4992 H         1 <0>         0.0565
     71 H30        -0.2732    3.5661    0.6369 H         1 <0>         0.0656
     72 H31         0.4080    4.8008    1.7496 H         1 <0>         0.0312
     73 H32        -1.2120    5.0502    1.0148 H         1 <0>         0.1449
     74 H33        -2.2051    2.1588    1.3646 H         1 <0>         0.0629
     75 H34        -3.1438    3.6429    1.7425 H         1 <0>         0.1182
     76 H35        -2.9128    2.3817    3.0005 H         1 <0>         0.0361
@<TRIPOS>BOND
     1    1    2 1
     2    1   42 1
     3    1   43 1
     4    1   44 1
     5    2    3 1
     6    2    4 1
     7    2   45 1
     8    3   46 1
     9    3   47 1
    10    3   48 1
    11    4    9 ar
    12    4    5 ar
    13    5    6 ar
    14    5   49 1
    15    6    7 ar
    16    6   50 1
    17    7    8 ar
    18    7   51 1
    19    8    9 ar
    20    8   52 1
    21    9   10 1
    22   10   11 1
    23   10   53 1
    24   10   54 1
    25   11   16 ar
    26   11   12 ar
    27   12   13 ar
    28   12   55 1
    29   13   14 ar
    30   13   20 1
    31   14   15 ar
    32   14   19 1
    33   15   16 ar
    34   15   18 1
    35   16   17 1
    36   17   56 1
    37   18   57 1
    38   19   58 1
    39   20   21 2
    40   20   22 am
    41   22   23 1
    42   22   59 1
    43   23   28 ar
    44   23   24 ar
    45   24   25 ar
    46   24   60 1
    47   25   26 ar
    48   25   61 1
    49   26   27 ar
    50   26   29 1
    51   27   28 ar
    52   27   62 1
    53   28   63 1
    54   29   30 2
    55   29   31 2
    56   29   32 1
    57   32   37 ar
    58   32   33 ar
    59   33   34 ar
    60   33   64 1
    61   34   35 ar
    62   34   65 1
    63   35   36 ar
    64   35   66 1
    65   36   37 ar
    66   36   67 1
    67   37   38 1
    68   38   39 1
    69   38   40 1
    70   38   41 1
    71   39   68 1
    72   39   69 1
    73   39   70 1
    74   40   71 1
    75   40   72 1
    76   40   73 1
    77   41   74 1
    78   41   75 1
    79   41   76 1
@<TRIPOS>MOLECULE
ZINC29136330
   50    54     0     0     0
SMALL
USER_CHARGES
[5-(1,3-benzothiazole-2-carbonyl)-2,3,4-trihydroxy-phenyl]-(4-phenoxyphenyl)methanone
@<TRIPOS>ATOM
      1 C1          9.5554    2.7061   -6.6425 C.ar      1 <0>        -0.1624
      2 C2         10.5199    3.6673   -6.8825 C.ar      1 <0>        -0.0880
      3 C3         10.5933    4.7892   -6.0800 C.ar      1 <0>        -0.1529
      4 C4          9.6984    4.9509   -5.0319 C.ar      1 <0>         0.1305
      5 C5          8.7354    3.9817   -4.7894 C.ar      1 <0>        -0.1912
      6 C6          8.6627    2.8644   -5.5985 C.ar      1 <0>        -0.0816
      7 O1          9.7685    6.0536   -4.2410 O.3       1 <0>        -0.2567
      8 C7          8.9470    6.1175   -3.1629 C.ar      1 <0>         0.0834
      9 C8          9.2273    5.3589   -2.0318 C.ar      1 <0>        -0.1537
     10 C9          8.3969    5.4215   -0.9356 C.ar      1 <0>        -0.0637
     11 C10         7.2703    6.2491   -0.9608 C.ar      1 <0>        -0.1186
     12 C11         6.9890    7.0058   -2.1023 C.ar      1 <0>        -0.0263
     13 C12         7.8276    6.9418   -3.1921 C.ar      1 <0>        -0.1354
     14 C13         6.3772    6.3189    0.2118 C.2       1 <0>         0.4906
     15 O2          6.5658    5.5864    1.1645 O.2       1 <0>        -0.4867
     16 C14         5.2571    7.2759    0.2287 C.ar      1 <0>        -0.3363
     17 C15         3.9474    6.8188    0.0973 C.ar      1 <0>         0.0065
     18 C16         2.8904    7.7277    0.1089 C.ar      1 <0>        -0.3510
     19 C17         3.1483    9.1027    0.2640 C.ar      1 <0>         0.3360
     20 C18         4.4536    9.5539    0.4004 C.ar      1 <0>        -0.1721
     21 C19         5.5086    8.6512    0.3839 C.ar      1 <0>         0.2714
     22 O3          6.7823    9.0958    0.5179 O.3       1 <0>        -0.7488
     23 O4          4.7001   10.8840    0.5512 O.3       1 <0>        -0.5081
     24 O5          2.1207    9.9870    0.2807 O.3       1 <0>        -0.6918
     25 C20         1.5054    7.2493   -0.0348 C.2       1 <0>         0.4595
     26 O6          0.5951    8.0477   -0.1506 O.2       1 <0>        -0.4254
     27 C21         1.2213    5.7997   -0.0382 C.2       1 <0>         0.1576
     28 N1          0.0581    5.1861   -0.0591 N.2       1 <0>        -0.4883
     29 C22        -0.0582    3.8548   -0.0603 C.ar      1 <0>         0.0818
     30 C23        -1.2451    3.0781   -0.0811 C.ar      1 <0>        -0.0649
     31 C24        -1.1882    1.7217   -0.0849 C.ar      1 <0>        -0.1239
     32 C25         0.0228    1.0399   -0.0569 C.ar      1 <0>        -0.1142
     33 C26         1.2035    1.7555   -0.0357 C.ar      1 <0>        -0.0632
     34 C27         1.1608    3.1297   -0.0375 C.ar      1 <0>        -0.1875
     35 S1          2.3706    4.4304   -0.0162 S.3       1 <0>         0.0406
     36 H1          9.4994    1.8298   -7.2714 H         1 <0>         0.1199
     37 H2         11.2162    3.5411   -7.6984 H         1 <0>         0.1255
     38 H3         11.3469    5.5398   -6.2678 H         1 <0>         0.1294
     39 H4          8.0405    4.1030   -3.9716 H         1 <0>         0.1340
     40 H5          7.9105    2.1120   -5.4130 H         1 <0>         0.1241
     41 H6         10.0978    4.7199   -2.0131 H         1 <0>         0.1252
     42 H7          8.6157    4.8325   -0.0571 H         1 <0>         0.1345
     43 H8          6.1172    7.6429   -2.1274 H         1 <0>         0.1483
     44 H9          7.6136    7.5297   -4.0725 H         1 <0>         0.1316
     45 H10         3.7518    5.7628   -0.0175 H         1 <0>         0.0802
     46 H11         5.7343   11.2429    0.6594 H         1 <0>         0.3761
     47 H12        -2.2055    3.5719   -0.0990 H         1 <0>         0.1266
     48 H13        -2.1087    1.1572   -0.1055 H         1 <0>         0.1239
     49 H14         0.0401   -0.0400   -0.0562 H         1 <0>         0.1284
     50 H15         2.1525    1.2401   -0.0183 H         1 <0>         0.1273
@<TRIPOS>BOND
     1    1    6 ar
     2    1    2 ar
     3    1   36 1
     4    2    3 ar
     5    2   37 1
     6    3    4 ar
     7    3   38 1
     8    4    5 ar
     9    4    7 1
    10    5    6 ar
    11    5   39 1
    12    6   40 1
    13    7    8 1
    14    8   13 ar
    15    8    9 ar
    16    9   10 ar
    17    9   41 1
    18   10   11 ar
    19   10   42 1
    20   11   12 ar
    21   11   14 1
    22   12   13 ar
    23   12   43 1
    24   13   44 1
    25   14   15 2
    26   14   16 1
    27   16   21 ar
    28   16   17 ar
    29   17   18 ar
    30   17   45 1
    31   18   19 ar
    32   18   25 1
    33   19   20 ar
    34   19   24 1
    35   20   21 ar
    36   20   23 1
    37   21   22 1
    38   23   46 1
    39   25   26 2
    40   25   27 1
    41   27   35 1
    42   27   28 2
    43   28   29 1
    44   29   34 ar
    45   29   30 ar
    46   30   31 ar
    47   30   47 1
    48   31   32 ar
    49   31   48 1
    50   32   33 ar
    51   32   49 1
    52   33   34 ar
    53   33   50 1
    54   34   35 1
@<TRIPOS>MOLECULE
ZINC29136330
   51    55     0     0     0
SMALL
USER_CHARGES
[5-(1,3-benzothiazole-2-carbonyl)-2,3,4-trihydroxy-phenyl]-(4-phenoxyphenyl)methanone
@<TRIPOS>ATOM
      1 C1          9.5554    2.7061   -6.6425 C.ar      1 <0>        -0.1571
      2 C2         10.5199    3.6673   -6.8825 C.ar      1 <0>        -0.0854
      3 C3         10.5933    4.7892   -6.0800 C.ar      1 <0>        -0.1488
      4 C4          9.6984    4.9509   -5.0319 C.ar      1 <0>         0.1258
      5 C5          8.7354    3.9817   -4.7894 C.ar      1 <0>        -0.1926
      6 C6          8.6627    2.8644   -5.5985 C.ar      1 <0>        -0.0817
      7 O1          9.7685    6.0536   -4.2410 O.3       1 <0>        -0.2581
      8 C7          8.9470    6.1175   -3.1629 C.ar      1 <0>         0.0992
      9 C8          9.2273    5.3589   -2.0318 C.ar      1 <0>        -0.1501
     10 C9          8.3969    5.4215   -0.9356 C.ar      1 <0>        -0.0549
     11 C10         7.2703    6.2491   -0.9608 C.ar      1 <0>        -0.1336
     12 C11         6.9890    7.0058   -2.1023 C.ar      1 <0>        -0.0335
     13 C12         7.8276    6.9418   -3.1921 C.ar      1 <0>        -0.1358
     14 C13         6.3772    6.3189    0.2118 C.2       1 <0>         0.4830
     15 O2          6.5658    5.5864    1.1645 O.2       1 <0>        -0.4643
     16 C14         5.2571    7.2759    0.2287 C.ar      1 <0>        -0.3094
     17 C15         3.9474    6.8188    0.0973 C.ar      1 <0>         0.0235
     18 C16         2.8904    7.7277    0.1089 C.ar      1 <0>        -0.2934
     19 C17         3.1483    9.1027    0.2640 C.ar      1 <0>         0.2327
     20 C18         4.4536    9.5539    0.4004 C.ar      1 <0>        -0.0978
     21 C19         5.5086    8.6512    0.3839 C.ar      1 <0>         0.3016
     22 O3          6.7823    9.0958    0.5179 O.3       1 <0>        -0.6770
     23 O4          4.7001   10.8840    0.5512 O.3       1 <0>        -0.5261
     24 O5          2.1207    9.9870    0.2807 O.3       1 <0>        -0.4858
     25 C20         1.5054    7.2493   -0.0348 C.2       1 <0>         0.4853
     26 O6          0.5951    8.0477   -0.1506 O.2       1 <0>        -0.4194
     27 C21         1.2213    5.7997   -0.0382 C.2       1 <0>         0.1131
     28 N1          0.0581    5.1861   -0.0591 N.2       1 <0>        -0.4569
     29 C22        -0.0582    3.8548   -0.0603 C.ar      1 <0>         0.0679
     30 C23        -1.2451    3.0781   -0.0811 C.ar      1 <0>        -0.0521
     31 C24        -1.1882    1.7217   -0.0849 C.ar      1 <0>        -0.1214
     32 C25         0.0228    1.0399   -0.0569 C.ar      1 <0>        -0.0917
     33 C26         1.2035    1.7555   -0.0357 C.ar      1 <0>        -0.0701
     34 C27         1.1608    3.1297   -0.0375 C.ar      1 <0>        -0.1620
     35 S1          2.3706    4.4304   -0.0162 S.3       1 <0>         0.0434
     36 H1          9.4994    1.8298   -7.2714 H         1 <0>         0.1228
     37 H2         11.2162    3.5411   -7.6984 H         1 <0>         0.1287
     38 H3         11.3469    5.5398   -6.2678 H         1 <0>         0.1312
     39 H4          8.0405    4.1030   -3.9716 H         1 <0>         0.1313
     40 H5          7.9105    2.1120   -5.4130 H         1 <0>         0.1252
     41 H6         10.0978    4.7199   -2.0131 H         1 <0>         0.1313
     42 H7          8.6157    4.8325   -0.0571 H         1 <0>         0.1383
     43 H8          6.1172    7.6429   -2.1274 H         1 <0>         0.1409
     44 H9          7.6136    7.5297   -4.0725 H         1 <0>         0.1346
     45 H10         3.7518    5.7628   -0.0175 H         1 <0>         0.1090
     46 H11         5.7343   11.2429    0.6594 H         1 <0>         0.4296
     47 H12        -2.2055    3.5719   -0.0990 H         1 <0>         0.1323
     48 H13        -2.1087    1.1572   -0.1055 H         1 <0>         0.1318
     49 H14         0.0401   -0.0400   -0.0562 H         1 <0>         0.1365
     50 H15         2.1525    1.2401   -0.0183 H         1 <0>         0.1337
     51 H16         2.3218   11.0617    0.4019 H         1 <0>         0.4263
@<TRIPOS>BOND
     1    1    6 ar
     2    1    2 ar
     3    1   36 1
     4    2    3 ar
     5    2   37 1
     6    3    4 ar
     7    3   38 1
     8    4    5 ar
     9    4    7 1
    10    5    6 ar
    11    5   39 1
    12    6   40 1
    13    7    8 1
    14    8   13 ar
    15    8    9 ar
    16    9   10 ar
    17    9   41 1
    18   10   11 ar
    19   10   42 1
    20   11   12 ar
    21   11   14 1
    22   12   13 ar
    23   12   43 1
    24   13   44 1
    25   14   15 2
    26   14   16 1
    27   16   21 ar
    28   16   17 ar
    29   17   18 ar
    30   17   45 1
    31   18   19 ar
    32   18   25 1
    33   19   20 ar
    34   19   24 1
    35   20   21 ar
    36   20   23 1
    37   21   22 1
    38   23   46 1
    39   24   51 1
    40   25   26 2
    41   25   27 1
    42   27   35 1
    43   27   28 2
    44   28   29 1
    45   29   34 ar
    46   29   30 ar
    47   30   31 ar
    48   30   47 1
    49   31   32 ar
    50   31   48 1
    51   32   33 ar
    52   32   49 1
    53   33   34 ar
    54   33   50 1
    55   34   35 1
@<TRIPOS>MOLECULE
ZINC29136330
   51    55     0     0     0
SMALL
USER_CHARGES

@<TRIPOS>ATOM
      1 C1         -2.8631   -7.6070    5.1623 C.ar      1 <0>        -0.1555
      2 C2         -2.1327   -7.7705    3.9997 C.ar      1 <0>        -0.0810
      3 C3         -0.9553   -7.0712    3.8182 C.ar      1 <0>        -0.1932
      4 C4         -0.5061   -6.2037    4.8036 C.ar      1 <0>         0.1241
      5 C5         -1.2412   -6.0411    5.9691 C.ar      1 <0>        -0.1479
      6 C6         -2.4177   -6.7431    6.1458 C.ar      1 <0>        -0.0853
      7 O1          0.6520   -5.5150    4.6277 O.3       1 <0>        -0.2597
      8 C7          1.3831   -5.7720    3.5138 C.ar      1 <0>         0.1035
      9 C8          0.9878   -5.2465    2.2886 C.ar      1 <0>        -0.1510
     10 C9          1.7270   -5.5044    1.1562 C.ar      1 <0>        -0.0544
     11 C10         2.8765   -6.2960    1.2394 C.ar      1 <0>        -0.1442
     12 C11         3.2704   -6.8224    2.4733 C.ar      1 <0>        -0.0349
     13 C12         2.5286   -6.5553    3.6018 C.ar      1 <0>        -0.1352
     14 C13         3.6716   -6.5754    0.0281 C.2       1 <0>         0.4759
     15 O2          3.3866   -6.0361   -1.0244 O.2       1 <0>        -0.4603
     16 C14         4.8105   -7.5077    0.0934 C.ar      1 <0>        -0.3221
     17 C15         6.1145   -7.0167    0.0903 C.ar      1 <0>         0.0344
     18 C16         7.1899   -7.9019    0.1521 C.ar      1 <0>        -0.3089
     19 C17         6.9553   -9.2882    0.2174 C.ar      1 <0>         0.3176
     20 C18         5.6553   -9.7738    0.2198 C.ar      1 <0>        -0.0607
     21 C19         4.5824   -8.8940    0.1646 C.ar      1 <0>         0.1779
     22 O3          3.3137   -9.3718    0.1733 O.3       1 <0>        -0.4995
     23 O4          5.4313  -11.1149    0.2822 O.3       1 <0>        -0.4785
     24 O5          8.0004  -10.1499    0.2775 O.3       1 <0>        -0.6300
     25 C20         8.5693   -7.3872    0.1486 C.2       1 <0>         0.4763
     26 O6          9.5068   -8.1606    0.1021 O.2       1 <0>        -0.4148
     27 C21         8.8146   -5.9315    0.2015 C.2       1 <0>         0.1272
     28 N1          7.9498   -4.9535    0.3615 N.2       1 <0>        -0.4680
     29 C22         8.3094   -3.6667    0.3910 C.ar      1 <0>         0.0739
     30 C23         7.4798   -2.5279    0.5554 C.ar      1 <0>        -0.0526
     31 C24         8.0089   -1.2776    0.5619 C.ar      1 <0>        -0.1180
     32 C25         9.3731   -1.0594    0.4093 C.ar      1 <0>        -0.0936
     33 C26        10.2185   -2.1390    0.2463 C.ar      1 <0>        -0.0696
     34 C27         9.6962   -3.4108    0.2378 C.ar      1 <0>        -0.1473
     35 S1         10.3639   -5.0487    0.0722 S.3       1 <0>         0.0297
     36 H1         -3.7855   -8.1515    5.3005 H         1 <0>         0.1235
     37 H2         -2.4828   -8.4458    3.2331 H         1 <0>         0.1260
     38 H3         -0.3848   -7.1999    2.9102 H         1 <0>         0.1322
     39 H4         -0.8936   -5.3668    6.7378 H         1 <0>         0.1313
     40 H5         -2.9901   -6.6171    7.0530 H         1 <0>         0.1293
     41 H6          0.0996   -4.6355    2.2251 H         1 <0>         0.1323
     42 H7          1.4192   -5.0962    0.2049 H         1 <0>         0.1385
     43 H8          4.1577   -7.4343    2.5418 H         1 <0>         0.1444
     44 H9          2.8346   -6.9578    4.5561 H         1 <0>         0.1356
     45 H10         6.2919   -5.9526    0.0397 H         1 <0>         0.1464
     46 H11         5.3520  -11.4590    1.1824 H         1 <0>         0.3638
     47 H12         6.4144   -2.6570    0.6766 H         1 <0>         0.1340
     48 H13         7.3520   -0.4297    0.6887 H         1 <0>         0.1325
     49 H14         9.7684   -0.0544    0.4177 H         1 <0>         0.1367
     50 H15        11.2808   -1.9857    0.1261 H         1 <0>         0.1328
     51 H16         2.9574   -9.5578   -0.7062 H         1 <0>         0.3863
@<TRIPOS>BOND
     1    1    6 ar
     2    1    2 ar
     3    1   36 1
     4    2    3 ar
     5    2   37 1
     6    3    4 ar
     7    3   38 1
     8    4    5 ar
     9    4    7 1
    10    5    6 ar
    11    5   39 1
    12    6   40 1
    13    7    8 1
    14    8   13 ar
    15    8    9 ar
    16    9   10 ar
    17    9   41 1
    18   10   11 ar
    19   10   42 1
    20   11   12 ar
    21   11   14 1
    22   12   13 ar
    23   12   43 1
    24   13   44 1
    25   14   15 2
    26   14   16 1
    27   16   21 ar
    28   16   17 ar
    29   17   18 ar
    30   17   45 1
    31   18   19 ar
    32   18   25 1
    33   19   20 ar
    34   19   24 1
    35   20   21 ar
    36   20   23 1
    37   21   22 1
    38   22   51 1
    39   23   46 1
    40   25   26 2
    41   25   27 1
    42   27   35 1
    43   27   28 2
    44   28   29 1
    45   29   34 ar
    46   29   30 ar
    47   30   31 ar
    48   30   47 1
    49   31   32 ar
    50   31   48 1
    51   32   33 ar
    52   32   49 1
    53   33   34 ar
    54   33   50 1
    55   34   35 1
@<TRIPOS>MOLECULE
ZINC29052268
   43    46     0     0     0
SMALL
USER_CHARGES

@<TRIPOS>ATOM
      1 C1         -0.0184    1.5028    0.0103 C.3       1 <0>        -0.0972
      2 C2          0.0021   -0.0041    0.0020 C.2       1 <0>        -0.0653
      3 C3          0.0087   -0.8265   -1.1226 C.2       1 <0>        -0.2156
      4 C4          0.0279   -2.1174   -0.6993 C.2       1 <0>         0.0903
      5 N1          0.0337   -2.1385    0.6557 N.pl3     1 <0>        -0.5138
      6 H1          0.0467   -2.9348    1.2095 H         1 <0>         0.4355
      7 C5          0.0240   -0.8374    1.1158 C.2       1 <0>        -0.0281
      8 C6          0.0316   -0.4302    2.4589 C.2       1 <0>         0.1296
      9 C7          0.0541   -1.3832    3.4759 C.2       1 <0>        -0.0294
     10 C8          0.0587   -1.1175    4.9176 C.2       1 <0>         0.1213
     11 C9          0.0833   -2.3422    5.5222 C.2       1 <0>        -0.3147
     12 C10         0.0933   -3.3133    4.5018 C.2       1 <0>         0.2035
     13 N2          0.0700   -2.7222    3.3181 N.2       1 <0>        -0.4898
     14 C11         0.1194   -4.7715    4.7201 C.2       1 <0>         0.1361
     15 C12         0.1351   -5.7116    3.7386 C.2       1 <0>        -0.1509
     16 C13         0.1589   -7.0149    4.3981 C.ar      1 <0>        -0.1138
     17 C14         0.1811   -8.3342    3.9342 C.ar      1 <0>        -0.0664
     18 C15         0.1997   -9.3669    4.8277 C.ar      1 <0>        -0.1478
     19 C16         0.1967   -9.1180    6.1938 C.ar      1 <0>        -0.0936
     20 C17         0.1749   -7.8264    6.6735 C.ar      1 <0>        -0.1325
     21 C18         0.1558   -6.7580    5.7829 C.ar      1 <0>         0.1092
     22 N3          0.1377   -5.3907    5.9497 N.pl3     1 <0>        -0.5863
     23 H2          0.1353   -4.9330    6.8050 H         1 <0>         0.4152
     24 O1          0.0423    0.0969    5.5270 O.3       1 <0>        -0.2966
     25 C19         0.0511    0.1059    6.9560 C.3       1 <0>         0.0292
     26 C20         0.0408   -3.3307   -1.5930 C.3       1 <0>        -0.0999
     27 H3          1.0042    1.8801    0.0026 H         1 <0>         0.0764
     28 H4         -0.5455    1.8639   -0.8728 H         1 <0>         0.0750
     29 H5         -0.5286    1.8543    0.9071 H         1 <0>         0.0679
     30 H6          0.0001   -0.4958   -2.1507 H         1 <0>         0.1477
     31 H7          0.0200    0.6214    2.7044 H         1 <0>         0.1629
     32 H8          0.0937   -2.5310    6.5855 H         1 <0>         0.1360
     33 H9          0.1304   -5.5297    2.6740 H         1 <0>         0.1492
     34 H10         0.1833   -8.5355    2.8731 H         1 <0>         0.1233
     35 H11         0.2165  -10.3854    4.4689 H         1 <0>         0.1236
     36 H12         0.2111   -9.9454    6.8877 H         1 <0>         0.1262
     37 H13         0.1724   -7.6441    7.7380 H         1 <0>         0.1206
     38 H14         0.9517   -0.3908    7.3169 H         1 <0>         0.0569
     39 H15         0.0362    1.1357    7.3129 H         1 <0>         0.1041
     40 H16        -0.8280   -0.4204    7.3280 H         1 <0>         0.0569
     41 H17         1.0715   -3.6096   -1.8122 H         1 <0>         0.0832
     42 H18        -0.4602   -4.1578   -1.0899 H         1 <0>         0.0725
     43 H19        -0.4796   -3.1024   -2.5231 H         1 <0>         0.0892
@<TRIPOS>BOND
     1    1    2 1
     2    1   27 1
     3    1   28 1
     4    1   29 1
     5    2    7 2
     6    2    3 1
     7    3    4 2
     8    3   30 1
     9    4    5 1
    10    4   26 1
    11    5    6 1
    12    5    7 1
    13    7    8 1
    14    8    9 2
    15    8   31 1
    16    9   13 1
    17    9   10 1
    18   10   11 2
    19   10   24 1
    20   11   12 1
    21   11   32 1
    22   12   13 2
    23   12   14 1
    24   14   22 1
    25   14   15 2
    26   15   16 1
    27   15   33 1
    28   16   21 ar
    29   16   17 ar
    30   17   18 ar
    31   17   34 1
    32   18   19 ar
    33   18   35 1
    34   19   20 ar
    35   19   36 1
    36   20   21 ar
    37   20   37 1
    38   21   22 1
    39   22   23 1
    40   24   25 1
    41   25   38 1
    42   25   39 1
    43   25   40 1
    44   26   41 1
    45   26   42 1
    46   26   43 1
@<TRIPOS>MOLECULE
ZINC03775575
   68    71     0     0     0
SMALL
NO_CHARGES

@<TRIPOS>ATOM
      1 C1         -0.1332    0.9866   -0.0935 C.3       1 <0>        -0.1195
      2 C2         -0.1527   -0.5035    0.1302 C.ar      1 <0>        -0.0470
      3 C3         -0.2460   -1.3404   -0.9367 C.ar      1 <0>        -0.1024
      4 C4         -0.2657   -2.7335   -0.7415 C.ar      1 <0>        -0.0347
      5 C5         -0.1872   -3.2551    0.5719 C.ar      1 <0>        -0.0297
      6 C6         -0.2086   -4.7079    0.7624 C.ar      1 <0>        -0.2039
      7 C7         -0.3063   -5.5287   -0.3656 C.ar      1 <0>         0.1689
      8 C8         -0.3813   -4.9639   -1.6442 C.ar      1 <0>         0.0750
      9 C9         -0.3627   -3.6149   -1.8332 C.ar      1 <0>        -0.0411
     10 C10        -0.4467   -3.0593   -3.2316 C.3       1 <0>        -0.0595
     11 C11         0.7028   -3.6182   -4.0724 C.3       1 <0>        -0.1516
     12 C12        -1.7818   -3.4621   -3.8610 C.3       1 <0>        -0.1487
     13 O1         -0.4752   -5.7829   -2.7254 O.3       1 <0>        -0.4766
     14 O2         -0.3279   -6.8761   -0.2203 O.3       1 <0>        -0.4682
     15 C13        -0.1292   -5.2865    2.1020 C.2       1 <0>         0.3607
     16 O3         -0.2442   -6.4855    2.2531 O.2       1 <0>        -0.4500
     17 C14        -0.0914   -2.3815    1.6623 C.ar      1 <0>         0.1208
     18 C15        -0.0686   -1.0082    1.4362 C.ar      1 <0>        -0.0391
     19 C16         0.0389   -0.0749    2.5810 C.ar      1 <0>        -0.0461
     20 C17         1.3026    0.3395    3.0269 C.ar      1 <0>        -0.0567
     21 C18         1.4264    1.1957    4.0752 C.ar      1 <0>        -0.1031
     22 C19         0.2795    1.6801    4.7303 C.ar      1 <0>        -0.0342
     23 C20        -1.0013    1.2694    4.2899 C.ar      1 <0>        -0.0312
     24 C21        -1.1147    0.3908    3.2051 C.ar      1 <0>         0.1359
     25 O4         -2.3383   -0.0064    2.7694 O.3       1 <0>        -0.4811
     26 C22        -2.1884    1.7809    4.9804 C.ar      1 <0>        -0.2012
     27 C23        -2.0107    2.6597    6.0536 C.ar      1 <0>         0.1673
     28 C24        -0.7222    3.0362    6.4509 C.ar      1 <0>         0.0764
     29 C25         0.3883    2.5670    5.8164 C.ar      1 <0>        -0.0431
     30 C26         1.7523    3.0037    6.2855 C.3       1 <0>        -0.0586
     31 C27         1.8520    4.5288    6.2142 C.3       1 <0>        -0.1518
     32 C28         1.9658    2.5455    7.7295 C.3       1 <0>        -0.1488
     33 O5         -0.5754    3.8922    7.4970 O.3       1 <0>        -0.4763
     34 O6         -3.0900    3.1490    6.7114 O.3       1 <0>        -0.4658
     35 C29        -3.5286    1.3817    4.5565 C.2       1 <0>         0.3587
     36 O7         -4.5042    1.8859    5.0738 O.2       1 <0>        -0.4469
     37 C30         2.5397   -0.1719    2.3347 C.3       1 <0>        -0.1187
     38 O8         -0.0154   -2.8696    2.9275 O.3       1 <0>        -0.4830
     39 H1          0.8960    1.3212   -0.2231 H         1 <0>         0.0749
     40 H2         -0.7087    1.2274   -0.9874 H         1 <0>         0.0721
     41 H3         -0.5729    1.4892    0.7680 H         1 <0>         0.0722
     42 H4         -0.3056   -0.9353   -1.9360 H         1 <0>         0.1397
     43 H5         -0.3754   -1.9722   -3.1955 H         1 <0>         0.0863
     44 H6          0.6315   -4.7053   -4.1084 H         1 <0>         0.0803
     45 H7          0.6421   -3.2163   -5.0838 H         1 <0>         0.0593
     46 H8          1.6540   -3.3312   -3.6239 H         1 <0>         0.0528
     47 H9         -1.8426   -3.0602   -4.8724 H         1 <0>         0.0667
     48 H10        -1.8532   -4.5492   -3.8971 H         1 <0>         0.0587
     49 H11        -2.6008   -3.0639   -3.2620 H         1 <0>         0.0571
     50 H12        -1.3834   -5.9991   -2.9774 H         1 <0>         0.3853
     51 H13        -1.2152   -7.2464   -0.1170 H         1 <0>         0.3976
     52 H14         0.0317   -4.6473    2.9576 H         1 <0>         0.1324
     53 H15         2.4070    1.5045    4.4061 H         1 <0>         0.1398
     54 H16        -2.6683   -0.8070    3.1998 H         1 <0>         0.3955
     55 H17         2.5156    2.5594    5.6467 H         1 <0>         0.0860
     56 H18         1.0887    4.9730    6.8530 H         1 <0>         0.0798
     57 H19         2.8385    4.8446    6.5535 H         1 <0>         0.0593
     58 H20         1.6998    4.8552    5.1854 H         1 <0>         0.0531
     59 H21         1.8948    1.4590    7.7803 H         1 <0>         0.0567
     60 H22         2.9524    2.8614    8.0688 H         1 <0>         0.0665
     61 H23         1.2025    2.9898    8.3683 H         1 <0>         0.0591
     62 H24        -0.5043    3.4545    8.3563 H         1 <0>         0.3850
     63 H25        -3.3748    2.6056    7.4588 H         1 <0>         0.3953
     64 H26        -3.6512    0.6381    3.7829 H         1 <0>         0.1327
     65 H27         2.8051    0.5020    1.5201 H         1 <0>         0.0775
     66 H28         3.3619   -0.2202    3.0487 H         1 <0>         0.0736
     67 H29         2.3470   -1.1673    1.9346 H         1 <0>         0.0662
     68 H30         0.8876   -3.0316    3.2331 H         1 <0>         0.3935
@<TRIPOS>BOND
     1    1    2 1
     2    1   39 1
     3    1   40 1
     4    1   41 1
     5    2   18 ar
     6    2    3 ar
     7    3    4 ar
     8    3   42 1
     9    4    9 ar
    10    4    5 ar
    11    5    6 ar
    12    5   17 ar
    13    6    7 ar
    14    6   15 1
    15    7    8 ar
    16    7   14 1
    17    8    9 ar
    18    8   13 1
    19    9   10 1
    20   10   11 1
    21   10   12 1
    22   10   43 1
    23   11   44 1
    24   11   45 1
    25   11   46 1
    26   12   47 1
    27   12   48 1
    28   12   49 1
    29   13   50 1
    30   14   51 1
    31   15   16 2
    32   15   52 1
    33   17   18 ar
    34   17   38 1
    35   18   19 1
    36   19   24 ar
    37   19   20 ar
    38   20   21 ar
    39   20   37 1
    40   21   22 ar
    41   21   53 1
    42   22   29 ar
    43   22   23 ar
    44   23   24 ar
    45   23   26 ar
    46   24   25 1
    47   25   54 1
    48   26   27 ar
    49   26   35 1
    50   27   28 ar
    51   27   34 1
    52   28   29 ar
    53   28   33 1
    54   29   30 1
    55   30   31 1
    56   30   32 1
    57   30   55 1
    58   31   56 1
    59   31   57 1
    60   31   58 1
    61   32   59 1
    62   32   60 1
    63   32   61 1
    64   33   62 1
    65   34   63 1
    66   35   36 2
    67   35   64 1
    68   37   65 1
    69   37   66 1
    70   37   67 1
    71   38   68 1
@<TRIPOS>MOLECULE
ZINC05159961
   64    67     0     0     0
SMALL
USER_CHARGES
5-isopropyl-3-methyl-2-(1,6,7-trihydroxy-5-isopropyl-3-methyl-2-naphthyl)-naphthalene-1,6,7-triol
@<TRIPOS>ATOM
      1 C1          2.1150   -0.3255   -2.8138 C.3       1 <0>        -0.1204
      2 C2          1.1251    0.7422   -3.2028 C.ar      1 <0>        -0.0521
      3 C3          0.2551    0.5104   -4.2201 C.ar      1 <0>        -0.1169
      4 C4         -0.6704    1.5007   -4.5972 C.ar      1 <0>        -0.0212
      5 C5         -0.6932    2.7389   -3.9070 C.ar      1 <0>        -0.0676
      6 C6         -1.6182    3.7266   -4.2868 C.ar      1 <0>        -0.1146
      7 C7         -2.4830    3.4841   -5.3137 C.ar      1 <0>         0.0877
      8 C8         -2.4609    2.2593   -5.9966 C.ar      1 <0>         0.0974
      9 C9         -1.5739    1.2816   -5.6508 C.ar      1 <0>        -0.0796
     10 C10        -1.5633   -0.0281   -6.3962 C.3       1 <0>        -0.0526
     11 C11        -2.9454   -0.6780   -6.3049 C.3       1 <0>        -0.1508
     12 C12        -1.2140    0.2234   -7.8644 C.3       1 <0>        -0.1470
     13 O1         -3.3337    2.0436   -7.0162 O.3       1 <0>        -0.4793
     14 O2         -3.3767    4.4413   -5.6796 O.3       1 <0>        -0.4866
     15 C13         0.2120    2.9597   -2.8518 C.ar      1 <0>         0.1463
     16 C14         1.1116    1.9603   -2.5057 C.ar      1 <0>        -0.0586
     17 C15         2.0684    2.1837   -1.3962 C.ar      1 <0>        -0.0595
     18 C16         3.3271    2.7440   -1.6638 C.ar      1 <0>        -0.0524
     19 C17         4.2222    2.9589   -0.6647 C.ar      1 <0>        -0.1172
     20 C18         3.8955    2.6196    0.6610 C.ar      1 <0>        -0.0212
     21 C19         2.6259    2.0586    0.9492 C.ar      1 <0>        -0.0671
     22 C20         1.7130    1.8375   -0.0994 C.ar      1 <0>         0.1467
     23 O3          0.4940    1.2960    0.1558 O.3       1 <0>        -0.4813
     24 C21         2.3051    1.7146    2.2736 C.ar      1 <0>        -0.1144
     25 C22         3.2127    1.9345    3.2682 C.ar      1 <0>         0.0878
     26 C23         4.4664    2.4956    2.9845 C.ar      1 <0>         0.0976
     27 C24         4.8084    2.8340    1.7075 C.ar      1 <0>        -0.0800
     28 C25         6.1599    3.4359    1.4208 C.3       1 <0>        -0.0523
     29 C26         6.2903    4.7707    2.1571 C.3       1 <0>        -0.1476
     30 C27         7.2554    2.4807    1.8987 C.3       1 <0>        -0.1503
     31 O4          5.3521    2.7045    3.9943 O.3       1 <0>        -0.4797
     32 O5          2.8980    1.6062    4.5495 O.3       1 <0>        -0.4875
     33 C28         3.6909    3.1119   -3.0792 C.3       1 <0>        -0.1196
     34 O6          0.2058    4.1393   -2.1790 O.3       1 <0>        -0.4807
     35 H1          1.6733   -0.9712   -2.0548 H         1 <0>         0.0721
     36 H2          2.3723   -0.9193   -3.6909 H         1 <0>         0.0722
     37 H3          3.0151    0.1417   -2.4144 H         1 <0>         0.0712
     38 H4          0.2764   -0.4344   -4.7428 H         1 <0>         0.1356
     39 H5         -1.6445    4.6733   -3.7677 H         1 <0>         0.1410
     40 H6         -0.8199   -0.6916   -5.9543 H         1 <0>         0.0825
     41 H7         -3.6888   -0.0145   -6.7467 H         1 <0>         0.0778
     42 H8         -2.9378   -1.6253   -6.8440 H         1 <0>         0.0566
     43 H9         -3.1943   -0.8572   -5.2589 H         1 <0>         0.0521
     44 H10        -0.2294    0.6864   -7.9294 H         1 <0>         0.0551
     45 H11        -1.2064   -0.7239   -8.4035 H         1 <0>         0.0636
     46 H12        -1.9574    0.8869   -8.3062 H         1 <0>         0.0574
     47 H13        -2.9994    2.3108   -7.8833 H         1 <0>         0.3836
     48 H14        -3.0482    5.0475   -6.3576 H         1 <0>         0.3877
     49 H15         5.1862    3.3913   -0.8885 H         1 <0>         0.1355
     50 H16         0.4742    0.3305    0.1052 H         1 <0>         0.3895
     51 H17         1.3425    1.2823    2.5037 H         1 <0>         0.1410
     52 H18         6.2641    3.6009    0.3484 H         1 <0>         0.0823
     53 H19         6.1862    4.6058    3.2295 H         1 <0>         0.0575
     54 H20         7.2679    5.2061    1.9498 H         1 <0>         0.0635
     55 H21         5.5099    5.4513    1.8167 H         1 <0>         0.0553
     56 H22         7.1625    1.5298    1.3741 H         1 <0>         0.0518
     57 H23         8.2329    2.9161    1.6913 H         1 <0>         0.0565
     58 H24         7.1512    2.3158    2.9711 H         1 <0>         0.0778
     59 H25         5.2751    3.5734    4.4116 H         1 <0>         0.3841
     60 H26         2.4735    2.3196    5.0454 H         1 <0>         0.3889
     61 H27         3.3907    4.1411   -3.2757 H         1 <0>         0.0715
     62 H28         4.7682    3.0155   -3.2142 H         1 <0>         0.0720
     63 H29         3.1769    2.4450   -3.7715 H         1 <0>         0.0710
     64 H30         0.7905    4.8106   -2.5566 H         1 <0>         0.3879
@<TRIPOS>BOND
     1    1    2 1
     2    1   35 1
     3    1   36 1
     4    1   37 1
     5    2   16 ar
     6    2    3 ar
     7    3    4 ar
     8    3   38 1
     9    4    9 ar
    10    4    5 ar
    11    5    6 ar
    12    5   15 ar
    13    6    7 ar
    14    6   39 1
    15    7    8 ar
    16    7   14 1
    17    8    9 ar
    18    8   13 1
    19    9   10 1
    20   10   11 1
    21   10   12 1
    22   10   40 1
    23   11   41 1
    24   11   42 1
    25   11   43 1
    26   12   44 1
    27   12   45 1
    28   12   46 1
    29   13   47 1
    30   14   48 1
    31   15   16 ar
    32   15   34 1
    33   16   17 1
    34   17   22 ar
    35   17   18 ar
    36   18   19 ar
    37   18   33 1
    38   19   20 ar
    39   19   49 1
    40   20   27 ar
    41   20   21 ar
    42   21   22 ar
    43   21   24 ar
    44   22   23 1
    45   23   50 1
    46   24   25 ar
    47   24   51 1
    48   25   26 ar
    49   25   32 1
    50   26   27 ar
    51   26   31 1
    52   27   28 1
    53   28   29 1
    54   28   30 1
    55   28   52 1
    56   29   53 1
    57   29   54 1
    58   29   55 1
    59   30   56 1
    60   30   57 1
    61   30   58 1
    62   31   59 1
    63   32   60 1
    64   33   61 1
    65   33   62 1
    66   33   63 1
    67   34   64 1
