@<TRIPOS>MOLECULE
ZINC03833821
   54    57     0     0     0
SMALL
NO_CHARGES

@<TRIPOS>ATOM
      1 C1         -0.7520    1.6588   -0.1667 C.3       1 <0>        -0.1663
      2 C2         -0.9770    0.1457   -0.1413 C.3       1 <0>        -0.0388
      3 C3         -2.2972   -0.1663    0.5373 C.3       1 <0>        -0.1261
      4 C4         -2.2689    0.5080    1.9180 C.3       1 <0>         0.1082
      5 H1         -3.1924    0.2731    2.4472 H         1 <0>         0.0604
      6 C5         -1.0827    0.0350    2.7533 C.3       1 <0>        -0.0524
      7 H2         -1.2058   -1.0229    2.9849 H         1 <0>         0.0866
      8 C6          0.2486    0.2394    2.0127 C.3       1 <0>        -0.0814
      9 H3          0.4066    1.3018    1.8270 H         1 <0>         0.1028
     10 C7          0.1391   -0.5386    0.6930 C.3       1 <0>        -0.0780
     11 H4         -0.1092   -1.5841    0.8759 H         1 <0>         0.0846
     12 C8          1.3459   -0.4177   -0.2439 C.3       1 <0>        -0.1120
     13 C9          0.7399   -0.7462   -1.6357 C.3       1 <0>        -0.1478
     14 C10        -0.7736   -0.4308   -1.5386 C.3       1 <0>         0.1037
     15 C11        -1.1639    0.5826   -2.5834 C.2       1 <0>         0.3356
     16 O1         -0.3311    1.3258   -3.0444 O.2       1 <0>        -0.4139
     17 C12        -2.5933    0.6686   -3.0529 C.3       1 <0>         0.0292
     18 O2         -2.7101    1.6977   -4.0376 O.3       1 <0>        -0.5558
     19 O3         -1.5397   -1.6267   -1.6970 O.3       1 <0>        -0.5395
     20 C13         1.3968   -0.3125    2.8596 C.3       1 <0>        -0.1141
     21 C14         1.5075    0.4888    4.1606 C.3       1 <0>        -0.0960
     22 C15         0.1584    0.4521    4.8538 C.2       1 <0>        -0.0243
     23 C16         0.1019    0.0895    6.1279 C.2       1 <0>        -0.2310
     24 C17        -1.1894    0.0201    6.8291 C.2       1 <0>         0.4075
     25 O4         -1.2417   -0.2722    8.0092 O.2       1 <0>        -0.4610
     26 C18        -2.4174    0.3120    6.0704 C.2       1 <0>        -0.2221
     27 C19        -2.3362    0.6803    4.8015 C.2       1 <0>        -0.0651
     28 C20        -1.0322    0.8343    4.0586 C.3       1 <0>        -0.0103
     29 C21        -0.8801    2.3122    3.6932 C.3       1 <0>        -0.1338
     30 O5         -2.1793    1.9234    1.7436 O.3       1 <0>        -0.5459
     31 H5          0.1094    1.8876   -0.7941 H         1 <0>         0.0526
     32 H6         -1.6367    2.1510   -0.5706 H         1 <0>         0.0495
     33 H7         -0.5684    2.0159    0.8467 H         1 <0>         0.1148
     34 H8         -3.1217    0.2324   -0.0537 H         1 <0>         0.0675
     35 H9         -2.4094   -1.2444    0.6529 H         1 <0>         0.0847
     36 H10         1.7470    0.5957   -0.2274 H         1 <0>         0.0739
     37 H11         2.1152   -1.1425    0.0225 H         1 <0>         0.0724
     38 H12         1.2032   -0.1244   -2.4017 H         1 <0>         0.0846
     39 H13         0.8881   -1.8006   -1.8689 H         1 <0>         0.0802
     40 H14        -2.8910   -0.2856   -3.4876 H         1 <0>         0.0817
     41 H15        -3.2403    0.9002   -2.2069 H         1 <0>         0.0808
     42 H16        -3.6054    1.8095   -4.3853 H         1 <0>         0.3862
     43 H17        -1.4500   -2.0388   -2.5672 H         1 <0>         0.3798
     44 H18         1.2044   -1.3596    3.0935 H         1 <0>         0.0668
     45 H19         2.3302   -0.2310    2.3027 H         1 <0>         0.0752
     46 H20         2.2645    0.0418    4.8049 H         1 <0>         0.0800
     47 H21         1.7776    1.5206    3.9355 H         1 <0>         0.0861
     48 H22         1.0116   -0.1573    6.6552 H         1 <0>         0.1356
     49 H23        -3.3822    0.2255    6.5481 H         1 <0>         0.1372
     50 H24        -3.2561    0.8801    4.2721 H         1 <0>         0.1262
     51 H25        -1.8492    2.7154    3.3993 H         1 <0>         0.0948
     52 H26        -0.5039    2.8628    4.5554 H         1 <0>         0.0440
     53 H27        -0.1789    2.4114    2.8646 H         1 <0>         0.0739
     54 H28        -2.9172    2.3063    1.2496 H         1 <0>         0.3686
@<TRIPOS>BOND
     1    1    2 1
     2    1   31 1
     3    1   32 1
     4    1   33 1
     5    2   10 1
     6    2   14 1
     7    2    3 1
     8    3    4 1
     9    3   34 1
    10    3   35 1
    11    4    5 1
    12    4    6 1
    13    4   30 1
    14    6    7 1
    15    6   28 1
    16    6    8 1
    17    8    9 1
    18    8   10 1
    19    8   20 1
    20   10   11 1
    21   10   12 1
    22   12   13 1
    23   12   36 1
    24   12   37 1
    25   13   14 1
    26   13   38 1
    27   13   39 1
    28   14   15 1
    29   14   19 1
    30   15   16 2
    31   15   17 1
    32   17   18 1
    33   17   40 1
    34   17   41 1
    35   18   42 1
    36   19   43 1
    37   20   21 1
    38   20   44 1
    39   20   45 1
    40   21   22 1
    41   21   46 1
    42   21   47 1
    43   22   28 1
    44   22   23 2
    45   23   24 1
    46   23   48 1
    47   24   25 2
    48   24   26 1
    49   26   27 2
    50   26   49 1
    51   27   28 1
    52   27   50 1
    53   28   29 1
    54   29   51 1
    55   29   52 1
    56   29   53 1
    57   30   54 1
@<TRIPOS>MOLECULE
ZINC34319582
   42    43     0     0     0
SMALL
USER_CHARGES

@<TRIPOS>ATOM
      1 C1         -0.0187    1.5258    0.0104 C.3       1 <0>        -0.1671
      2 C2          0.0021   -0.0041    0.0020 C.3       1 <0>         0.0727
      3 H1          0.5123   -0.3556   -0.8948 H         1 <0>         0.0874
      4 C3         -1.4332   -0.5336    0.0129 C.3       1 <0>        -0.1273
      5 C4         -1.7484   -1.1255    1.3881 C.3       1 <0>        -0.1139
      6 C5         -1.9651    0.0070    2.3937 C.3       1 <0>        -0.1219
      7 C6         -2.1032   -0.5793    3.8001 C.3       1 <0>        -0.1209
      8 C7         -0.9223   -0.1249    4.6604 C.3       1 <0>        -0.1187
      9 C8          0.3525   -0.8265    4.1883 C.3       1 <0>        -0.1075
     10 C9          1.2660    0.1868    3.4954 C.3       1 <0>        -0.1171
     11 C10         2.6178   -0.4362    3.2594 C.ar      1 <0>         0.0137
     12 C11         3.5695   -0.4127    4.2521 C.ar      1 <0>        -0.1718
     13 C12         4.8185   -0.9888    4.0397 C.ar      1 <0>         0.1685
     14 C13         5.1134   -1.5919    2.8257 C.ar      1 <0>        -0.1966
     15 C14         4.1652   -1.6209    1.8181 C.ar      1 <0>         0.1969
     16 C15         2.9057   -1.0378    2.0297 C.ar      1 <0>        -0.1778
     17 C16         1.8944   -1.0557    0.9610 C.2       1 <0>         0.5080
     18 O1          2.1423   -1.5919   -0.1012 O.2       1 <0>        -0.4838
     19 O2          0.6932   -0.4775    1.1598 O.3       1 <0>        -0.3261
     20 O3          4.4512   -2.2114    0.6309 O.3       1 <0>        -0.4764
     21 O4          5.7520   -0.9599    5.0241 O.3       1 <0>        -0.4937
     22 H2          1.0039    1.9031    0.0027 H         1 <0>         0.0595
     23 H3         -0.5459    1.8868   -0.8726 H         1 <0>         0.0768
     24 H4         -0.5289    1.8773    0.9072 H         1 <0>         0.0707
     25 H5         -2.1235    0.2832   -0.1979 H         1 <0>         0.0786
     26 H6         -1.5413   -1.3061   -0.7485 H         1 <0>         0.0691
     27 H7         -2.6516   -1.7323    1.3242 H         1 <0>         0.0587
     28 H8         -0.9153   -1.7475    1.7155 H         1 <0>         0.0721
     29 H9         -1.1130    0.6862    2.3652 H         1 <0>         0.0731
     30 H10        -2.8732    0.5523    2.1366 H         1 <0>         0.0555
     31 H11        -3.0341   -0.2323    4.2486 H         1 <0>         0.0581
     32 H12        -2.1119   -1.6676    3.7408 H         1 <0>         0.0624
     33 H13        -0.7990    0.9541    4.5673 H         1 <0>         0.0651
     34 H14        -1.1127   -0.3802    5.7029 H         1 <0>         0.0600
     35 H15         0.8703   -1.2552    5.0463 H         1 <0>         0.0570
     36 H16         0.0924   -1.6197    3.4875 H         1 <0>         0.0689
     37 H17         0.8281    0.4776    2.5405 H         1 <0>         0.1257
     38 H18         1.3773    1.0677    4.1277 H         1 <0>         0.0758
     39 H19         3.3469    0.0548    5.1999 H         1 <0>         0.1404
     40 H20         6.0837   -2.0387    2.6666 H         1 <0>         0.1454
     41 H21         4.2292   -3.1519    0.5958 H         1 <0>         0.4003
     42 H22         5.7200   -1.7217    5.6189 H         1 <0>         0.4001
@<TRIPOS>BOND
     1    1    2 1
     2    1   22 1
     3    1   23 1
     4    1   24 1
     5    2    3 1
     6    2   19 1
     7    2    4 1
     8    4    5 1
     9    4   25 1
    10    4   26 1
    11    5    6 1
    12    5   27 1
    13    5   28 1
    14    6    7 1
    15    6   29 1
    16    6   30 1
    17    7    8 1
    18    7   31 1
    19    7   32 1
    20    8    9 1
    21    8   33 1
    22    8   34 1
    23    9   10 1
    24    9   35 1
    25    9   36 1
    26   10   11 1
    27   10   37 1
    28   10   38 1
    29   11   16 ar
    30   11   12 ar
    31   12   13 ar
    32   12   39 1
    33   13   14 ar
    34   13   21 1
    35   14   15 ar
    36   14   40 1
    37   15   16 ar
    38   15   20 1
    39   16   17 1
    40   17   18 2
    41   17   19 1
    42   20   41 1
    43   21   42 1
@<TRIPOS>MOLECULE
ZINC34022720
   41    43     0     0     0
SMALL
USER_CHARGES

@<TRIPOS>ATOM
      1 C1         -1.1990   -0.5328    0.7887 C.3       1 <0>        -0.1430
      2 C2          0.0021   -0.0041    0.0020 C.3       1 <0>        -0.0724
      3 C3         -0.1066    1.5160   -0.1341 C.3       1 <0>        -0.1598
      4 C4          1.2930   -0.3589    0.7426 C.3       1 <0>         0.0759
      5 O1          1.2755    0.2357    2.0420 O.3       1 <0>        -0.5672
      6 C5          0.0208   -0.6406   -1.3892 C.3       1 <0>         0.1737
      7 H1         -0.0721   -1.7205   -1.2743 H         1 <0>         0.0765
      8 C6          1.3439   -0.3435   -2.0293 C.3       1 <0>        -0.0982
      9 H2          2.0933   -1.0278   -1.6314 H         1 <0>         0.0972
     10 C7          1.8050    1.1064   -1.7744 C.3       1 <0>        -0.1233
     11 C8          2.6743    1.4246   -2.9730 C.2       1 <0>        -0.1581
     12 C9          2.4517    0.5828   -3.9483 C.2       1 <0>        -0.1669
     13 C10         1.3787   -0.4016   -3.5541 C.3       1 <0>        -0.0070
     14 H3          1.6581   -1.4006   -3.8889 H         1 <0>         0.0926
     15 C11         0.0900    0.0358   -4.1918 C.ar      1 <0>        -0.1472
     16 C12         0.0908    0.3184   -5.5504 C.ar      1 <0>         0.0000
     17 C13        -1.0655    0.7342   -6.1792 C.ar      1 <0>        -0.1095
     18 C14        -2.2367    0.8745   -5.4569 C.ar      1 <0>        -0.0074
     19 C15        -2.2478    0.5922   -4.1065 C.ar      1 <0>        -0.1967
     20 C16        -1.0837    0.1664   -3.4719 C.ar      1 <0>         0.2760
     21 N1         -1.1263   -0.1580   -2.1296 N.pl3     1 <0>        -0.7080
     22 N2         -1.0519    1.0309   -7.6291 N.pl3     1 <0>         0.0457
     23 O2         -0.0287    0.9091   -8.2615 O.2       1 <0>        -0.1749
     24 O3         -2.0639    1.3952   -8.1811 O.3       1 <0>        -0.1732
     25 H4         -2.1205   -0.1805    0.3252 H         1 <0>         0.0528
     26 H5         -1.1842   -1.6227    0.7853 H         1 <0>         0.0566
     27 H6         -1.1479   -0.1719    1.8159 H         1 <0>         0.0734
     28 H7         -0.5619    1.9297    0.7657 H         1 <0>         0.0597
     29 H8          0.8885    1.9410   -0.2661 H         1 <0>         0.0811
     30 H9         -0.7236    1.7602   -0.9987 H         1 <0>         0.0588
     31 H10         1.3704   -1.4418    0.8396 H         1 <0>         0.0465
     32 H11         2.1487    0.0178    0.1822 H         1 <0>         0.0618
     33 H12         2.0651    0.0521    2.5692 H         1 <0>         0.3823
     34 H13         0.9482    1.7790   -1.7335 H         1 <0>         0.1060
     35 H14         2.3851    1.1674   -0.8537 H         1 <0>         0.0839
     36 H15         3.3831    2.2383   -3.0164 H         1 <0>         0.1277
     37 H16         2.9560    0.6012   -4.9031 H         1 <0>         0.1321
     38 H17         1.0025    0.2127   -6.1196 H         1 <0>         0.1492
     39 H18        -3.1399    1.2044   -5.9486 H         1 <0>         0.1521
     40 H19        -3.1610    0.7018   -3.5405 H         1 <0>         0.1443
     41 H20        -1.9633   -0.0280   -1.6569 H         1 <0>         0.4068
@<TRIPOS>BOND
     1    1    2 1
     2    1   25 1
     3    1   26 1
     4    1   27 1
     5    2    3 1
     6    2    4 1
     7    2    6 1
     8    3   28 1
     9    3   29 1
    10    3   30 1
    11    4    5 1
    12    4   31 1
    13    4   32 1
    14    5   33 1
    15    6    7 1
    16    6   21 1
    17    6    8 1
    18    8    9 1
    19    8   13 1
    20    8   10 1
    21   10   11 1
    22   10   34 1
    23   10   35 1
    24   11   12 2
    25   11   36 1
    26   12   13 1
    27   12   37 1
    28   13   14 1
    29   13   15 1
    30   15   20 ar
    31   15   16 ar
    32   16   17 ar
    33   16   38 1
    34   17   18 ar
    35   17   22 1
    36   18   19 ar
    37   18   39 1
    38   19   20 ar
    39   19   40 1
    40   20   21 1
    41   21   41 1
    42   22   23 2
    43   22   24 1
@<TRIPOS>MOLECULE
ZINC03833824
   54    57     0     0     0
SMALL
USER_CHARGES

@<TRIPOS>ATOM
      1 C1          0.5308    1.1297    0.4529 C.3       1 <0>        -0.1357
      2 C2          0.6495   -0.3924    0.3526 C.3       1 <0>        -0.0249
      3 C3         -0.7227   -0.9881    0.6128 C.3       1 <0>        -0.1036
      4 C4         -1.0427   -1.0319    2.1067 C.3       1 <0>        -0.1670
      5 C5          0.0421   -1.8503    2.7793 C.2       1 <0>         0.3888
      6 O1         -0.2223   -2.7475    3.5520 O.2       1 <0>        -0.4590
      7 C6          1.4278   -1.5016    2.4472 C.2       1 <0>        -0.2471
      8 C7          1.7018   -0.8395    1.3201 C.2       1 <0>        -0.0152
      9 C8          3.1507   -0.4880    1.0360 C.3       1 <0>        -0.0971
     10 C9          3.4743   -0.8673   -0.4109 C.3       1 <0>        -0.1103
     11 C10         2.4766   -0.1784   -1.3462 C.3       1 <0>        -0.0900
     12 H1          2.4867    0.8977   -1.1733 H         1 <0>         0.1078
     13 C11         1.0717   -0.7392   -1.0803 C.3       1 <0>        -0.0632
     14 H2          1.1078   -1.8234   -1.1871 H         1 <0>         0.0824
     15 C12         0.0333   -0.1892   -2.0539 C.3       1 <0>         0.1037
     16 H3         -0.9154   -0.6994   -1.8871 H         1 <0>         0.0691
     17 C13         0.4603   -0.3911   -3.5163 C.3       1 <0>        -0.1362
     18 C14         1.8042    0.2906   -3.6881 C.3       1 <0>        -0.1206
     19 C15         2.8376   -0.4746   -2.7901 C.3       1 <0>        -0.0621
     20 H4          2.7716   -1.5450   -2.9853 H         1 <0>         0.0804
     21 C16         4.1794    0.0900   -3.2704 C.3       1 <0>        -0.1215
     22 C17         3.9959    0.1607   -4.8111 C.3       1 <0>        -0.1126
     23 C18         2.4317    0.2174   -5.0762 C.3       1 <0>        -0.1197
     24 H5          2.0916   -0.6774   -5.5976 H         1 <0>         0.1106
     25 C19         2.0853    1.4497   -5.8714 C.2       1 <0>         0.3436
     26 O2          2.8268    2.4029   -5.8615 O.2       1 <0>        -0.4122
     27 C20         0.8137    1.4926   -6.6790 C.3       1 <0>         0.0255
     28 O3          0.7106    2.7562   -7.3383 O.3       1 <0>        -0.5538
     29 C21         1.7077    1.7282   -3.2464 C.2       1 <0>         0.3688
     30 O4          2.6295    2.2429   -2.6602 O.2       1 <0>        -0.4394
     31 O5         -0.1403    1.2080   -1.8095 O.3       1 <0>        -0.5485
     32 H6          1.3444    1.5950   -0.1035 H         1 <0>         0.0680
     33 H7         -0.4241    1.4480    0.0346 H         1 <0>         0.0879
     34 H8          0.5875    1.4304    1.4991 H         1 <0>         0.0404
     35 H9         -1.4749   -0.3842    0.1052 H         1 <0>         0.0833
     36 H10        -0.7525   -2.0016    0.2126 H         1 <0>         0.0646
     37 H11        -1.0500   -0.0207    2.5138 H         1 <0>         0.1005
     38 H12        -2.0131   -1.5025    2.2641 H         1 <0>         0.0914
     39 H13         2.2304   -1.7933    3.1083 H         1 <0>         0.1330
     40 H14         3.3011    0.5825    1.1756 H         1 <0>         0.0859
     41 H15         3.8007   -1.0420    1.7132 H         1 <0>         0.0777
     42 H16         4.4859   -0.5432   -0.6549 H         1 <0>         0.0738
     43 H17         3.3984   -1.9482   -0.5298 H         1 <0>         0.0642
     44 H18         0.5535   -1.4554   -3.7324 H         1 <0>         0.0894
     45 H19        -0.2736    0.0613   -4.1833 H         1 <0>         0.0769
     46 H20         4.3499    1.0838   -2.8564 H         1 <0>         0.0923
     47 H21         4.9963   -0.5829   -3.0099 H         1 <0>         0.0693
     48 H22         4.4884    1.0491   -5.2062 H         1 <0>         0.0816
     49 H23         4.4066   -0.7344   -5.2783 H         1 <0>         0.0712
     50 H24         0.8281    0.6952   -7.4220 H         1 <0>         0.0831
     51 H25        -0.0417    1.3572   -6.0172 H         1 <0>         0.0799
     52 H26        -0.0859    2.8545   -7.8778 H         1 <0>         0.3869
     53 H27         0.8141    2.2981   -3.4540 H         1 <0>         0.0866
     54 H28        -0.8479    1.6132   -2.3292 H         1 <0>         0.3711
@<TRIPOS>BOND
     1    1    2 1
     2    1   32 1
     3    1   33 1
     4    1   34 1
     5    2    8 1
     6    2   13 1
     7    2    3 1
     8    3    4 1
     9    3   35 1
    10    3   36 1
    11    4    5 1
    12    4   37 1
    13    4   38 1
    14    5    6 2
    15    5    7 1
    16    7    8 2
    17    7   39 1
    18    8    9 1
    19    9   10 1
    20    9   40 1
    21    9   41 1
    22   10   11 1
    23   10   42 1
    24   10   43 1
    25   11   12 1
    26   11   19 1
    27   11   13 1
    28   13   14 1
    29   13   15 1
    30   15   16 1
    31   15   17 1
    32   15   31 1
    33   17   18 1
    34   17   44 1
    35   17   45 1
    36   18   23 1
    37   18   19 1
    38   18   29 1
    39   19   20 1
    40   19   21 1
    41   21   22 1
    42   21   46 1
    43   21   47 1
    44   22   23 1
    45   22   48 1
    46   22   49 1
    47   23   24 1
    48   23   25 1
    49   25   26 2
    50   25   27 1
    51   27   28 1
    52   27   50 1
    53   27   51 1
    54   28   52 1
    55   29   30 2
    56   29   53 1
    57   31   54 1
@<TRIPOS>MOLECULE
ZINC03814360
   51    54     0     0     0
SMALL
USER_CHARGES

@<TRIPOS>ATOM
      1 C1         -0.0791    1.5267   -0.0241 C.3       1 <0>        -0.1536
      2 C2         -0.0620   -0.0032   -0.0340 C.3       1 <0>        -0.0506
      3 C3         -1.4996   -0.5307   -0.0608 C.3       1 <0>        -0.1074
      4 C4         -2.2727    0.0180    1.1418 C.3       1 <0>        -0.1722
      5 C5         -1.5107   -0.3367    2.3997 C.2       1 <0>         0.3611
      6 O1         -2.0584   -0.8912    3.3222 O.2       1 <0>        -0.4588
      7 C6         -0.0437    0.0225    2.4684 C.3       1 <0>        -0.1686
      8 C7          0.6550   -0.5142    1.2167 C.3       1 <0>        -0.0671
      9 H1          0.6353   -1.6039    1.2286 H         1 <0>         0.0748
     10 C8          2.1047   -0.0227    1.2198 C.3       1 <0>        -0.1157
     11 C9          2.8251   -0.5267   -0.0312 C.3       1 <0>        -0.1139
     12 C10         2.1153    0.0158   -1.2732 C.3       1 <0>        -0.0745
     13 H2          2.1230    1.1057   -1.2595 H         1 <0>         0.0857
     14 C11         0.6681   -0.4981   -1.2845 C.3       1 <0>        -0.0669
     15 H3          0.6802   -1.5880   -1.2755 H         1 <0>         0.0665
     16 C12        -0.0757   -0.0424   -2.5353 C.3       1 <0>        -0.1208
     17 C13         0.6746   -0.4510   -3.8142 C.3       1 <0>        -0.1028
     18 C14         2.0633    0.1522   -3.7349 C.3       1 <0>        -0.0579
     19 C15         2.7956   -0.4911   -2.5311 C.3       1 <0>        -0.0829
     20 H4          2.7257   -1.5774   -2.5882 H         1 <0>         0.0740
     21 C16         4.2385   -0.0216   -2.7472 C.3       1 <0>        -0.1123
     22 C17         4.4269   -0.1743   -4.2813 C.3       1 <0>        -0.1563
     23 C18         2.9990   -0.1352   -4.9046 C.3       1 <0>         0.1094
     24 H5          2.7384   -1.0847   -5.3722 H         1 <0>         0.0589
     25 O2          2.9342    0.9236   -5.8621 O.3       1 <0>        -0.5616
     26 C19         1.9594    1.6627   -3.5144 C.3       1 <0>        -0.1341
     27 H6          0.9444    1.9014   -0.0139 H         1 <0>         0.0641
     28 H7         -0.5902    1.8901   -0.9156 H         1 <0>         0.0611
     29 H8         -0.6037    1.8784    0.8642 H         1 <0>         0.0573
     30 H9         -1.9865   -0.2101   -0.9818 H         1 <0>         0.0807
     31 H10        -1.4873   -1.6197   -0.0178 H         1 <0>         0.0666
     32 H11        -2.3605    1.1013    1.0588 H         1 <0>         0.1007
     33 H12        -3.2658   -0.4300    1.1754 H         1 <0>         0.0872
     34 H13         0.0655    1.1062    2.5100 H         1 <0>         0.1009
     35 H14         0.4010   -0.4260    3.3568 H         1 <0>         0.0876
     36 H15         2.1179    1.0672    1.2312 H         1 <0>         0.0681
     37 H16         2.6132   -0.3995    2.1072 H         1 <0>         0.0638
     38 H17         3.8582   -0.1792   -0.0214 H         1 <0>         0.0647
     39 H18         2.8066   -1.6164   -0.0480 H         1 <0>         0.0614
     40 H19        -1.0679   -0.4936   -2.5445 H         1 <0>         0.0641
     41 H20        -0.1788    1.0425   -2.5135 H         1 <0>         0.0717
     42 H21         0.7449   -1.5372   -3.8719 H         1 <0>         0.0611
     43 H22         0.1524   -0.0653   -4.6898 H         1 <0>         0.0656
     44 H23         4.3545    1.0195   -2.4460 H         1 <0>         0.0703
     45 H24         4.9371   -0.6606   -2.2072 H         1 <0>         0.0656
     46 H25         5.0422    0.6392   -4.6655 H         1 <0>         0.0735
     47 H26         4.8913   -1.1342   -4.5074 H         1 <0>         0.0642
     48 H27         3.5088    0.7959   -6.6293 H         1 <0>         0.3748
     49 H28         1.3664    1.8595   -2.6213 H         1 <0>         0.0609
     50 H29         2.9579    2.0808   -3.3871 H         1 <0>         0.0533
     51 H30         1.4798    2.1237   -4.3779 H         1 <0>         0.0585
@<TRIPOS>BOND
     1    1    2 1
     2    1   27 1
     3    1   28 1
     4    1   29 1
     5    2    8 1
     6    2   14 1
     7    2    3 1
     8    3    4 1
     9    3   30 1
    10    3   31 1
    11    4    5 1
    12    4   32 1
    13    4   33 1
    14    5    6 2
    15    5    7 1
    16    7    8 1
    17    7   34 1
    18    7   35 1
    19    8    9 1
    20    8   10 1
    21   10   11 1
    22   10   36 1
    23   10   37 1
    24   11   12 1
    25   11   38 1
    26   11   39 1
    27   12   13 1
    28   12   19 1
    29   12   14 1
    30   14   15 1
    31   14   16 1
    32   16   17 1
    33   16   40 1
    34   16   41 1
    35   17   18 1
    36   17   42 1
    37   17   43 1
    38   18   23 1
    39   18   19 1
    40   18   26 1
    41   19   20 1
    42   19   21 1
    43   21   22 1
    44   21   44 1
    45   21   45 1
    46   22   23 1
    47   22   46 1
    48   22   47 1
    49   23   24 1
    50   23   25 1
    51   25   48 1
    52   26   49 1
    53   26   50 1
    54   26   51 1
