@<TRIPOS>MOLECULE
ZINC04428529
   53    56     0     0     0
SMALL
USER_CHARGES

@<TRIPOS>ATOM
      1 C1          0.4282    0.7651    1.2384 C.3       1 <0>        -0.2080
      2 C2          0.0050   -0.0027    0.0127 C.2       1 <0>         0.3647
      3 O1          0.7040   -0.0010   -0.9721 O.2       1 <0>        -0.4542
      4 C3         -1.2905   -0.7727    0.0158 C.3       1 <0>        -0.1325
      5 H1         -2.0415   -0.2446    0.6034 H         1 <0>         0.0972
      6 C4         -1.7935   -0.9827   -1.4341 C.3       1 <0>        -0.1186
      7 C5         -1.9305   -2.5169   -1.6323 C.3       1 <0>        -0.1151
      8 C6         -2.1068   -3.0336   -0.2000 C.3       1 <0>        -0.0796
      9 H2         -3.1156   -2.8264    0.1569 H         1 <0>         0.0777
     10 C7         -1.0708   -2.1742    0.5759 C.3       1 <0>        -0.0487
     11 C8         -1.3489   -2.3630    2.0549 C.3       1 <0>        -0.1047
     12 C9         -1.0643   -3.8367    2.3850 C.3       1 <0>        -0.1222
     13 C10        -1.9046   -4.7802    1.5293 C.3       1 <0>        -0.0680
     14 H3         -2.9551   -4.6575    1.7928 H         1 <0>         0.0704
     15 C11        -1.7585   -4.4942    0.0214 C.3       1 <0>        -0.0776
     16 H4         -0.7305   -4.6831   -0.2877 H         1 <0>         0.0863
     17 C12        -2.7266   -5.3822   -0.7660 C.3       1 <0>        -0.1118
     18 C13        -2.3186   -6.8466   -0.5915 C.3       1 <0>        -0.0977
     19 C14        -2.2642   -7.1658    0.8913 C.2       1 <0>        -0.0206
     20 C15        -2.8820   -8.2703    1.3099 C.2       1 <0>        -0.2434
     21 H5         -3.4070   -8.8958    0.6032 H         1 <0>         0.1337
     22 C16        -2.8495   -8.6362    2.7300 C.2       1 <0>         0.3882
     23 O2         -3.6756   -9.3796    3.2168 O.2       1 <0>        -0.4580
     24 C17        -1.7290   -8.0371    3.5574 C.3       1 <0>        -0.1668
     25 H6         -1.9153   -8.2141    4.6167 H         1 <0>         0.0925
     26 H7         -0.7768   -8.4825    3.2693 H         1 <0>         0.0997
     27 C18        -1.7074   -6.5351    3.2776 C.3       1 <0>        -0.1069
     28 C19        -1.4839   -6.2270    1.8163 C.3       1 <0>        -0.0241
     29 C20         0.0121   -6.3503    1.5204 C.3       1 <0>        -0.1492
     30 C21         0.3461   -2.6481    0.2465 C.3       1 <0>        -0.1572
     31 H8          1.3837    1.2542    1.0489 H         1 <0>         0.0809
     32 H9         -0.3247    1.5173    1.4738 H         1 <0>         0.0918
     33 H10         0.5316    0.0791    2.0791 H         1 <0>         0.0918
     34 H11        -2.7617   -0.5002   -1.5678 H         1 <0>         0.0675
     35 H12        -1.0717   -0.5769   -2.1430 H         1 <0>         0.0790
     36 H13        -2.8065   -2.7509   -2.2372 H         1 <0>         0.0676
     37 H14        -1.0279   -2.9297   -2.0829 H         1 <0>         0.0698
     38 H15        -0.6944   -1.7180    2.6411 H         1 <0>         0.0661
     39 H16        -2.3917   -2.1291    2.2695 H         1 <0>         0.0682
     40 H17        -0.0085   -4.0427    2.2091 H         1 <0>         0.0749
     41 H18        -1.2894   -4.0152    3.4365 H         1 <0>         0.0667
     42 H19        -3.7398   -5.2390   -0.3905 H         1 <0>         0.0659
     43 H20        -2.6874   -5.1165   -1.8224 H         1 <0>         0.0725
     44 H21        -3.0518   -7.4905   -1.0771 H         1 <0>         0.0771
     45 H22        -1.3365   -7.0077   -1.0361 H         1 <0>         0.0840
     46 H23        -2.6504   -6.0986    3.6068 H         1 <0>         0.0701
     47 H24        -0.8915   -6.0806    3.8396 H         1 <0>         0.0811
     48 H25         0.5667   -5.6628    2.1591 H         1 <0>         0.0702
     49 H26         0.3383   -7.3717    1.7166 H         1 <0>         0.0587
     50 H27         0.1972   -6.1043    0.4748 H         1 <0>         0.0638
     51 H28         1.0689   -2.0310    0.7800 H         1 <0>         0.0510
     52 H29         0.4614   -3.6883    0.5512 H         1 <0>         0.0714
     53 H30         0.5175   -2.5628   -0.8266 H         1 <0>         0.0644
@<TRIPOS>BOND
     1    1    2 1
     2    1   31 1
     3    1   32 1
     4    1   33 1
     5    2    3 2
     6    2    4 1
     7    4    5 1
     8    4   10 1
     9    4    6 1
    10    6    7 1
    11    6   34 1
    12    6   35 1
    13    7    8 1
    14    7   36 1
    15    7   37 1
    16    8    9 1
    17    8   15 1
    18    8   10 1
    19   10   11 1
    20   10   30 1
    21   11   12 1
    22   11   38 1
    23   11   39 1
    24   12   13 1
    25   12   40 1
    26   12   41 1
    27   13   14 1
    28   13   28 1
    29   13   15 1
    30   15   16 1
    31   15   17 1
    32   17   18 1
    33   17   42 1
    34   17   43 1
    35   18   19 1
    36   18   44 1
    37   18   45 1
    38   19   28 1
    39   19   20 2
    40   20   21 1
    41   20   22 1
    42   22   23 2
    43   22   24 1
    44   24   25 1
    45   24   26 1
    46   24   27 1
    47   27   28 1
    48   27   46 1
    49   27   47 1
    50   28   29 1
    51   29   48 1
    52   29   49 1
    53   29   50 1
    54   30   51 1
    55   30   52 1
    56   30   53 1
@<TRIPOS>MOLECULE
ZINC08660419
   67    71     0     0     0
SMALL
USER_CHARGES
11-(4-dimethylaminophenyl)-17-hydroxy-13-methyl-17-prop-1-ynyl-1,2,6,7,8,11,12,14,15,16-decahydrocyclopenta[a]phenanthren-3-one
@<TRIPOS>ATOM
      1 C1          0.7869    0.1155   -4.5240 C.3       1 <0>        -0.0462
      2 C2          0.5900    0.9727   -3.3436 C.1       1 <0>        -0.1645
      3 C3          0.4330    1.6563   -2.4022 C.1       1 <0>        -0.2108
      4 C4          0.2361    2.5134   -1.2218 C.3       1 <0>         0.2516
      5 C5          1.2880    3.6384   -1.2035 C.3       1 <0>        -0.1460
      6 C6          2.1300    3.4350    0.0772 C.3       1 <0>        -0.1158
      7 C7          1.9355    1.9425    0.4012 C.3       1 <0>        -0.0751
      8 H1          2.5427    1.3688   -0.2990 H         1 <0>         0.0756
      9 C8          0.4547    1.6914    0.0764 C.3       1 <0>        -0.0266
     10 C9         -0.4117    2.3256    1.1670 C.3       1 <0>        -0.0878
     11 C10        -0.1997    1.6805    2.5047 C.3       1 <0>        -0.0025
     12 H2         -0.8001    0.7718    2.5494 H         1 <0>         0.0872
     13 C11         1.2316    1.3258    2.7607 C.2       1 <0>        -0.0418
     14 C12         1.5404    0.7472    3.9335 C.2       1 <0>        -0.1294
     15 C13         0.4525    0.4472    4.9374 C.3       1 <0>        -0.0945
     16 C14         0.9498    0.8563    6.3279 C.3       1 <0>        -0.1505
     17 C15         2.3106    0.2641    6.5759 C.2       1 <0>         0.3859
     18 O1          2.6042   -0.0954    7.6983 O.2       1 <0>        -0.4758
     19 C16         3.2491    0.1171    5.5432 C.2       1 <0>        -0.2574
     20 C17         2.9152    0.3774    4.2526 C.2       1 <0>         0.0321
     21 C18         3.9597    0.2695    3.1733 C.3       1 <0>        -0.0979
     22 C19         3.3016    0.3825    1.7969 C.3       1 <0>        -0.1123
     23 C20         2.3424    1.5764    1.7924 C.3       1 <0>        -0.0429
     24 H3          2.9133    2.4186    2.1836 H         1 <0>         0.0813
     25 C21        -0.6667    2.6234    3.5835 C.ar      1 <0>        -0.1252
     26 C22        -1.9173    2.4583    4.1502 C.ar      1 <0>        -0.0698
     27 C23        -2.3460    3.3173    5.1430 C.ar      1 <0>        -0.1952
     28 C24        -1.5241    4.3549    5.5643 C.ar      1 <0>         0.2151
     29 C25        -0.2708    4.5213    4.9889 C.ar      1 <0>        -0.1951
     30 C26         0.1541    3.6553    4.0005 C.ar      1 <0>        -0.0584
     31 N1         -1.9567    5.2286    6.5644 N.pl3     1 <0>        -0.6386
     32 C27        -1.1430    6.3931    6.9220 C.3       1 <0>         0.0924
     33 C28        -3.2242    4.9804    7.2559 C.3       1 <0>         0.0888
     34 C29         0.1462    0.2052   -0.1159 C.3       1 <0>        -0.1349
     35 O2         -1.0793    3.0716   -1.2336 O.3       1 <0>        -0.5403
     36 H4          0.6311    0.7024   -5.4292 H         1 <0>         0.0815
     37 H5          1.8018   -0.2822   -4.5190 H         1 <0>         0.0822
     38 H6          0.0737   -0.7083   -4.4978 H         1 <0>         0.0820
     39 H7          0.7949    4.6101   -1.1758 H         1 <0>         0.0815
     40 H8          1.9256    3.5677   -2.0847 H         1 <0>         0.0725
     41 H9          1.7511    4.0565    0.8885 H         1 <0>         0.0745
     42 H10         3.1806    3.6522   -0.1156 H         1 <0>         0.0724
     43 H11        -0.1669    3.3848    1.2459 H         1 <0>         0.0717
     44 H12        -1.4617    2.2228    0.8931 H         1 <0>         0.0782
     45 H13        -0.4437    1.0149    4.6872 H         1 <0>         0.1092
     46 H14         0.2288   -0.6195    4.9275 H         1 <0>         0.0741
     47 H15         0.3122    0.5216    7.0217 H         1 <0>         0.0807
     48 H16         1.0116    1.9431    6.3847 H         1 <0>         0.0968
     49 H17         4.2520   -0.2074    5.7782 H         1 <0>         0.1316
     50 H18         4.6881    1.0715    3.2931 H         1 <0>         0.0899
     51 H19         4.4649   -0.6930    3.2534 H         1 <0>         0.0896
     52 H20         2.7468   -0.5310    1.5827 H         1 <0>         0.0708
     53 H21         4.0693    0.5294    1.0373 H         1 <0>         0.0770
     54 H22        -2.5577    1.6543    3.8189 H         1 <0>         0.1217
     55 H23        -3.3211    3.1851    5.5883 H         1 <0>         0.1233
     56 H24         0.3706    5.3272    5.3138 H         1 <0>         0.1205
     57 H25         1.1285    3.7839    3.5530 H         1 <0>         0.1167
     58 H26        -1.4355    7.2436    6.3062 H         1 <0>         0.0482
     59 H27        -1.2977    6.6355    7.9734 H         1 <0>         0.0661
     60 H28        -0.0903    6.1667    6.7525 H         1 <0>         0.0686
     61 H29        -3.6391    4.0288    6.9236 H         1 <0>         0.0779
     62 H30        -3.0505    4.9453    8.3314 H         1 <0>         0.0562
     63 H31        -3.9260    5.7824    7.0272 H         1 <0>         0.0519
     64 H32         0.3878   -0.3372    0.7982 H         1 <0>         0.0621
     65 H33        -0.9125    0.0804   -0.3434 H         1 <0>         0.0594
     66 H34         0.7434   -0.1863   -0.9394 H         1 <0>         0.0582
     67 H35        -1.2765    3.5972   -2.0210 H         1 <0>         0.3781
@<TRIPOS>BOND
     1    1    2 1
     2    1   36 1
     3    1   37 1
     4    1   38 1
     5    2    3 3
     6    3    4 1
     7    4    9 1
     8    4    5 1
     9    4   35 1
    10    5    6 1
    11    5   39 1
    12    5   40 1
    13    6    7 1
    14    6   41 1
    15    6   42 1
    16    7    8 1
    17    7   23 1
    18    7    9 1
    19    9   10 1
    20    9   34 1
    21   10   11 1
    22   10   43 1
    23   10   44 1
    24   11   12 1
    25   11   13 1
    26   11   25 1
    27   13   23 1
    28   13   14 2
    29   14   20 1
    30   14   15 1
    31   15   16 1
    32   15   45 1
    33   15   46 1
    34   16   17 1
    35   16   47 1
    36   16   48 1
    37   17   18 2
    38   17   19 1
    39   19   20 2
    40   19   49 1
    41   20   21 1
    42   21   22 1
    43   21   50 1
    44   21   51 1
    45   22   23 1
    46   22   52 1
    47   22   53 1
    48   23   24 1
    49   25   30 ar
    50   25   26 ar
    51   26   27 ar
    52   26   54 1
    53   27   28 ar
    54   27   55 1
    55   28   29 ar
    56   28   31 1
    57   29   30 ar
    58   29   56 1
    59   30   57 1
    60   31   32 1
    61   31   33 1
    62   32   58 1
    63   32   59 1
    64   32   60 1
    65   33   61 1
    66   33   62 1
    67   33   63 1
    68   34   64 1
    69   34   65 1
    70   34   66 1
    71   35   67 1
@<TRIPOS>MOLECULE
ZINC03833821
   54    57     0     0     0
SMALL
NO_CHARGES

@<TRIPOS>ATOM
      1 C1         -0.7520    1.6588   -0.1667 C.3       1 <0>        -0.1663
      2 C2         -0.9770    0.1457   -0.1413 C.3       1 <0>        -0.0388
      3 C3         -2.2972   -0.1663    0.5373 C.3       1 <0>        -0.1261
      4 C4         -2.2689    0.5080    1.9180 C.3       1 <0>         0.1082
      5 H1         -3.1924    0.2731    2.4472 H         1 <0>         0.0604
      6 C5         -1.0827    0.0350    2.7533 C.3       1 <0>        -0.0524
      7 H2         -1.2058   -1.0229    2.9849 H         1 <0>         0.0866
      8 C6          0.2486    0.2394    2.0127 C.3       1 <0>        -0.0814
      9 H3          0.4066    1.3018    1.8270 H         1 <0>         0.1028
     10 C7          0.1391   -0.5386    0.6930 C.3       1 <0>        -0.0780
     11 H4         -0.1092   -1.5841    0.8759 H         1 <0>         0.0846
     12 C8          1.3459   -0.4177   -0.2439 C.3       1 <0>        -0.1120
     13 C9          0.7399   -0.7462   -1.6357 C.3       1 <0>        -0.1478
     14 C10        -0.7736   -0.4308   -1.5386 C.3       1 <0>         0.1037
     15 C11        -1.1639    0.5826   -2.5834 C.2       1 <0>         0.3356
     16 O1         -0.3311    1.3258   -3.0444 O.2       1 <0>        -0.4139
     17 C12        -2.5933    0.6686   -3.0529 C.3       1 <0>         0.0292
     18 O2         -2.7101    1.6977   -4.0376 O.3       1 <0>        -0.5558
     19 O3         -1.5397   -1.6267   -1.6970 O.3       1 <0>        -0.5395
     20 C13         1.3968   -0.3125    2.8596 C.3       1 <0>        -0.1141
     21 C14         1.5075    0.4888    4.1606 C.3       1 <0>        -0.0960
     22 C15         0.1584    0.4521    4.8538 C.2       1 <0>        -0.0243
     23 C16         0.1019    0.0895    6.1279 C.2       1 <0>        -0.2310
     24 C17        -1.1894    0.0201    6.8291 C.2       1 <0>         0.4075
     25 O4         -1.2417   -0.2722    8.0092 O.2       1 <0>        -0.4610
     26 C18        -2.4174    0.3120    6.0704 C.2       1 <0>        -0.2221
     27 C19        -2.3362    0.6803    4.8015 C.2       1 <0>        -0.0651
     28 C20        -1.0322    0.8343    4.0586 C.3       1 <0>        -0.0103
     29 C21        -0.8801    2.3122    3.6932 C.3       1 <0>        -0.1338
     30 O5         -2.1793    1.9234    1.7436 O.3       1 <0>        -0.5459
     31 H5          0.1094    1.8876   -0.7941 H         1 <0>         0.0526
     32 H6         -1.6367    2.1510   -0.5706 H         1 <0>         0.0495
     33 H7         -0.5684    2.0159    0.8467 H         1 <0>         0.1148
     34 H8         -3.1217    0.2324   -0.0537 H         1 <0>         0.0675
     35 H9         -2.4094   -1.2444    0.6529 H         1 <0>         0.0847
     36 H10         1.7470    0.5957   -0.2274 H         1 <0>         0.0739
     37 H11         2.1152   -1.1425    0.0225 H         1 <0>         0.0724
     38 H12         1.2032   -0.1244   -2.4017 H         1 <0>         0.0846
     39 H13         0.8881   -1.8006   -1.8689 H         1 <0>         0.0802
     40 H14        -2.8910   -0.2856   -3.4876 H         1 <0>         0.0817
     41 H15        -3.2403    0.9002   -2.2069 H         1 <0>         0.0808
     42 H16        -3.6054    1.8095   -4.3853 H         1 <0>         0.3862
     43 H17        -1.4500   -2.0388   -2.5672 H         1 <0>         0.3798
     44 H18         1.2044   -1.3596    3.0935 H         1 <0>         0.0668
     45 H19         2.3302   -0.2310    2.3027 H         1 <0>         0.0752
     46 H20         2.2645    0.0418    4.8049 H         1 <0>         0.0800
     47 H21         1.7776    1.5206    3.9355 H         1 <0>         0.0861
     48 H22         1.0116   -0.1573    6.6552 H         1 <0>         0.1356
     49 H23        -3.3822    0.2255    6.5481 H         1 <0>         0.1372
     50 H24        -3.2561    0.8801    4.2721 H         1 <0>         0.1262
     51 H25        -1.8492    2.7154    3.3993 H         1 <0>         0.0948
     52 H26        -0.5039    2.8628    4.5554 H         1 <0>         0.0440
     53 H27        -0.1789    2.4114    2.8646 H         1 <0>         0.0739
     54 H28        -2.9172    2.3063    1.2496 H         1 <0>         0.3686
@<TRIPOS>BOND
     1    1    2 1
     2    1   31 1
     3    1   32 1
     4    1   33 1
     5    2   10 1
     6    2   14 1
     7    2    3 1
     8    3    4 1
     9    3   34 1
    10    3   35 1
    11    4    5 1
    12    4    6 1
    13    4   30 1
    14    6    7 1
    15    6   28 1
    16    6    8 1
    17    8    9 1
    18    8   10 1
    19    8   20 1
    20   10   11 1
    21   10   12 1
    22   12   13 1
    23   12   36 1
    24   12   37 1
    25   13   14 1
    26   13   38 1
    27   13   39 1
    28   14   15 1
    29   14   19 1
    30   15   16 2
    31   15   17 1
    32   17   18 1
    33   17   40 1
    34   17   41 1
    35   18   42 1
    36   19   43 1
    37   20   21 1
    38   20   44 1
    39   20   45 1
    40   21   22 1
    41   21   46 1
    42   21   47 1
    43   22   28 1
    44   22   23 2
    45   23   24 1
    46   23   48 1
    47   24   25 2
    48   24   26 1
    49   26   27 2
    50   26   49 1
    51   27   28 1
    52   27   50 1
    53   28   29 1
    54   29   51 1
    55   29   52 1
    56   29   53 1
    57   30   54 1
@<TRIPOS>MOLECULE
ZINC03861599
   61    65     0     0     0
SMALL
USER_CHARGES

@<TRIPOS>ATOM
      1 C1         -0.0184    1.5028    0.0103 C.3       1 <0>        -0.1834
      2 C2          0.0021   -0.0041    0.0020 C.2       1 <0>         0.2952
      3 O1          1.0609   -0.5963   -0.0113 O.2       1 <0>        -0.4628
      4 S1         -1.4241   -0.8535    0.0111 S.3       1 <0>        -0.0865
      5 C3         -0.9005   -2.5903   -0.0033 C.3       1 <0>        -0.0601
      6 H1         -0.2231   -2.7735    0.8309 H         1 <0>         0.1085
      7 C4         -0.1848   -2.8979   -1.3203 C.3       1 <0>        -0.0972
      8 C5         -1.1754   -2.7526   -2.4610 C.2       1 <0>        -0.0183
      9 C6         -0.8008   -2.0328   -3.5185 C.2       1 <0>        -0.2315
     10 C7         -1.7119   -1.8719   -4.6568 C.2       1 <0>         0.3896
     11 O2         -1.5963   -0.9548   -5.4427 O.2       1 <0>        -0.4548
     12 C8         -2.8054   -2.9124   -4.7998 C.3       1 <0>        -0.1675
     13 C9         -3.4907   -3.0448   -3.4405 C.3       1 <0>        -0.1034
     14 C10        -2.5067   -3.4292   -2.3500 C.3       1 <0>        -0.0255
     15 C11        -3.1324   -3.1361   -0.9805 C.3       1 <0>        -0.0732
     16 H2         -3.3553   -2.0713   -0.9129 H         1 <0>         0.0859
     17 C12        -2.1284   -3.4962    0.1260 C.3       1 <0>        -0.0598
     18 H3         -1.8316   -4.5409    0.0333 H         1 <0>         0.1084
     19 C13        -2.8065   -3.2536    1.4620 C.3       1 <0>        -0.0867
     20 H4         -3.1622   -2.2252    1.5250 H         1 <0>         0.0929
     21 C14        -1.9786   -3.6091    2.7028 C.3       1 <0>        -0.1134
     22 C15        -3.0641   -3.8464    3.7912 C.3       1 <0>        -0.1439
     23 C16        -4.3520   -4.2185    3.0328 C.3       1 <0>         0.1193
     24 C17        -3.9981   -4.2470    1.5548 C.3       1 <0>        -0.0467
     25 C18        -5.0436   -3.7809    0.5608 C.3       1 <0>        -0.1049
     26 C19        -4.4313   -3.9253   -0.8461 C.3       1 <0>        -0.1212
     27 C20        -3.5271   -5.6532    1.1784 C.3       1 <0>        -0.1475
     28 C21        -5.4589   -3.1890    3.3175 C.3       1 <0>        -0.1503
     29 C22        -6.2810   -3.8924    4.4267 C.3       1 <0>        -0.1865
     30 C23        -5.5352   -5.1989    4.6547 C.2       1 <0>         0.4823
     31 O3         -5.5324   -5.8644    5.6632 O.2       1 <0>        -0.4395
     32 O4         -4.8739   -5.4684    3.5007 O.3       1 <0>        -0.3359
     33 C24        -2.2779   -4.9398   -2.4307 C.3       1 <0>        -0.1534
     34 H5          1.0042    1.8801    0.0026 H         1 <0>         0.0923
     35 H6         -0.5455    1.8639   -0.8728 H         1 <0>         0.0982
     36 H7         -0.5286    1.8543    0.9071 H         1 <0>         0.0977
     37 H8          0.6390   -2.1980   -1.4605 H         1 <0>         0.0924
     38 H9          0.1995   -3.9176   -1.2978 H         1 <0>         0.0984
     39 H10         0.1736   -1.5675   -3.5370 H         1 <0>         0.1313
     40 H11        -3.5282   -2.5897   -5.5493 H         1 <0>         0.0938
     41 H12        -2.3710   -3.8689   -5.0905 H         1 <0>         0.1002
     42 H13        -3.9536   -2.0925   -3.1816 H         1 <0>         0.0719
     43 H14        -4.2653   -3.8089   -3.5059 H         1 <0>         0.0853
     44 H15        -1.3988   -4.5162    2.5325 H         1 <0>         0.0749
     45 H16        -1.3274   -2.7808    2.9820 H         1 <0>         0.0735
     46 H17        -2.7654   -4.6639    4.4474 H         1 <0>         0.0789
     47 H18        -3.2196   -2.9365    4.3710 H         1 <0>         0.0819
     48 H19        -5.9363   -4.4010    0.6426 H         1 <0>         0.0727
     49 H20        -5.2965   -2.7376    0.7498 H         1 <0>         0.0726
     50 H21        -5.1455   -3.5623   -1.5851 H         1 <0>         0.0725
     51 H22        -4.2282   -4.9789   -1.0382 H         1 <0>         0.0787
     52 H23        -2.7398   -5.9681    1.8633 H         1 <0>         0.0589
     53 H24        -4.3652   -6.3470    1.2446 H         1 <0>         0.0640
     54 H25        -3.1408   -5.6463    0.1592 H         1 <0>         0.0689
     55 H26        -5.0346   -2.2537    3.6826 H         1 <0>         0.0947
     56 H27        -6.0691   -3.0196    2.4303 H         1 <0>         0.0996
     57 H28        -6.2891   -3.2921    5.3365 H         1 <0>         0.1070
     58 H29        -7.2978   -4.0862    4.0853 H         1 <0>         0.1151
     59 H30        -1.6274   -5.2529   -1.6141 H         1 <0>         0.0630
     60 H31        -3.2342   -5.4569   -2.3522 H         1 <0>         0.0727
     61 H32        -1.8090   -5.1859   -3.3835 H         1 <0>         0.0606
@<TRIPOS>BOND
     1    1    2 1
     2    1   34 1
     3    1   35 1
     4    1   36 1
     5    2    3 2
     6    2    4 1
     7    4    5 1
     8    5    6 1
     9    5   17 1
    10    5    7 1
    11    7    8 1
    12    7   37 1
    13    7   38 1
    14    8   14 1
    15    8    9 2
    16    9   10 1
    17    9   39 1
    18   10   11 2
    19   10   12 1
    20   12   13 1
    21   12   40 1
    22   12   41 1
    23   13   14 1
    24   13   42 1
    25   13   43 1
    26   14   15 1
    27   14   33 1
    28   15   16 1
    29   15   26 1
    30   15   17 1
    31   17   18 1
    32   17   19 1
    33   19   20 1
    34   19   24 1
    35   19   21 1
    36   21   22 1
    37   21   44 1
    38   21   45 1
    39   22   23 1
    40   22   46 1
    41   22   47 1
    42   23   32 1
    43   23   24 1
    44   23   28 1
    45   24   25 1
    46   24   27 1
    47   25   26 1
    48   25   48 1
    49   25   49 1
    50   26   50 1
    51   26   51 1
    52   27   52 1
    53   27   53 1
    54   27   54 1
    55   28   29 1
    56   28   55 1
    57   28   56 1
    58   29   30 1
    59   29   57 1
    60   29   58 1
    61   30   31 2
    62   30   32 1
    63   33   59 1
    64   33   60 1
    65   33   61 1
@<TRIPOS>MOLECULE
ZINC04475232
   51    54     0     0     0
SMALL
USER_CHARGES

@<TRIPOS>ATOM
      1 C1          0.1266    1.4493   -0.0038 C.3       1 <0>        -0.1352
      2 C2          0.0875   -0.0572   -0.0003 C.2       1 <0>        -0.0540
      3 C3         -1.0796   -0.6912   -0.0005 C.2       1 <0>        -0.2202
      4 C4         -2.4342   -0.0965   -0.0188 C.2       1 <0>         0.3900
      5 O1         -2.7031    1.0704   -0.2053 O.2       1 <0>        -0.4430
      6 C5         -3.4386   -1.2188    0.2584 C.3       1 <0>        -0.1690
      7 C6         -2.5457   -2.2885    0.9098 C.3       1 <0>        -0.0677
      8 H1         -2.2811   -1.9406    1.9299 H         1 <0>         0.0796
      9 C7         -1.2987   -2.1921    0.0027 C.3       1 <0>        -0.0145
     10 C8         -0.1792   -3.0135    0.5805 C.3       1 <0>        -0.1022
     11 C9         -0.6632   -4.3944    1.0290 C.3       1 <0>        -0.1119
     12 C10        -2.0729   -4.7310    0.5752 C.3       1 <0>        -0.0661
     13 H2         -2.0936   -4.8527   -0.5133 H         1 <0>         0.0832
     14 C11        -3.0947   -3.6799    0.9903 C.3       1 <0>        -0.0679
     15 H3         -3.3359   -3.8761    2.0558 H         1 <0>         0.0675
     16 C12        -4.4026   -3.8468    0.2244 C.3       1 <0>        -0.1101
     17 C13        -4.7228   -5.3326    0.0451 C.3       1 <0>        -0.0967
     18 C14        -4.0187   -6.1197    1.1264 C.2       1 <0>        -0.0155
     19 C15        -4.7138   -6.8171    2.0158 C.2       1 <0>        -0.2401
     20 C16        -4.0460   -7.5731    3.0723 C.2       1 <0>         0.3875
     21 O2         -4.7043   -8.2473    3.8390 O.2       1 <0>        -0.4656
     22 C17        -2.5488   -7.5196    3.2195 C.3       1 <0>        -0.1692
     23 C18        -2.0072   -6.2352    2.5879 C.3       1 <0>        -0.1060
     24 C19        -2.5092   -6.0886    1.1582 C.3       1 <0>        -0.0356
     25 C20        -1.9540   -7.2105    0.2790 C.3       1 <0>        -0.1403
     26 C21        -1.5881   -2.5953   -1.4442 C.3       1 <0>        -0.1461
     27 H4          1.1634    1.7858   -0.0030 H         1 <0>         0.0662
     28 H5         -0.3762    1.8237   -0.8954 H         1 <0>         0.0786
     29 H6         -0.3789    1.8280    0.8845 H         1 <0>         0.0741
     30 H7          1.0085   -0.6213    0.0025 H         1 <0>         0.1257
     31 H8         -4.1981   -0.8774    0.9655 H         1 <0>         0.0924
     32 H9         -3.9008   -1.5678   -0.6566 H         1 <0>         0.1096
     33 H10         0.6151   -3.1335   -0.1709 H         1 <0>         0.0637
     34 H11         0.2606   -2.4884    1.4407 H         1 <0>         0.0646
     35 H12         0.0326   -5.1531    0.6461 H         1 <0>         0.0663
     36 H13        -0.6153   -4.4386    2.1262 H         1 <0>         0.0669
     37 H14        -5.2081   -3.3733    0.7815 H         1 <0>         0.0707
     38 H15        -4.3134   -3.3878   -0.7568 H         1 <0>         0.0723
     39 H16        -5.7987   -5.4809    0.1298 H         1 <0>         0.0776
     40 H17        -4.3798   -5.6622   -0.9330 H         1 <0>         0.0840
     41 H18        -5.7928   -6.8279    1.9574 H         1 <0>         0.1302
     42 H19        -2.2955   -7.5260    4.2855 H         1 <0>         0.0948
     43 H20        -2.0961   -8.3922    2.7522 H         1 <0>         0.1027
     44 H21        -2.3273   -5.3764    3.1818 H         1 <0>         0.0726
     45 H22        -0.9138   -6.2741    2.5900 H         1 <0>         0.0829
     46 H23        -0.8658   -7.1519    0.2593 H         1 <0>         0.0673
     47 H24        -2.2587   -8.1750    0.6852 H         1 <0>         0.0592
     48 H25        -2.3420   -7.1040   -0.7341 H         1 <0>         0.0615
     49 H26        -0.8000   -2.2125   -2.0927 H         1 <0>         0.0582
     50 H27        -1.6236   -3.6822   -1.5183 H         1 <0>         0.0695
     51 H28        -2.5469   -2.1786   -1.7527 H         1 <0>         0.0576
@<TRIPOS>BOND
     1    1    2 1
     2    1   27 1
     3    1   28 1
     4    1   29 1
     5    2    3 2
     6    2   30 1
     7    3    9 1
     8    3    4 1
     9    4    5 2
    10    4    6 1
    11    6    7 1
    12    6   31 1
    13    6   32 1
    14    7    8 1
    15    7   14 1
    16    7    9 1
    17    9   10 1
    18    9   26 1
    19   10   11 1
    20   10   33 1
    21   10   34 1
    22   11   12 1
    23   11   35 1
    24   11   36 1
    25   12   13 1
    26   12   24 1
    27   12   14 1
    28   14   15 1
    29   14   16 1
    30   16   17 1
    31   16   37 1
    32   16   38 1
    33   17   18 1
    34   17   39 1
    35   17   40 1
    36   18   24 1
    37   18   19 2
    38   19   20 1
    39   19   41 1
    40   20   21 2
    41   20   22 1
    42   22   23 1
    43   22   42 1
    44   22   43 1
    45   23   24 1
    46   23   44 1
    47   23   45 1
    48   24   25 1
    49   25   46 1
    50   25   47 1
    51   25   48 1
    52   26   49 1
    53   26   50 1
    54   26   51 1
@<TRIPOS>MOLECULE
ZINC04475234
   51    54     0     0     0
SMALL
USER_CHARGES

@<TRIPOS>ATOM
      1 C1         -0.0184    1.5028    0.0103 C.3       1 <0>        -0.1353
      2 C2          0.0021   -0.0041    0.0020 C.2       1 <0>        -0.0539
      3 C3         -1.1385   -0.6835    0.0093 C.2       1 <0>        -0.2180
      4 C4         -2.5201   -0.1466    0.0096 C.2       1 <0>         0.3902
      5 O1         -2.8416    1.0081   -0.1703 O.2       1 <0>        -0.4423
      6 C5         -3.4731   -1.3136    0.2977 C.3       1 <0>        -0.1677
      7 C6         -2.5201   -2.3335    0.9395 C.3       1 <0>        -0.0708
      8 H1         -2.2472   -1.9480    1.9512 H         1 <0>         0.0789
      9 C7         -1.3045   -2.1857    0.0028 C.3       1 <0>        -0.0196
     10 C8         -0.1586   -3.0188    0.5126 C.3       1 <0>        -0.1038
     11 C9         -0.6143   -4.4932    0.5645 C.3       1 <0>        -0.1091
     12 C10        -1.8242   -4.6466    1.4643 C.3       1 <0>        -0.0637
     13 H2         -1.4904   -4.2669    2.4567 H         1 <0>         0.0651
     14 C11        -2.9975   -3.7534    1.0802 C.3       1 <0>        -0.0563
     15 H3         -3.6813   -3.7654    1.9734 H         1 <0>         0.0643
     16 C12        -3.8431   -4.2273   -0.0784 C.3       1 <0>        -0.1112
     17 C13        -3.5792   -5.6842   -0.4472 C.3       1 <0>        -0.0916
     18 C14        -3.4005   -6.4537    0.8374 C.2       1 <0>        -0.0155
     19 C15        -4.2433   -7.4203    1.1787 C.2       1 <0>        -0.2416
     20 C16        -4.0933   -8.1386    2.4421 C.2       1 <0>         0.3883
     21 O2         -4.7922   -9.1057    2.6718 O.2       1 <0>        -0.4658
     22 C17        -3.0911   -7.6792    3.4685 C.3       1 <0>        -0.1678
     23 C18        -2.6654   -6.2395    3.1862 C.3       1 <0>        -0.1062
     24 C19        -2.2347   -6.0868    1.7223 C.3       1 <0>        -0.0273
     25 C20        -1.0806   -7.0505    1.4396 C.3       1 <0>        -0.1410
     26 C21        -1.6030   -2.5786   -1.4441 C.3       1 <0>        -0.1454
     27 H4          1.0042    1.8801    0.0026 H         1 <0>         0.0663
     28 H5         -0.5455    1.8639   -0.8728 H         1 <0>         0.0785
     29 H6         -0.5286    1.8543    0.9071 H         1 <0>         0.0738
     30 H7          0.9446   -0.5313   -0.0098 H         1 <0>         0.1258
     31 H8         -4.2363   -1.0050    1.0173 H         1 <0>         0.0916
     32 H9         -3.9337   -1.6870   -0.6070 H         1 <0>         0.1084
     33 H10         0.6993   -2.9298   -0.1571 H         1 <0>         0.0678
     34 H11         0.1282   -2.6935    1.5145 H         1 <0>         0.0660
     35 H12        -0.8231   -4.8621   -0.4313 H         1 <0>         0.0703
     36 H13         0.2379   -5.0489    0.9770 H         1 <0>         0.0669
     37 H14        -4.9021   -4.1735    0.2433 H         1 <0>         0.0574
     38 H15        -3.7661   -3.6025   -0.9501 H         1 <0>         0.0786
     39 H16        -4.4283   -6.0801   -0.9998 H         1 <0>         0.0780
     40 H17        -2.6768   -5.7519   -1.0495 H         1 <0>         0.0842
     41 H18        -5.0513   -7.6824    0.5115 H         1 <0>         0.1307
     42 H19        -3.5597   -7.7222    4.4604 H         1 <0>         0.0954
     43 H20        -2.2292   -8.3432    3.4742 H         1 <0>         0.1038
     44 H21        -3.5008   -5.5648    3.3838 H         1 <0>         0.0713
     45 H22        -1.8293   -5.9700    3.8342 H         1 <0>         0.0796
     46 H23        -0.2379   -6.8080    2.0869 H         1 <0>         0.0669
     47 H24        -1.4052   -8.0729    1.6333 H         1 <0>         0.0586
     48 H25        -0.7765   -6.9572    0.3970 H         1 <0>         0.0644
     49 H26        -0.7619   -2.2973   -2.0778 H         1 <0>         0.0586
     50 H27        -1.7583   -3.6558   -1.5034 H         1 <0>         0.0691
     51 H28        -2.5015   -2.0628   -1.7827 H         1 <0>         0.0550
@<TRIPOS>BOND
     1    1    2 1
     2    1   27 1
     3    1   28 1
     4    1   29 1
     5    2    3 2
     6    2   30 1
     7    3    9 1
     8    3    4 1
     9    4    5 2
    10    4    6 1
    11    6    7 1
    12    6   31 1
    13    6   32 1
    14    7    8 1
    15    7   14 1
    16    7    9 1
    17    9   10 1
    18    9   26 1
    19   10   11 1
    20   10   33 1
    21   10   34 1
    22   11   12 1
    23   11   35 1
    24   11   36 1
    25   12   13 1
    26   12   24 1
    27   12   14 1
    28   14   15 1
    29   14   16 1
    30   16   17 1
    31   16   37 1
    32   16   38 1
    33   17   18 1
    34   17   39 1
    35   17   40 1
    36   18   24 1
    37   18   19 2
    38   19   20 1
    39   19   41 1
    40   20   21 2
    41   20   22 1
    42   22   23 1
    43   22   42 1
    44   22   43 1
    45   23   24 1
    46   23   44 1
    47   23   45 1
    48   24   25 1
    49   25   46 1
    50   25   47 1
    51   25   48 1
    52   26   49 1
    53   26   50 1
    54   26   51 1
@<TRIPOS>MOLECULE
ZINC04475235
   51    54     0     0     0
SMALL
USER_CHARGES

@<TRIPOS>ATOM
      1 C1         -0.0184    1.5028    0.0103 C.3       1 <0>        -0.1334
      2 C2          0.0021   -0.0041    0.0020 C.2       1 <0>        -0.0532
      3 C3         -1.1437   -0.6865    0.0093 C.2       1 <0>        -0.2116
      4 C4         -2.4987   -0.1061    0.0105 C.2       1 <0>         0.3897
      5 O1         -2.7671    1.0739   -0.0795 O.2       1 <0>        -0.4460
      6 C5         -3.4986   -1.2425    0.1495 C.3       1 <0>        -0.1810
      7 C6         -2.6567   -2.4154    0.7318 C.3       1 <0>        -0.0649
      8 H1         -3.0910   -3.3884    0.5115 H         1 <0>         0.1016
      9 C7         -1.3161   -2.1830    0.0029 C.3       1 <0>        -0.0123
     10 C8         -0.1729   -2.9564    0.6004 C.3       1 <0>        -0.1049
     11 C9         -0.0654   -2.8530    2.1109 C.3       1 <0>        -0.1071
     12 C10        -1.3920   -3.0179    2.8397 C.3       1 <0>        -0.0593
     13 H2         -1.2181   -2.5767    3.8629 H         1 <0>         0.0612
     14 C11        -2.4721   -2.1558    2.2224 C.3       1 <0>        -0.0708
     15 H3         -2.1458   -1.0993    2.3272 H         1 <0>         0.0681
     16 C12        -3.7937   -2.2800    2.9746 C.3       1 <0>        -0.1151
     17 C13        -4.2542   -3.7382    2.9711 C.3       1 <0>        -0.0976
     18 C14        -3.1691   -4.5773    3.6190 C.2       1 <0>        -0.0138
     19 C15        -3.5177   -5.3654    4.6323 C.2       1 <0>        -0.2438
     20 C16        -2.5366   -6.2231    5.3004 C.2       1 <0>         0.3875
     21 O2         -2.7964   -6.7853    6.3472 O.2       1 <0>        -0.4613
     22 C17        -1.1945   -6.4062    4.6234 C.3       1 <0>        -0.1670
     23 C18        -0.7465   -5.0605    4.0667 C.3       1 <0>        -0.1085
     24 C19        -1.7654   -4.4686    3.0933 C.3       1 <0>        -0.0175
     25 C20        -1.7000   -5.2988    1.8142 C.3       1 <0>        -0.1490
     26 C21        -1.4835   -2.6375   -1.4545 C.3       1 <0>        -0.1460
     27 H4          1.0042    1.8801    0.0026 H         1 <0>         0.0652
     28 H5         -0.5455    1.8639   -0.8728 H         1 <0>         0.0785
     29 H6         -0.5286    1.8543    0.9071 H         1 <0>         0.0756
     30 H7          0.9446   -0.5313   -0.0098 H         1 <0>         0.1248
     31 H8         -4.2969   -0.9592    0.8383 H         1 <0>         0.0964
     32 H9         -3.9247   -1.5058   -0.8177 H         1 <0>         0.1045
     33 H10        -0.2149   -3.9934    0.2761 H         1 <0>         0.0750
     34 H11         0.7647   -2.5568    0.1697 H         1 <0>         0.0567
     35 H12         0.6477   -3.6062    2.4748 H         1 <0>         0.0684
     36 H13         0.3616   -1.8710    2.3711 H         1 <0>         0.0606
     37 H14        -3.6552   -1.9504    4.0084 H         1 <0>         0.0671
     38 H15        -4.5542   -1.6554    2.5073 H         1 <0>         0.0747
     39 H16        -5.1779   -3.8304    3.5442 H         1 <0>         0.0770
     40 H17        -4.4245   -4.0720    1.9501 H         1 <0>         0.0864
     41 H18        -4.5477   -5.3720    4.9695 H         1 <0>         0.1315
     42 H19        -0.4632   -6.7594    5.3582 H         1 <0>         0.0922
     43 H20        -1.2750   -7.1447    3.8265 H         1 <0>         0.1022
     44 H21        -0.6083   -4.3592    4.8891 H         1 <0>         0.0679
     45 H22         0.2000   -5.1861    3.5424 H         1 <0>         0.0819
     46 H23        -0.6867   -5.2699    1.4136 H         1 <0>         0.0704
     47 H24        -1.9736   -6.3303    2.0362 H         1 <0>         0.0571
     48 H25        -2.3930   -4.8892    1.0793 H         1 <0>         0.0649
     49 H26        -0.5873   -2.3820   -2.0199 H         1 <0>         0.0577
     50 H27        -1.6360   -3.7164   -1.4834 H         1 <0>         0.0626
     51 H28        -2.3458   -2.1367   -1.8945 H         1 <0>         0.0567
@<TRIPOS>BOND
     1    1    2 1
     2    1   27 1
     3    1   28 1
     4    1   29 1
     5    2    3 2
     6    2   30 1
     7    3    9 1
     8    3    4 1
     9    4    5 2
    10    4    6 1
    11    6    7 1
    12    6   31 1
    13    6   32 1
    14    7    8 1
    15    7   14 1
    16    7    9 1
    17    9   10 1
    18    9   26 1
    19   10   11 1
    20   10   33 1
    21   10   34 1
    22   11   12 1
    23   11   35 1
    24   11   36 1
    25   12   13 1
    26   12   24 1
    27   12   14 1
    28   14   15 1
    29   14   16 1
    30   16   17 1
    31   16   37 1
    32   16   38 1
    33   17   18 1
    34   17   39 1
    35   17   40 1
    36   18   24 1
    37   18   19 2
    38   19   20 1
    39   19   41 1
    40   20   21 2
    41   20   22 1
    42   22   23 1
    43   22   42 1
    44   22   43 1
    45   23   24 1
    46   23   44 1
    47   23   45 1
    48   24   25 1
    49   25   46 1
    50   25   47 1
    51   25   48 1
    52   26   49 1
    53   26   50 1
    54   26   51 1
@<TRIPOS>MOLECULE
ZINC13783217
   51    54     0     0     0
SMALL
USER_CHARGES

@<TRIPOS>ATOM
      1 C1         -0.0246    1.5012   -0.0652 C.3       1 <0>        -0.1446
      2 C2          0.0021   -0.0041    0.0020 C.2       1 <0>        -0.0544
      3 C3         -1.1391   -0.6875    0.1100 C.2       1 <0>        -0.2100
      4 C4         -1.2761   -2.1485    0.2273 C.2       1 <0>         0.3914
      5 O1         -0.3675   -2.9523    0.2498 O.2       1 <0>        -0.4493
      6 C5         -2.7592   -2.4702    0.3160 C.3       1 <0>        -0.1794
      7 C6         -3.4400   -1.2429   -0.3645 C.3       1 <0>        -0.0670
      8 H1         -4.4754   -1.1126   -0.0498 H         1 <0>         0.0980
      9 C7         -2.5321   -0.1077    0.1414 C.3       1 <0>        -0.0144
     10 C8         -2.6648    1.1552   -0.6785 C.3       1 <0>        -0.1298
     11 C9         -2.4155    0.8605   -2.1550 C.3       1 <0>        -0.1221
     12 C10        -3.4580   -0.1552   -2.6463 C.3       1 <0>        -0.0606
     13 H2         -4.4594    0.2515   -2.5057 H         1 <0>         0.0814
     14 C11        -3.3200   -1.4716   -1.8764 C.3       1 <0>        -0.0731
     15 H3         -2.3360   -1.8923   -2.0835 H         1 <0>         0.0671
     16 C12        -4.3674   -2.5138   -2.2603 C.3       1 <0>        -0.1116
     17 C13        -4.7868   -2.4171   -3.7195 C.3       1 <0>        -0.0935
     18 C14        -3.6671   -1.8028   -4.5220 C.2       1 <0>        -0.0198
     19 C15        -3.1040   -2.4721   -5.5226 C.2       1 <0>        -0.2427
     20 C16        -2.0096   -1.8893   -6.2966 C.2       1 <0>         0.3872
     21 O2         -1.5248   -2.5065   -7.2219 O.2       1 <0>        -0.4644
     22 C17        -1.4837   -0.5201   -5.9450 C.3       1 <0>        -0.1698
     23 C18        -1.7207   -0.2654   -4.4524 C.3       1 <0>        -0.1089
     24 C19        -3.1973   -0.3758   -4.1420 C.3       1 <0>        -0.0304
     25 C20        -3.9843    0.6549   -4.9540 C.3       1 <0>        -0.1414
     26 C21        -2.9009    0.2201    1.5896 C.3       1 <0>        -0.1431
     27 H4         -0.5743    1.8934    0.7904 H         1 <0>         0.0784
     28 H5          0.9959    1.8838   -0.0478 H         1 <0>         0.0662
     29 H6         -0.5146    1.8151   -0.9868 H         1 <0>         0.0910
     30 H7          0.9447   -0.5298   -0.0372 H         1 <0>         0.1230
     31 H8         -2.9864   -3.3862   -0.2293 H         1 <0>         0.0949
     32 H9         -3.0720   -2.5543    1.3567 H         1 <0>         0.1045
     33 H10        -3.6693    1.5603   -0.5564 H         1 <0>         0.0681
     34 H11        -1.9384    1.8893   -0.3299 H         1 <0>         0.0880
     35 H12        -2.5045    1.7818   -2.7308 H         1 <0>         0.0693
     36 H13        -1.4152    0.4460   -2.2803 H         1 <0>         0.0722
     37 H14        -3.9585   -3.5074   -2.0769 H         1 <0>         0.0661
     38 H15        -5.2472   -2.3763   -1.6316 H         1 <0>         0.0714
     39 H16        -5.0038   -3.4144   -4.1023 H         1 <0>         0.0769
     40 H17        -5.6773   -1.7940   -3.8015 H         1 <0>         0.0844
     41 H18        -3.4602   -3.4618   -5.7673 H         1 <0>         0.1302
     42 H19        -0.4157   -0.4735   -6.1582 H         1 <0>         0.0953
     43 H20        -2.0080    0.2341   -6.5318 H         1 <0>         0.1037
     44 H21        -1.1571   -0.9898   -3.8645 H         1 <0>         0.0718
     45 H22        -1.3973    0.7441   -4.1985 H         1 <0>         0.0837
     46 H23        -3.6652    1.6588   -4.6737 H         1 <0>         0.0673
     47 H24        -3.7992    0.4984   -6.0167 H         1 <0>         0.0599
     48 H25        -5.0491    0.5419   -4.7501 H         1 <0>         0.0619
     49 H26        -2.2071    0.9636    1.9819 H         1 <0>         0.0585
     50 H27        -3.9159    0.6158    1.6254 H         1 <0>         0.0628
     51 H28        -2.8425   -0.6855    2.1934 H         1 <0>         0.0559
@<TRIPOS>BOND
     1    1    2 1
     2    1   27 1
     3    1   28 1
     4    1   29 1
     5    2    3 2
     6    2   30 1
     7    3    9 1
     8    3    4 1
     9    4    5 2
    10    4    6 1
    11    6    7 1
    12    6   31 1
    13    6   32 1
    14    7    8 1
    15    7   14 1
    16    7    9 1
    17    9   10 1
    18    9   26 1
    19   10   11 1
    20   10   33 1
    21   10   34 1
    22   11   12 1
    23   11   35 1
    24   11   36 1
    25   12   13 1
    26   12   24 1
    27   12   14 1
    28   14   15 1
    29   14   16 1
    30   16   17 1
    31   16   37 1
    32   16   38 1
    33   17   18 1
    34   17   39 1
    35   17   40 1
    36   18   24 1
    37   18   19 2
    38   19   20 1
    39   19   41 1
    40   20   21 2
    41   20   22 1
    42   22   23 1
    43   22   42 1
    44   22   43 1
    45   23   24 1
    46   23   44 1
    47   23   45 1
    48   24   25 1
    49   25   46 1
    50   25   47 1
    51   25   48 1
    52   26   49 1
    53   26   50 1
    54   26   51 1
@<TRIPOS>MOLECULE
ZINC03833824
   54    57     0     0     0
SMALL
USER_CHARGES

@<TRIPOS>ATOM
      1 C1          0.5308    1.1297    0.4529 C.3       1 <0>        -0.1357
      2 C2          0.6495   -0.3924    0.3526 C.3       1 <0>        -0.0249
      3 C3         -0.7227   -0.9881    0.6128 C.3       1 <0>        -0.1036
      4 C4         -1.0427   -1.0319    2.1067 C.3       1 <0>        -0.1670
      5 C5          0.0421   -1.8503    2.7793 C.2       1 <0>         0.3888
      6 O1         -0.2223   -2.7475    3.5520 O.2       1 <0>        -0.4590
      7 C6          1.4278   -1.5016    2.4472 C.2       1 <0>        -0.2471
      8 C7          1.7018   -0.8395    1.3201 C.2       1 <0>        -0.0152
      9 C8          3.1507   -0.4880    1.0360 C.3       1 <0>        -0.0971
     10 C9          3.4743   -0.8673   -0.4109 C.3       1 <0>        -0.1103
     11 C10         2.4766   -0.1784   -1.3462 C.3       1 <0>        -0.0900
     12 H1          2.4867    0.8977   -1.1733 H         1 <0>         0.1078
     13 C11         1.0717   -0.7392   -1.0803 C.3       1 <0>        -0.0632
     14 H2          1.1078   -1.8234   -1.1871 H         1 <0>         0.0824
     15 C12         0.0333   -0.1892   -2.0539 C.3       1 <0>         0.1037
     16 H3         -0.9154   -0.6994   -1.8871 H         1 <0>         0.0691
     17 C13         0.4603   -0.3911   -3.5163 C.3       1 <0>        -0.1362
     18 C14         1.8042    0.2906   -3.6881 C.3       1 <0>        -0.1206
     19 C15         2.8376   -0.4746   -2.7901 C.3       1 <0>        -0.0621
     20 H4          2.7716   -1.5450   -2.9853 H         1 <0>         0.0804
     21 C16         4.1794    0.0900   -3.2704 C.3       1 <0>        -0.1215
     22 C17         3.9959    0.1607   -4.8111 C.3       1 <0>        -0.1126
     23 C18         2.4317    0.2174   -5.0762 C.3       1 <0>        -0.1197
     24 H5          2.0916   -0.6774   -5.5976 H         1 <0>         0.1106
     25 C19         2.0853    1.4497   -5.8714 C.2       1 <0>         0.3436
     26 O2          2.8268    2.4029   -5.8615 O.2       1 <0>        -0.4122
     27 C20         0.8137    1.4926   -6.6790 C.3       1 <0>         0.0255
     28 O3          0.7106    2.7562   -7.3383 O.3       1 <0>        -0.5538
     29 C21         1.7077    1.7282   -3.2464 C.2       1 <0>         0.3688
     30 O4          2.6295    2.2429   -2.6602 O.2       1 <0>        -0.4394
     31 O5         -0.1403    1.2080   -1.8095 O.3       1 <0>        -0.5485
     32 H6          1.3444    1.5950   -0.1035 H         1 <0>         0.0680
     33 H7         -0.4241    1.4480    0.0346 H         1 <0>         0.0879
     34 H8          0.5875    1.4304    1.4991 H         1 <0>         0.0404
     35 H9         -1.4749   -0.3842    0.1052 H         1 <0>         0.0833
     36 H10        -0.7525   -2.0016    0.2126 H         1 <0>         0.0646
     37 H11        -1.0500   -0.0207    2.5138 H         1 <0>         0.1005
     38 H12        -2.0131   -1.5025    2.2641 H         1 <0>         0.0914
     39 H13         2.2304   -1.7933    3.1083 H         1 <0>         0.1330
     40 H14         3.3011    0.5825    1.1756 H         1 <0>         0.0859
     41 H15         3.8007   -1.0420    1.7132 H         1 <0>         0.0777
     42 H16         4.4859   -0.5432   -0.6549 H         1 <0>         0.0738
     43 H17         3.3984   -1.9482   -0.5298 H         1 <0>         0.0642
     44 H18         0.5535   -1.4554   -3.7324 H         1 <0>         0.0894
     45 H19        -0.2736    0.0613   -4.1833 H         1 <0>         0.0769
     46 H20         4.3499    1.0838   -2.8564 H         1 <0>         0.0923
     47 H21         4.9963   -0.5829   -3.0099 H         1 <0>         0.0693
     48 H22         4.4884    1.0491   -5.2062 H         1 <0>         0.0816
     49 H23         4.4066   -0.7344   -5.2783 H         1 <0>         0.0712
     50 H24         0.8281    0.6952   -7.4220 H         1 <0>         0.0831
     51 H25        -0.0417    1.3572   -6.0172 H         1 <0>         0.0799
     52 H26        -0.0859    2.8545   -7.8778 H         1 <0>         0.3869
     53 H27         0.8141    2.2981   -3.4540 H         1 <0>         0.0866
     54 H28        -0.8479    1.6132   -2.3292 H         1 <0>         0.3711
@<TRIPOS>BOND
     1    1    2 1
     2    1   32 1
     3    1   33 1
     4    1   34 1
     5    2    8 1
     6    2   13 1
     7    2    3 1
     8    3    4 1
     9    3   35 1
    10    3   36 1
    11    4    5 1
    12    4   37 1
    13    4   38 1
    14    5    6 2
    15    5    7 1
    16    7    8 2
    17    7   39 1
    18    8    9 1
    19    9   10 1
    20    9   40 1
    21    9   41 1
    22   10   11 1
    23   10   42 1
    24   10   43 1
    25   11   12 1
    26   11   19 1
    27   11   13 1
    28   13   14 1
    29   13   15 1
    30   15   16 1
    31   15   17 1
    32   15   31 1
    33   17   18 1
    34   17   44 1
    35   17   45 1
    36   18   23 1
    37   18   19 1
    38   18   29 1
    39   19   20 1
    40   19   21 1
    41   21   22 1
    42   21   46 1
    43   21   47 1
    44   22   23 1
    45   22   48 1
    46   22   49 1
    47   23   24 1
    48   23   25 1
    49   25   26 2
    50   25   27 1
    51   27   28 1
    52   27   50 1
    53   27   51 1
    54   28   52 1
    55   29   30 2
    56   29   53 1
    57   31   54 1
@<TRIPOS>MOLECULE
ZINC03875332
   57    60     0     0     0
SMALL
USER_CHARGES

@<TRIPOS>ATOM
      1 C1          1.7167    1.2309    1.5187 C.3       1 <0>        -0.1455
      2 C2          1.3454   -0.1868    1.0794 C.3       1 <0>        -0.1160
      3 H1          2.1316   -0.6004    0.4477 H         1 <0>         0.0891
      4 C3         -0.0035   -0.1703    0.3097 C.3       1 <0>        -0.1065
      5 C4         -1.0253   -0.5076    1.4012 C.3       1 <0>        -0.0810
      6 H2         -1.1939    0.3572    2.0429 H         1 <0>         0.0898
      7 C5         -2.3489   -1.0698    0.9157 C.3       1 <0>        -0.1006
      8 H3         -2.1727   -1.9725    0.3308 H         1 <0>         0.1130
      9 C6         -3.0706   -0.0302    0.0559 C.3       1 <0>        -0.1154
     10 C7         -4.3873   -0.6154   -0.4645 C.3       1 <0>        -0.0951
     11 C8         -5.1933   -1.0974    0.7271 C.2       1 <0>        -0.0294
     12 C9         -6.4507   -0.6977    0.8564 C.2       1 <0>        -0.2208
     13 C10        -7.2574   -1.1277    2.0090 C.2       1 <0>         0.4077
     14 O1         -8.4233   -0.7949    2.1114 O.2       1 <0>        -0.4562
     15 C11        -6.6219   -1.9706    3.0360 C.2       1 <0>        -0.2091
     16 C12        -5.3670   -2.3631    2.8829 C.2       1 <0>        -0.0691
     17 C13        -4.5212   -2.0131    1.7070 C.3       1 <0>        -0.0316
     18 C14        -3.1875   -1.4118    2.1576 C.3       1 <0>         0.1617
     19 C15        -2.4590   -2.3846    3.0797 C.3       1 <0>         0.0883
     20 H4         -3.0477   -2.5237    3.9864 H         1 <0>         0.0725
     21 C16        -1.0633   -1.8673    3.4626 C.3       1 <0>        -0.1275
     22 C17        -0.2906   -1.6287    2.1842 C.3       1 <0>        -0.0389
     23 C18         1.1308   -1.0889    2.3202 C.3       1 <0>         0.1101
     24 C19         2.1234   -2.2228    2.3194 C.2       1 <0>         0.3354
     25 O2          2.5416   -2.6584    1.2736 O.2       1 <0>        -0.4125
     26 C20         2.5942   -2.8131    3.6236 C.3       1 <0>         0.0292
     27 O3          3.5247   -3.8656    3.3618 O.3       1 <0>        -0.5557
     28 O4          1.2564   -0.3206    3.5186 O.3       1 <0>        -0.5365
     29 C21        -0.2826   -2.9176    1.3599 C.3       1 <0>        -0.1713
     30 O5         -2.3223   -3.6426    2.4156 O.3       1 <0>        -0.5409
     31 F1         -3.4514   -0.2383    2.8722 F         1 <0>        -0.1921
     32 C22        -4.1781   -3.3115    0.9740 C.3       1 <0>        -0.1371
     33 H5          2.6440    1.2029    2.0910 H         1 <0>         0.0522
     34 H6          1.8515    1.8603    0.6390 H         1 <0>         0.0629
     35 H7          0.9191    1.6397    2.1391 H         1 <0>         0.0692
     36 H8         -0.1972    0.8177   -0.1080 H         1 <0>         0.0758
     37 H9         -0.0104   -0.9291   -0.4728 H         1 <0>         0.0749
     38 H10        -3.2795    0.8552    0.6564 H         1 <0>         0.0744
     39 H11        -2.4377    0.2454   -0.7876 H         1 <0>         0.0816
     40 H12        -4.9453    0.1528   -0.9998 H         1 <0>         0.0846
     41 H13        -4.1799   -1.4524   -1.1313 H         1 <0>         0.0881
     42 H14        -6.8864   -0.0507    0.1094 H         1 <0>         0.1389
     43 H15        -7.1785   -2.2675    3.9126 H         1 <0>         0.1407
     44 H16        -4.9291   -2.9744    3.6581 H         1 <0>         0.1272
     45 H17        -1.1524   -0.9285    4.0092 H         1 <0>         0.0906
     46 H18        -0.5482   -2.6072    4.0751 H         1 <0>         0.0741
     47 H19         3.0790   -2.0392    4.2187 H         1 <0>         0.0812
     48 H20         1.7401   -3.2112    4.1715 H         1 <0>         0.0812
     49 H21         3.8701   -4.2922    4.1579 H         1 <0>         0.3864
     50 H22         2.1272    0.0825    3.6379 H         1 <0>         0.3793
     51 H23         0.3951   -2.8035    0.5138 H         1 <0>         0.0588
     52 H24         0.0519   -3.7461    1.9842 H         1 <0>         0.0516
     53 H25        -1.2891   -3.1213    0.9944 H         1 <0>         0.1113
     54 H26        -1.8675   -4.3164    2.9393 H         1 <0>         0.3771
     55 H27        -3.2905   -3.1585    0.3600 H         1 <0>         0.0769
     56 H28        -3.9848   -4.0995    1.7019 H         1 <0>         0.0989
     57 H29        -5.0143   -3.6016    0.3379 H         1 <0>         0.0541
@<TRIPOS>BOND
     1    1    2 1
     2    1   33 1
     3    1   34 1
     4    1   35 1
     5    2    3 1
     6    2   23 1
     7    2    4 1
     8    4    5 1
     9    4   36 1
    10    4   37 1
    11    5    6 1
    12    5   22 1
    13    5    7 1
    14    7    8 1
    15    7   18 1
    16    7    9 1
    17    9   10 1
    18    9   38 1
    19    9   39 1
    20   10   11 1
    21   10   40 1
    22   10   41 1
    23   11   17 1
    24   11   12 2
    25   12   13 1
    26   12   42 1
    27   13   14 2
    28   13   15 1
    29   15   16 2
    30   15   43 1
    31   16   17 1
    32   16   44 1
    33   17   18 1
    34   17   32 1
    35   18   19 1
    36   18   31 1
    37   19   20 1
    38   19   21 1
    39   19   30 1
    40   21   22 1
    41   21   45 1
    42   21   46 1
    43   22   23 1
    44   22   29 1
    45   23   24 1
    46   23   28 1
    47   24   25 2
    48   24   26 1
    49   26   27 1
    50   26   47 1
    51   26   48 1
    52   27   49 1
    53   28   50 1
    54   29   51 1
    55   29   52 1
    56   29   53 1
    57   30   54 1
    58   32   55 1
    59   32   56 1
    60   32   57 1
@<TRIPOS>MOLECULE
ZINC29133439
   35    37     0     0     0
SMALL
USER_CHARGES
5-(7-fluoro-3,3-dimethyl-2-oxo-indolin-5-yl)-1-methyl-pyrrole-2-carbonitrile
@<TRIPOS>ATOM
      1 C1         -4.0366   -2.9574    0.0487 C.3       1 <0>        -0.1312
      2 C2         -4.3540   -2.0255    1.2199 C.3       1 <0>        -0.0521
      3 C3         -3.8526   -0.6280    0.9357 C.ar      1 <0>        -0.1032
      4 C4         -2.5983   -0.1173    0.7032 C.ar      1 <0>        -0.0791
      5 C5         -2.4375    1.2503    0.4642 C.ar      1 <0>        -0.0147
      6 C6         -3.5565    2.0868    0.4701 C.ar      1 <0>        -0.0941
      7 C7         -4.8105    1.5646    0.6994 C.ar      1 <0>         0.0879
      8 C8         -4.9717    0.1968    0.9376 C.ar      1 <0>         0.1177
      9 N1         -6.1208   -0.5515    1.1953 N.am      1 <0>        -0.6677
     10 C9         -5.8506   -1.8556    1.3720 C.2       1 <0>         0.5427
     11 O1         -6.6547   -2.7322    1.6088 O.2       1 <0>        -0.4886
     12 F1         -5.8886    2.3788    0.6985 F         1 <0>        -0.1322
     13 C10        -1.0932    1.8084    0.2132 C.2       1 <0>         0.0918
     14 C11        -0.7243    3.1267    0.3719 C.2       1 <0>        -0.1720
     15 C12         0.6251    3.2315    0.0374 C.2       1 <0>        -0.1077
     16 C13         1.0609    1.9730   -0.3272 C.2       1 <0>         0.0606
     17 N2         -0.0034    1.1064   -0.2189 N.pl3     1 <0>        -0.4140
     18 C14         0.0286   -0.3286   -0.5122 C.3       1 <0>         0.0519
     19 C15         2.3870    1.6295   -0.7445 C.1       1 <0>         0.2755
     20 N3          3.4390    1.3571   -1.0755 N.1       1 <0>        -0.4009
     21 C16        -3.7411   -2.5620    2.5150 C.3       1 <0>        -0.1310
     22 H1         -2.9464   -3.0687   -0.0463 H         1 <0>         0.0753
     23 H2         -4.4439   -2.5310   -0.8799 H         1 <0>         0.0640
     24 H3         -4.4913   -3.9424    0.2303 H         1 <0>         0.0767
     25 H4         -1.7387   -0.7712    0.7054 H         1 <0>         0.1408
     26 H5         -3.4386    3.1452    0.2906 H         1 <0>         0.1543
     27 H6         -7.1024   -0.0565    1.2336 H         1 <0>         0.4445
     28 H7         -1.3640    3.9324    0.7005 H         1 <0>         0.1546
     29 H8          1.2205    4.1324    0.0588 H         1 <0>         0.1556
     30 H9          1.0392   -0.6133   -0.8402 H         1 <0>         0.0918
     31 H10        -0.6936   -0.5559   -1.3102 H         1 <0>         0.0936
     32 H11        -0.2358   -0.8939    0.3936 H         1 <0>         0.0930
     33 H12        -3.9799   -1.8794    3.3439 H         1 <0>         0.0642
     34 H13        -2.6493   -2.6335    2.4018 H         1 <0>         0.0753
     35 H14        -4.1535   -3.5588    2.7304 H         1 <0>         0.0766
@<TRIPOS>BOND
     1    1    2 1
     2    1   22 1
     3    1   23 1
     4    1   24 1
     5    2   10 1
     6    2    3 1
     7    2   21 1
     8    3    8 ar
     9    3    4 ar
    10    4    5 ar
    11    4   25 1
    12    5    6 ar
    13    5   13 1
    14    6    7 ar
    15    6   26 1
    16    7    8 ar
    17    7   12 1
    18    8    9 1
    19    9   10 am
    20    9   27 1
    21   10   11 2
    22   13   17 1
    23   13   14 2
    24   14   15 1
    25   14   28 1
    26   15   16 2
    27   15   29 1
    28   16   17 1
    29   16   19 1
    30   17   18 1
    31   18   30 1
    32   18   31 1
    33   18   32 1
    34   19   20 3
    35   21   33 1
    36   21   34 1
    37   21   35 1
@<TRIPOS>MOLECULE
ZINC19132424
   51    54     0     0     0
SMALL
USER_CHARGES

@<TRIPOS>ATOM
      1 C1         -0.6973    1.6727    0.0117 C.3       1 <0>        -0.1349
      2 C2         -0.4090    0.1941   -0.0301 C.2       1 <0>        -0.0497
      3 C3         -1.4126   -0.6834    0.0318 C.2       1 <0>        -0.2144
      4 C4         -2.8557   -0.3722    0.1362 C.2       1 <0>         0.3900
      5 O1         -3.3524    0.7347    0.1227 O.2       1 <0>        -0.4439
      6 C5         -3.6080   -1.6977    0.2632 C.3       1 <0>        -0.1661
      7 C6         -2.5362   -2.6363    0.8312 C.3       1 <0>        -0.0773
      8 H1         -2.3869   -2.4553    1.8956 H         1 <0>         0.0851
      9 C7         -1.3003   -2.1771    0.0028 C.3       1 <0>        -0.0262
     10 C8         -0.0773   -2.7994    0.6443 C.3       1 <0>        -0.1011
     11 C9         -0.2013   -4.3216    0.4683 C.3       1 <0>        -0.1224
     12 C10        -1.4951   -4.8584    1.0727 C.3       1 <0>        -0.0696
     13 H2         -1.4592   -4.7327    2.1549 H         1 <0>         0.0710
     14 C11        -2.7377   -4.1160    0.5601 C.3       1 <0>        -0.0767
     15 H3         -2.8379   -4.2889   -0.5114 H         1 <0>         0.0891
     16 C12        -3.9811   -4.6127    1.3039 C.3       1 <0>        -0.1134
     17 C13        -4.2108   -6.0881    0.9697 C.3       1 <0>        -0.0978
     18 C14        -2.9495   -6.8664    1.2970 C.2       1 <0>        -0.0223
     19 C15        -3.0786   -7.9832    2.0130 C.2       1 <0>        -0.2411
     20 C16        -1.8951   -8.7838    2.3446 C.2       1 <0>         0.3878
     21 O2         -1.8907   -9.5620    3.2755 O.2       1 <0>        -0.4575
     22 C17        -0.6776   -8.5877    1.4623 C.3       1 <0>        -0.1674
     23 C18        -0.4285   -7.0839    1.3553 C.3       1 <0>        -0.1071
     24 C19        -1.6193   -6.3524    0.7491 C.3       1 <0>        -0.0237
     25 C20        -1.5884   -6.5091   -0.7725 C.3       1 <0>        -0.1480
     26 C21        -1.4281   -2.6754   -1.4382 C.3       1 <0>        -0.1484
     27 H4          0.2391    2.2273   -0.0497 H         1 <0>         0.0660
     28 H5         -1.3352    1.9425   -0.8299 H         1 <0>         0.0781
     29 H6         -1.2042    1.9178    0.9450 H         1 <0>         0.0765
     30 H7          0.6097   -0.1554   -0.1101 H         1 <0>         0.1253
     31 H8         -4.4451   -1.6027    0.9548 H         1 <0>         0.0926
     32 H9         -3.9483   -2.0445   -0.7125 H         1 <0>         0.1056
     33 H10         0.8252   -2.4403    0.1497 H         1 <0>         0.0670
     34 H11        -0.0459   -2.5491    1.7047 H         1 <0>         0.0670
     35 H12        -0.1810   -4.5590   -0.5953 H         1 <0>         0.0765
     36 H13         0.6455   -4.8055    0.9550 H         1 <0>         0.0677
     37 H14        -3.8316   -4.5016    2.3779 H         1 <0>         0.0673
     38 H15        -4.8482   -4.0297    0.9937 H         1 <0>         0.0732
     39 H16        -5.0411   -6.4719    1.5624 H         1 <0>         0.0776
     40 H17        -4.4386   -6.1911   -0.0913 H         1 <0>         0.0846
     41 H18        -4.0553   -8.2990    2.3489 H         1 <0>         0.1339
     42 H19         0.1877   -9.0756    1.9111 H         1 <0>         0.0924
     43 H20        -0.8665   -9.0034    0.4726 H         1 <0>         0.0998
     44 H21        -0.2033   -6.6895    2.3461 H         1 <0>         0.0716
     45 H22         0.4270   -6.9109    0.7024 H         1 <0>         0.0807
     46 H23        -0.6479   -6.1165   -1.1592 H         1 <0>         0.0711
     47 H24        -1.6753   -7.5644   -1.0310 H         1 <0>         0.0593
     48 H25        -2.4200   -5.9579   -1.2115 H         1 <0>         0.0647
     49 H26        -0.5748   -2.3270   -2.0201 H         1 <0>         0.0577
     50 H27        -1.4520   -3.7651   -1.4450 H         1 <0>         0.0744
     51 H28        -2.3485   -2.2890   -1.8759 H         1 <0>         0.0550
@<TRIPOS>BOND
     1    1    2 1
     2    1   27 1
     3    1   28 1
     4    1   29 1
     5    2    3 2
     6    2   30 1
     7    3    9 1
     8    3    4 1
     9    4    5 2
    10    4    6 1
    11    6    7 1
    12    6   31 1
    13    6   32 1
    14    7    8 1
    15    7   14 1
    16    7    9 1
    17    9   10 1
    18    9   26 1
    19   10   11 1
    20   10   33 1
    21   10   34 1
    22   11   12 1
    23   11   35 1
    24   11   36 1
    25   12   13 1
    26   12   24 1
    27   12   14 1
    28   14   15 1
    29   14   16 1
    30   16   17 1
    31   16   37 1
    32   16   38 1
    33   17   18 1
    34   17   39 1
    35   17   40 1
    36   18   24 1
    37   18   19 2
    38   19   20 1
    39   19   41 1
    40   20   21 2
    41   20   22 1
    42   22   23 1
    43   22   42 1
    44   22   43 1
    45   23   24 1
    46   23   44 1
    47   23   45 1
    48   24   25 1
    49   25   46 1
    50   25   47 1
    51   25   48 1
    52   26   49 1
    53   26   50 1
    54   26   51 1
@<TRIPOS>MOLECULE
ZINC19132424
   51    54     0     0     0
SMALL
USER_CHARGES

@<TRIPOS>ATOM
      1 C1          0.2301    1.0229    0.1380 C.3       1 <0>        -0.1408
      2 C2         -0.0191   -0.4599    0.0369 C.2       1 <0>        -0.0517
      3 C3         -1.2693   -0.9247   -0.0107 C.2       1 <0>        -0.2128
      4 C4         -1.6839   -2.3424   -0.1033 C.2       1 <0>         0.3918
      5 O1         -0.9470   -3.3062   -0.0914 O.2       1 <0>        -0.4480
      6 C5         -3.2088   -2.3732   -0.2159 C.3       1 <0>        -0.1655
      7 C6         -3.5290   -0.9869   -0.7886 C.3       1 <0>        -0.0776
      8 H1         -3.3086   -0.9477   -1.8554 H         1 <0>         0.0851
      9 C7         -2.5288   -0.1143    0.0256 C.3       1 <0>        -0.0248
     10 C8         -2.4996    1.2538   -0.6238 C.3       1 <0>        -0.1131
     11 C9         -3.8954    1.8708   -0.4382 C.3       1 <0>        -0.1230
     12 C10        -4.9892    0.9855   -1.0275 C.3       1 <0>        -0.0696
     13 H2         -4.8717    0.9513   -2.1106 H         1 <0>         0.0707
     14 C11        -4.9234   -0.4578   -0.5074 C.3       1 <0>        -0.0764
     15 H3         -5.1131   -0.4575    0.5660 H         1 <0>         0.0891
     16 C12        -5.9593   -1.3185   -1.2367 C.3       1 <0>        -0.1135
     17 C13        -7.3628   -0.8159   -0.8921 C.3       1 <0>        -0.0978
     18 C14        -7.4496    0.6619   -1.2269 C.2       1 <0>        -0.0222
     19 C15        -8.4997    1.0764   -1.9354 C.2       1 <0>        -0.2412
     20 C16        -8.6431    2.4965   -2.2736 C.2       1 <0>         0.3878
     21 O2         -9.3340    2.8659   -3.2001 O.2       1 <0>        -0.4575
     22 C17        -7.8826    3.4785   -1.4039 C.3       1 <0>        -0.1675
     23 C18        -6.4407    2.9818   -1.3075 C.3       1 <0>        -0.1069
     24 C19        -6.3589    1.5897   -0.6944 C.3       1 <0>        -0.0237
     25 C20        -6.4677    1.7000    0.8278 C.3       1 <0>        -0.1479
     26 C21        -3.0143    0.0187    1.4704 C.3       1 <0>        -0.1486
     27 H4          1.3036    1.2099    0.1649 H         1 <0>         0.0671
     28 H5         -0.2044    1.5242   -0.7269 H         1 <0>         0.0852
     29 H6         -0.2285    1.4071    1.0491 H         1 <0>         0.0776
     30 H7          0.8139   -1.1465    0.0029 H         1 <0>         0.1231
     31 H8         -3.5304   -3.1583   -0.9002 H         1 <0>         0.0932
     32 H9         -3.6666   -2.5018    0.7649 H         1 <0>         0.1063
     33 H10        -1.7494    1.8791   -0.1397 H         1 <0>         0.0801
     34 H11        -2.2745    1.1564   -1.6859 H         1 <0>         0.0665
     35 H12        -4.0845    2.0077    0.6265 H         1 <0>         0.0762
     36 H13        -3.9221    2.8432   -0.9301 H         1 <0>         0.0674
     37 H14        -5.8005   -1.2461   -2.3127 H         1 <0>         0.0672
     38 H15        -5.8567   -2.3570   -0.9217 H         1 <0>         0.0731
     39 H16        -8.1012   -1.3664   -1.4750 H         1 <0>         0.0775
     40 H17        -7.5519   -0.9613    0.1714 H         1 <0>         0.0846
     41 H18        -9.2457    0.3662   -2.2604 H         1 <0>         0.1339
     42 H19        -7.9037    4.4692   -1.8580 H         1 <0>         0.0923
     43 H20        -8.3287    3.5159   -0.4101 H         1 <0>         0.0998
     44 H21        -5.9959    2.9865   -2.3027 H         1 <0>         0.0715
     45 H22        -5.8750    3.6553   -0.6637 H         1 <0>         0.0807
     46 H23        -5.6711    2.3421    1.2034 H         1 <0>         0.0711
     47 H24        -7.4346    2.1278    1.0929 H         1 <0>         0.0591
     48 H25        -6.3750    0.7087    1.2714 H         1 <0>         0.0647
     49 H26        -2.2962    0.6063    2.0424 H         1 <0>         0.0575
     50 H27        -3.9838    0.5167    1.4836 H         1 <0>         0.0749
     51 H28        -3.1088   -0.9722    1.9146 H         1 <0>         0.0550
@<TRIPOS>BOND
     1    1    2 1
     2    1   27 1
     3    1   28 1
     4    1   29 1
     5    2    3 2
     6    2   30 1
     7    3    9 1
     8    3    4 1
     9    4    5 2
    10    4    6 1
    11    6    7 1
    12    6   31 1
    13    6   32 1
    14    7    8 1
    15    7   14 1
    16    7    9 1
    17    9   10 1
    18    9   26 1
    19   10   11 1
    20   10   33 1
    21   10   34 1
    22   11   12 1
    23   11   35 1
    24   11   36 1
    25   12   13 1
    26   12   24 1
    27   12   14 1
    28   14   15 1
    29   14   16 1
    30   16   17 1
    31   16   37 1
    32   16   38 1
    33   17   18 1
    34   17   39 1
    35   17   40 1
    36   18   24 1
    37   18   19 2
    38   19   20 1
    39   19   41 1
    40   20   21 2
    41   20   22 1
    42   22   23 1
    43   22   42 1
    44   22   43 1
    45   23   24 1
    46   23   44 1
    47   23   45 1
    48   24   25 1
    49   25   46 1
    50   25   47 1
    51   25   48 1
    52   26   49 1
    53   26   50 1
    54   26   51 1
@<TRIPOS>MOLECULE
ZINC05029557
   62    65     0     0     0
SMALL
USER_CHARGES

@<TRIPOS>ATOM
      1 C1          0.2341    1.5655   -0.0976 C.3       1 <0>        -0.1535
      2 C2          0.1191    0.0403   -0.1367 C.3       1 <0>        -0.0666
      3 H1         -0.9308   -0.2454   -0.2012 H         1 <0>         0.0909
      4 C3          0.8733   -0.4999   -1.3535 C.3       1 <0>        -0.1079
      5 C4          0.8572   -2.0309   -1.3171 C.3       1 <0>        -0.0798
      6 H2         -0.1697   -2.3914   -1.2578 H         1 <0>         0.0881
      7 C5          1.6532   -2.5095   -0.0942 C.3       1 <0>        -0.0658
      8 H3          2.6561   -2.0846   -0.1352 H         1 <0>         0.0740
      9 C6          1.7601   -4.0309   -0.0478 C.3       1 <0>        -0.1247
     10 C7          2.3287   -4.6012   -1.3568 C.3       1 <0>        -0.0974
     11 C8          1.4185   -4.1389   -2.4785 C.3       1 <0>        -0.0440
     12 C9          1.5291   -2.5804   -2.5623 C.3       1 <0>        -0.0758
     13 H4          2.5733   -2.2696   -2.5976 H         1 <0>         0.0846
     14 C10         0.8218   -2.2794   -3.8884 C.3       1 <0>        -0.1168
     15 C11         1.3527   -3.3974   -4.8267 C.3       1 <0>        -0.1266
     16 C12         1.7937   -4.5873   -3.8873 C.3       1 <0>         0.0841
     17 C13         1.0448   -5.8430   -4.2524 C.2       1 <0>         0.3540
     18 O1          0.0153   -5.7714   -4.8795 O.2       1 <0>        -0.4317
     19 C14         1.5806   -7.1882   -3.8348 C.3       1 <0>        -0.2058
     20 O2          3.2029   -4.8059   -3.9785 O.3       1 <0>        -0.3267
     21 C15         3.6891   -5.1541   -5.1802 C.2       1 <0>         0.4503
     22 O3          2.9560   -5.1948   -6.1398 O.2       1 <0>        -0.4997
     23 C16         5.1493   -5.4943   -5.3326 C.3       1 <0>        -0.1484
     24 C17        -0.0258   -4.5412   -2.1735 C.3       1 <0>        -0.1603
     25 C18         0.9595   -2.0277    1.1861 C.3       1 <0>        -0.0285
     26 C19         0.7302   -0.5485    1.1217 C.2       1 <0>        -0.0150
     27 C20         1.0272    0.2880    2.1160 C.2       1 <0>        -0.2482
     28 C21         1.6049   -0.2282    3.3616 C.2       1 <0>         0.3876
     29 O4          2.2302    0.4842    4.1190 O.2       1 <0>        -0.4583
     30 C22         1.3789   -1.6989    3.6528 C.3       1 <0>        -0.1687
     31 C23         1.7675   -2.4782    2.3904 C.3       1 <0>        -0.1037
     32 C24        -0.4136   -2.6986    1.2594 C.3       1 <0>        -0.1520
     33 H5          1.2846    1.8491   -0.0331 H         1 <0>         0.0607
     34 H6         -0.2008    1.9860   -1.0043 H         1 <0>         0.0621
     35 H7         -0.2995    1.9479    0.7725 H         1 <0>         0.0617
     36 H8          0.3889   -0.1523   -2.2660 H         1 <0>         0.0726
     37 H9          1.9040   -0.1459   -1.3298 H         1 <0>         0.0674
     38 H10         2.4126   -4.3164    0.7773 H         1 <0>         0.0695
     39 H11         0.7692   -4.4518    0.1225 H         1 <0>         0.0747
     40 H12         3.3385   -4.2240   -1.5185 H         1 <0>         0.0767
     41 H13         2.3407   -5.6903   -1.3131 H         1 <0>         0.0676
     42 H14        -0.2597   -2.3530   -3.7742 H         1 <0>         0.0746
     43 H15         1.1052   -1.2954   -4.2621 H         1 <0>         0.0743
     44 H16         0.5615   -3.7281   -5.4996 H         1 <0>         0.0908
     45 H17         2.2039   -3.0312   -5.4006 H         1 <0>         0.0753
     46 H18         1.2511   -7.4116   -2.8201 H         1 <0>         0.1007
     47 H19         1.2084   -7.9546   -4.5147 H         1 <0>         0.0889
     48 H20         2.6700   -7.1715   -3.8677 H         1 <0>         0.0825
     49 H21         5.6464   -5.4023   -4.3669 H         1 <0>         0.0934
     50 H22         5.2480   -6.5171   -5.6962 H         1 <0>         0.1071
     51 H23         5.6095   -4.8094   -6.0448 H         1 <0>         0.1069
     52 H24        -0.3253   -4.1200   -1.2138 H         1 <0>         0.0837
     53 H25        -0.6818   -4.1623   -2.9572 H         1 <0>         0.0675
     54 H26        -0.0992   -5.6280   -2.1321 H         1 <0>         0.0558
     55 H27         0.8427    1.3462    2.0044 H         1 <0>         0.1412
     56 H28         2.0062   -2.0120    4.4874 H         1 <0>         0.0917
     57 H29         0.3296   -1.8723    3.8915 H         1 <0>         0.0996
     58 H30         1.5884   -3.5397    2.5616 H         1 <0>         0.0832
     59 H31         2.8271   -2.3266    2.1844 H         1 <0>         0.0698
     60 H32        -0.2883   -3.7811    1.2832 H         1 <0>         0.0695
     61 H33        -0.9295   -2.3726    2.1625 H         1 <0>         0.0591
     62 H34        -1.0012   -2.4200    0.3846 H         1 <0>         0.0635
@<TRIPOS>BOND
     1    1    2 1
     2    1   33 1
     3    1   34 1
     4    1   35 1
     5    2    3 1
     6    2   26 1
     7    2    4 1
     8    4    5 1
     9    4   36 1
    10    4   37 1
    11    5    6 1
    12    5   12 1
    13    5    7 1
    14    7    8 1
    15    7    9 1
    16    7   25 1
    17    9   10 1
    18    9   38 1
    19    9   39 1
    20   10   11 1
    21   10   40 1
    22   10   41 1
    23   11   16 1
    24   11   12 1
    25   11   24 1
    26   12   13 1
    27   12   14 1
    28   14   15 1
    29   14   42 1
    30   14   43 1
    31   15   16 1
    32   15   44 1
    33   15   45 1
    34   16   17 1
    35   16   20 1
    36   17   18 2
    37   17   19 1
    38   19   46 1
    39   19   47 1
    40   19   48 1
    41   20   21 1
    42   21   22 2
    43   21   23 1
    44   23   49 1
    45   23   50 1
    46   23   51 1
    47   24   52 1
    48   24   53 1
    49   24   54 1
    50   25   31 1
    51   25   26 1
    52   25   32 1
    53   26   27 2
    54   27   28 1
    55   27   55 1
    56   28   29 2
    57   28   30 1
    58   30   31 1
    59   30   56 1
    60   30   57 1
    61   31   58 1
    62   31   59 1
    63   32   60 1
    64   32   61 1
    65   32   62 1
