@<TRIPOS>MOLECULE
ZINC66114126
   57    61     0     0     0
SMALL
USER_CHARGES

@<TRIPOS>ATOM
      1 C1         -0.1027    1.1546   -0.2235 C.ar      1 <0>        -0.1161
      2 C2          1.0423    1.9268   -0.1354 C.ar      1 <0>        -0.0869
      3 C3          2.2858    1.3222   -0.0605 C.ar      1 <0>        -0.0772
      4 C4          2.3845   -0.0500   -0.0732 C.ar      1 <0>        -0.0966
      5 C5          1.2353   -0.8389   -0.1614 C.ar      1 <0>        -0.1572
      6 C6         -0.0149   -0.2219   -0.2371 C.ar      1 <0>        -0.0465
      7 C7          1.6453   -2.2562   -0.1539 C.2       1 <0>         0.5637
      8 O1          0.8826   -3.2004   -0.2187 O.2       1 <0>        -0.5048
      9 N1          2.9831   -2.3540   -0.0656 N.am      1 <0>        -0.6194
     10 C8          3.5520   -1.0026   -0.0084 C.3       1 <0>         0.4086
     11 C9          4.4701   -0.7772   -1.1819 C.ar      1 <0>        -0.0895
     12 C10         4.2507   -1.4492   -2.3699 C.ar      1 <0>        -0.0783
     13 C11         5.0925   -1.2429   -3.4466 C.ar      1 <0>        -0.1206
     14 C12         6.1548   -0.3635   -3.3352 C.ar      1 <0>        -0.0194
     15 C13         6.3738    0.3088   -2.1460 C.ar      1 <0>        -0.1174
     16 C14         5.5281    0.1058   -1.0719 C.ar      1 <0>        -0.0591
     17 Cl1         7.2128   -0.1043   -4.6869 Cl        1 <0>        -0.0605
     18 O2          4.2658   -0.8218    1.2163 O.3       1 <0>        -0.3109
     19 C15         3.5045   -1.1346    2.3845 C.3       1 <0>         0.1034
     20 C16         4.3209   -0.7916    3.6322 C.3       1 <0>        -0.1268
     21 C17         4.8099   -1.9544    4.4981 C.3       1 <0>        -0.1658
     22 C18         3.6749   -1.0560    4.9937 C.3       1 <0>        -0.1609
     23 C19         5.2334    0.4302    3.5085 C.3       1 <0>         0.1203
     24 O3          5.7421    0.5118    2.1756 O.3       1 <0>        -0.5393
     25 C20         3.7470   -3.6036   -0.0319 C.3       1 <0>         0.1709
     26 C21         3.9468   -4.1082   -1.4378 C.ar      1 <0>        -0.0737
     27 C22         3.0154   -4.9567   -2.0065 C.ar      1 <0>        -0.0905
     28 C23         3.1986   -5.4196   -3.2961 C.ar      1 <0>        -0.0608
     29 C24         4.3131   -5.0336   -4.0172 C.ar      1 <0>        -0.0381
     30 C25         5.2440   -4.1844   -3.4488 C.ar      1 <0>        -0.0653
     31 C26         5.0586   -3.7181   -2.1607 C.ar      1 <0>        -0.0839
     32 N2          4.5098   -5.5300   -5.3977 N.pl3     1 <0>         0.0313
     33 O4          3.6958   -6.2730   -5.8946 O.2       1 <0>        -0.1563
     34 O5          5.4845   -5.1924   -6.0283 O.3       1 <0>        -0.1543
     35 H1         -1.0699    1.6320   -0.2775 H         1 <0>         0.1372
     36 H2          0.9659    3.0040   -0.1253 H         1 <0>         0.1371
     37 H3          3.1777    1.9274    0.0075 H         1 <0>         0.1341
     38 H4         -0.9110   -0.8209   -0.3057 H         1 <0>         0.1354
     39 H5          3.4217   -2.1359   -2.4566 H         1 <0>         0.1289
     40 H6          4.9212   -1.7682   -4.3745 H         1 <0>         0.1326
     41 H7          7.2031    0.9951   -2.0584 H         1 <0>         0.1388
     42 H8          5.6961    0.6342   -0.1450 H         1 <0>         0.1527
     43 H9          2.5819   -0.5543    2.3830 H         1 <0>         0.0530
     44 H10         3.2649   -2.1980    2.3880 H         1 <0>         0.0519
     45 H11         4.5501   -2.9637    4.1789 H         1 <0>         0.0966
     46 H12         5.7820   -1.8491    4.9798 H         1 <0>         0.0994
     47 H13         3.9003   -0.3596    5.8014 H         1 <0>         0.1027
     48 H14         2.6684   -1.4742    5.0005 H         1 <0>         0.0999
     49 H15         4.6656    1.3323    3.7366 H         1 <0>         0.0457
     50 H16         6.0632    0.3364    4.2090 H         1 <0>         0.0451
     51 H17         6.3297    1.2647    2.0243 H         1 <0>         0.3676
     52 H18         4.7174   -3.4239    0.4309 H         1 <0>         0.1077
     53 H19         3.2006   -4.3480    0.5471 H         1 <0>         0.1021
     54 H20         2.1447   -5.2582   -1.4431 H         1 <0>         0.1522
     55 H21         2.4713   -6.0831   -3.7401 H         1 <0>         0.1550
     56 H22         6.1149   -3.8831   -4.0120 H         1 <0>         0.1546
     57 H23         5.7840   -3.0516   -1.7180 H         1 <0>         0.1477
@<TRIPOS>BOND
     1    1    6 ar
     2    1    2 ar
     3    1   35 1
     4    2    3 ar
     5    2   36 1
     6    3    4 ar
     7    3   37 1
     8    4   10 1
     9    4    5 ar
    10    5    6 ar
    11    5    7 1
    12    6   38 1
    13    7    8 2
    14    7    9 am
    15    9   10 1
    16    9   25 1
    17   10   11 1
    18   10   18 1
    19   11   16 ar
    20   11   12 ar
    21   12   13 ar
    22   12   39 1
    23   13   14 ar
    24   13   40 1
    25   14   15 ar
    26   14   17 1
    27   15   16 ar
    28   15   41 1
    29   16   42 1
    30   18   19 1
    31   19   20 1
    32   19   43 1
    33   19   44 1
    34   20   22 1
    35   20   21 1
    36   20   23 1
    37   21   22 1
    38   21   45 1
    39   21   46 1
    40   22   47 1
    41   22   48 1
    42   23   24 1
    43   23   49 1
    44   23   50 1
    45   24   51 1
    46   25   26 1
    47   25   52 1
    48   25   53 1
    49   26   31 ar
    50   26   27 ar
    51   27   28 ar
    52   27   54 1
    53   28   29 ar
    54   28   55 1
    55   29   30 ar
    56   29   32 1
    57   30   31 ar
    58   30   56 1
    59   31   57 1
    60   32   33 2
    61   32   34 1
@<TRIPOS>MOLECULE
ZINC16051336
   70    74     0     0     0
SMALL
USER_CHARGES
4-[(4S,5R)-4,5-bis(4-chlorophenyl)-2-(2-isopropoxy-4-methoxy-phenyl)4,5-dihydroimidazole-1-carbonyl]piperazin-2-one
@<TRIPOS>ATOM
      1 C1         -6.0462    0.0413   -0.6773 C.3       1 <0>        -0.1490
      2 C2         -5.8681    1.5320   -0.9724 C.3       1 <0>         0.0747
      3 C3         -6.7836    2.3462   -0.0560 C.3       1 <0>        -0.1683
      4 O1         -4.5082    1.9045   -0.7399 O.3       1 <0>        -0.2984
      5 C4         -4.0121    2.9233   -1.4869 C.ar      1 <0>         0.2473
      6 C5         -4.8431    3.6252   -2.3434 C.ar      1 <0>        -0.2556
      7 C6         -4.3332    4.6625   -3.1097 C.ar      1 <0>         0.1915
      8 C7         -2.9885    5.0057   -3.0181 C.ar      1 <0>        -0.2538
      9 C8         -2.1542    4.3176   -2.1662 C.ar      1 <0>         0.0051
     10 C9         -2.6582    3.2713   -1.3902 C.ar      1 <0>        -0.1229
     11 C10        -1.7662    2.5308   -0.4758 C.2       1 <0>         0.4526
     12 N1         -0.7073    1.9029   -0.8799 N.2       1 <0>        -0.5066
     13 C11        -0.0339    1.2666    0.2602 C.3       1 <0>         0.0982
     14 H1          0.0729    0.1843    0.0950 H         1 <0>         0.1237
     15 C12        -0.9075    1.6388    1.4743 C.3       1 <0>         0.1329
     16 H2         -1.3111    0.7812    2.0325 H         1 <0>         0.1265
     17 N2         -1.9855    2.4480    0.8818 N.am      1 <0>        -0.5768
     18 C13        -3.0106    3.0105    1.5520 C.2       1 <0>         0.7374
     19 O2         -3.8299    3.6830    0.9568 O.2       1 <0>        -0.5326
     20 N3         -3.1272    2.8275    2.8822 N.am      1 <0>        -0.6185
     21 C14        -4.2567    3.3954    3.6377 C.3       1 <0>         0.1104
     22 C15        -5.0429    2.2406    4.2611 C.3       1 <0>         0.1020
     23 N4         -4.1444    1.2913    4.9036 N.am      1 <0>        -0.7287
     24 C16        -2.8492    1.1592    4.6135 C.2       1 <0>         0.5090
     25 O3         -2.2206    0.2784    5.1612 O.2       1 <0>        -0.5474
     26 C17        -2.1353    2.0475    3.6371 C.3       1 <0>         0.0208
     27 C18        -0.1167    2.4479    2.4698 C.ar      1 <0>        -0.1083
     28 C19         0.0857    3.7988    2.2569 C.ar      1 <0>        -0.0803
     29 C20         0.8060    4.5426    3.1725 C.ar      1 <0>        -0.1047
     30 C21         1.3342    3.9326    4.2964 C.ar      1 <0>        -0.0229
     31 C22         1.1361    2.5795    4.5060 C.ar      1 <0>        -0.1039
     32 C23         0.4107    1.8379    3.5926 C.ar      1 <0>        -0.0915
     33 Cl1         2.2446    4.8649    5.4434 Cl        1 <0>        -0.0631
     34 C24         1.3593    1.8170    0.4242 C.ar      1 <0>        -0.0700
     35 C25         1.6084    3.1533    0.1724 C.ar      1 <0>        -0.0758
     36 C26         2.8849    3.6599    0.3282 C.ar      1 <0>        -0.1097
     37 C27         3.9158    2.8269    0.7251 C.ar      1 <0>        -0.0267
     38 C28         3.6670    1.4884    0.9715 C.ar      1 <0>        -0.1080
     39 C29         2.3890    0.9842    0.8209 C.ar      1 <0>        -0.0918
     40 Cl2         5.5206    3.4611    0.9146 Cl        1 <0>        -0.0695
     41 O4         -5.1495    5.3452   -3.9529 O.3       1 <0>        -0.3135
     42 C30        -4.5597    6.4016   -4.7133 C.3       1 <0>         0.0220
     43 H3         -5.3880   -0.5441   -1.3362 H         1 <0>         0.0645
     44 H4         -7.0930   -0.2454   -0.8562 H         1 <0>         0.0790
     45 H5         -5.7856   -0.1583    0.3726 H         1 <0>         0.0639
     46 H6         -6.0635    1.7550   -2.0317 H         1 <0>         0.0774
     47 H7         -6.6556    3.4179   -0.2682 H         1 <0>         0.0671
     48 H8         -6.5230    2.1465    0.9939 H         1 <0>         0.0642
     49 H9         -7.8304    2.0595   -0.2349 H         1 <0>         0.0692
     50 H10        -5.8879    3.3622   -2.4178 H         1 <0>         0.1412
     51 H11        -2.5974    5.8145   -3.6175 H         1 <0>         0.1343
     52 H12        -1.1106    4.5869   -2.0977 H         1 <0>         0.1333
     53 H13        -3.8734    4.0607    4.4254 H         1 <0>         0.0808
     54 H14        -4.9027    3.9683    2.9561 H         1 <0>         0.1180
     55 H15        -5.7393    2.6361    5.0151 H         1 <0>         0.0929
     56 H16        -5.6099    1.7175    3.4769 H         1 <0>         0.0710
     57 H17        -4.5235    0.6193    5.6876 H         1 <0>         0.4242
     58 H18        -1.5450    1.4333    2.9411 H         1 <0>         0.1677
     59 H19        -1.4666    2.7318    4.1798 H         1 <0>         0.1094
     60 H20        -0.3229    4.2739    1.3773 H         1 <0>         0.1263
     61 H21         0.9604    5.5988    3.0083 H         1 <0>         0.1341
     62 H22         1.5478    2.1029    5.3833 H         1 <0>         0.1390
     63 H23         0.2557    0.7817    3.7563 H         1 <0>         0.1417
     64 H24         0.8045    3.8024   -0.1417 H         1 <0>         0.1234
     65 H25         3.0785    4.7048    0.1357 H         1 <0>         0.1309
     66 H26         4.4714    0.8376    1.2810 H         1 <0>         0.1339
     67 H27         2.1946   -0.0606    1.0135 H         1 <0>         0.1327
     68 H28        -5.3263    6.8672   -5.3501 H         1 <0>         0.1037
     69 H29        -3.7563    5.9945   -5.3448 H         1 <0>         0.0605
     70 H30        -4.1425    7.1562   -4.0303 H         1 <0>         0.0599
@<TRIPOS>BOND
     1    1    2 1
     2    1   43 1
     3    1   44 1
     4    1   45 1
     5    2    3 1
     6    2    4 1
     7    2   46 1
     8    3   47 1
     9    3   48 1
    10    3   49 1
    11    4    5 1
    12    5   10 ar
    13    5    6 ar
    14    6    7 ar
    15    6   50 1
    16    7    8 ar
    17    7   41 1
    18    8    9 ar
    19    8   51 1
    20    9   10 ar
    21    9   52 1
    22   10   11 1
    23   11   17 1
    24   11   12 2
    25   12   13 1
    26   13   14 1
    27   13   15 1
    28   13   34 1
    29   15   16 1
    30   15   17 1
    31   15   27 1
    32   17   18 am
    33   18   19 2
    34   18   20 am
    35   20   26 1
    36   20   21 1
    37   21   22 1
    38   21   53 1
    39   21   54 1
    40   22   23 1
    41   22   55 1
    42   22   56 1
    43   23   24 am
    44   23   57 1
    45   24   25 2
    46   24   26 1
    47   26   58 1
    48   26   59 1
    49   27   32 ar
    50   27   28 ar
    51   28   29 ar
    52   28   60 1
    53   29   30 ar
    54   29   61 1
    55   30   31 ar
    56   30   33 1
    57   31   32 ar
    58   31   62 1
    59   32   63 1
    60   34   39 ar
    61   34   35 ar
    62   35   36 ar
    63   35   64 1
    64   36   37 ar
    65   36   65 1
    66   37   38 ar
    67   37   40 1
    68   38   39 ar
    69   38   66 1
    70   39   67 1
    71   41   42 1
    72   42   68 1
    73   42   69 1
    74   42   70 1
@<TRIPOS>MOLECULE
ZINC01694070
   46    49     0     0     0
SMALL
USER_CHARGES
7-(anilino-phenyl-methyl)-2-methyl-quinolin-8-ol
@<TRIPOS>ATOM
      1 C1         -9.7950    1.3852   -3.9773 C.3       1 <0>        -0.1087
      2 C2         -8.6737    0.6745   -3.2642 C.ar      1 <0>         0.1585
      3 C3         -8.6345   -0.7182   -3.2804 C.ar      1 <0>        -0.1661
      4 C4         -7.6259   -1.3789   -2.6391 C.ar      1 <0>        -0.0560
      5 C5         -6.6481   -0.6142   -1.9750 C.ar      1 <0>        -0.0967
      6 C6         -5.5817   -1.2237   -1.2937 C.ar      1 <0>        -0.0943
      7 C7         -4.6546   -0.4519   -0.6621 C.ar      1 <0>        -0.0989
      8 C8         -4.7471    0.9373   -0.6808 C.ar      1 <0>        -0.0985
      9 C9         -5.7725    1.5655   -1.3280 C.ar      1 <0>         0.1494
     10 C10        -6.7485    0.7983   -1.9983 C.ar      1 <0>         0.1135
     11 N1         -7.7612    1.3827   -2.6446 N.ar      1 <0>        -0.4624
     12 O1         -5.8497    2.9217   -1.3305 O.3       1 <0>        -0.4744
     13 C11        -3.7030    1.7600    0.0292 C.3       1 <0>         0.2448
     14 H1         -3.5531    2.6975   -0.5064 H         1 <0>         0.0990
     15 C12        -4.1634    2.0522    1.4340 C.ar      1 <0>        -0.0958
     16 C13        -4.0328    1.0904    2.4183 C.ar      1 <0>        -0.0968
     17 C14        -4.4512    1.3600    3.7080 C.ar      1 <0>        -0.1235
     18 C15        -5.0085    2.5881    4.0113 C.ar      1 <0>        -0.1167
     19 C16        -5.1439    3.5480    3.0258 C.ar      1 <0>        -0.1203
     20 C17        -4.7216    3.2800    1.7372 C.ar      1 <0>        -0.0973
     21 N2         -2.4418    1.0159    0.0735 N.pl3     1 <0>        -0.7416
     22 C18        -1.2296    1.7016    0.1794 C.ar      1 <0>         0.2175
     23 C19        -0.0329    0.9975    0.2215 C.ar      1 <0>        -0.1940
     24 C20         1.1642    1.6789    0.3206 C.ar      1 <0>        -0.0734
     25 C21         1.1721    3.0603    0.3837 C.ar      1 <0>        -0.1773
     26 C22        -0.0177    3.7641    0.3473 C.ar      1 <0>        -0.0730
     27 C23        -1.2184    3.0890    0.2478 C.ar      1 <0>        -0.1927
     28 H2        -10.6283    1.5307   -3.2899 H         1 <0>         0.0828
     29 H3         -9.4435    2.3540   -4.3324 H         1 <0>         0.0802
     30 H4        -10.1243    0.7850   -4.8256 H         1 <0>         0.0785
     31 H5         -9.4007   -1.2746   -3.7999 H         1 <0>         0.1406
     32 H6         -7.5799   -2.4579   -2.6410 H         1 <0>         0.1431
     33 H7         -5.4977   -2.3002   -1.2707 H         1 <0>         0.1358
     34 H8         -3.8358   -0.9240   -0.1395 H         1 <0>         0.1281
     35 H9         -5.3894    3.3404   -2.0707 H         1 <0>         0.3908
     36 H10        -3.6008    0.1296    2.1805 H         1 <0>         0.1150
     37 H11        -4.3450    0.6102    4.4779 H         1 <0>         0.1204
     38 H12        -5.3378    2.7978    5.0183 H         1 <0>         0.1208
     39 H13        -5.5794    4.5075    3.2628 H         1 <0>         0.1225
     40 H14        -4.8274    4.0300    0.9672 H         1 <0>         0.1249
     41 H15        -2.4487    0.0469    0.0292 H         1 <0>         0.3981
     42 H16        -0.0384   -0.0813    0.1724 H         1 <0>         0.1178
     43 H17         2.0953    1.1324    0.3485 H         1 <0>         0.1201
     44 H18         2.1097    3.5908    0.4611 H         1 <0>         0.1174
     45 H19        -0.0080    4.8430    0.3964 H         1 <0>         0.1197
     46 H20        -2.1472    3.6393    0.2188 H         1 <0>         0.1192
@<TRIPOS>BOND
     1    1    2 1
     2    1   28 1
     3    1   29 1
     4    1   30 1
     5    2   11 ar
     6    2    3 ar
     7    3    4 ar
     8    3   31 1
     9    4    5 ar
    10    4   32 1
    11    5   10 ar
    12    5    6 ar
    13    6    7 ar
    14    6   33 1
    15    7    8 ar
    16    7   34 1
    17    8    9 ar
    18    8   13 1
    19    9   10 ar
    20    9   12 1
    21   10   11 ar
    22   12   35 1
    23   13   14 1
    24   13   15 1
    25   13   21 1
    26   15   20 ar
    27   15   16 ar
    28   16   17 ar
    29   16   36 1
    30   17   18 ar
    31   17   37 1
    32   18   19 ar
    33   18   38 1
    34   19   20 ar
    35   19   39 1
    36   20   40 1
    37   21   22 1
    38   21   41 1
    39   22   27 ar
    40   22   23 ar
    41   23   24 ar
    42   23   42 1
    43   24   25 ar
    44   24   43 1
    45   25   26 ar
    46   25   44 1
    47   26   27 ar
    48   26   45 1
    49   27   46 1
@<TRIPOS>MOLECULE
ZINC15965752
   46    49     0     0     0
SMALL
USER_CHARGES
7-[(S)-anilino-phenyl-methyl]-2-methyl-quinolin-8-ol
@<TRIPOS>ATOM
      1 C1         10.4475    1.0981   -2.5964 C.3       1 <0>        -0.1088
      2 C2          9.1449    0.4625   -2.1838 C.ar      1 <0>         0.1587
      3 C3          9.0059   -0.9208   -2.2762 C.ar      1 <0>        -0.1661
      4 C4          7.8324   -1.5138   -1.9066 C.ar      1 <0>        -0.0559
      5 C5          6.7908   -0.6905   -1.4386 C.ar      1 <0>        -0.0966
      6 C6          5.5563   -1.2289   -1.0404 C.ar      1 <0>        -0.0940
      7 C7          4.5733   -0.4021   -0.5883 C.ar      1 <0>        -0.0992
      8 C8          4.7697    0.9748   -0.5233 C.ar      1 <0>        -0.0972
      9 C9          5.9566    1.5347   -0.9014 C.ar      1 <0>         0.1487
     10 C10         6.9997    0.7086   -1.3703 C.ar      1 <0>         0.1136
     11 N1          8.1726    1.2255   -1.7471 N.ar      1 <0>        -0.4625
     12 O1          6.1317    2.8797   -0.8267 O.3       1 <0>        -0.4761
     13 C11         3.6578    1.8602   -0.0225 C.3       1 <0>         0.2396
     14 H1          3.6995    2.8211   -0.5353 H         1 <0>         0.1065
     15 C12         3.8162    2.0750    1.4607 C.ar      1 <0>        -0.0968
     16 C13         3.3903    1.1052    2.3489 C.ar      1 <0>        -0.0953
     17 C14         3.5395    1.3003    3.7093 C.ar      1 <0>        -0.1191
     18 C15         4.1059    2.4695    4.1817 C.ar      1 <0>        -0.1172
     19 C16         4.5275    3.4414    3.2937 C.ar      1 <0>        -0.1167
     20 C17         4.3822    3.2443    1.9332 C.ar      1 <0>        -0.1149
     21 N2          2.3669    1.2205   -0.2881 N.pl3     1 <0>        -0.7401
     22 C18         1.2138    1.9990   -0.4109 C.ar      1 <0>         0.2173
     23 C19        -0.0110    1.3940   -0.6628 C.ar      1 <0>        -0.1940
     24 C20        -1.1484    2.1673   -0.7889 C.ar      1 <0>        -0.0738
     25 C21        -1.0707    3.5413   -0.6533 C.ar      1 <0>        -0.1771
     26 C22         0.1470    4.1467   -0.4025 C.ar      1 <0>        -0.0732
     27 C23         1.2891    3.3800   -0.2810 C.ar      1 <0>        -0.1913
     28 H2         10.4089    1.3509   -3.6560 H         1 <0>         0.0829
     29 H3         10.6108    2.0039   -2.0125 H         1 <0>         0.0803
     30 H4         11.2650    0.3993   -2.4192 H         1 <0>         0.0785
     31 H5          9.8253   -1.5235   -2.6393 H         1 <0>         0.1407
     32 H6          7.7069   -2.5845   -1.9720 H         1 <0>         0.1432
     33 H7          5.3886   -2.2947   -1.0890 H         1 <0>         0.1360
     34 H8          3.6265   -0.8199   -0.2794 H         1 <0>         0.1282
     35 H9          6.4855    3.1839    0.0203 H         1 <0>         0.3909
     36 H10         2.9440    0.1935    1.9800 H         1 <0>         0.1168
     37 H11         3.2105    0.5409    4.4031 H         1 <0>         0.1215
     38 H12         4.2195    2.6234    5.2447 H         1 <0>         0.1219
     39 H13         4.9700    4.3548    3.6628 H         1 <0>         0.1240
     40 H14         4.7112    4.0038    1.2394 H         1 <0>         0.1243
     41 H15         2.3130    0.2562   -0.3788 H         1 <0>         0.3979
     42 H16        -0.0731    0.3206   -0.7644 H         1 <0>         0.1178
     43 H17        -2.1002    1.6979   -0.9892 H         1 <0>         0.1201
     44 H18        -1.9624    4.1433   -0.7479 H         1 <0>         0.1174
     45 H19         0.2049    5.2205   -0.3019 H         1 <0>         0.1197
     46 H20         2.2399    3.8535   -0.0855 H         1 <0>         0.1194
@<TRIPOS>BOND
     1    1    2 1
     2    1   28 1
     3    1   29 1
     4    1   30 1
     5    2   11 ar
     6    2    3 ar
     7    3    4 ar
     8    3   31 1
     9    4    5 ar
    10    4   32 1
    11    5   10 ar
    12    5    6 ar
    13    6    7 ar
    14    6   33 1
    15    7    8 ar
    16    7   34 1
    17    8    9 ar
    18    8   13 1
    19    9   10 ar
    20    9   12 1
    21   10   11 ar
    22   12   35 1
    23   13   14 1
    24   13   15 1
    25   13   21 1
    26   15   20 ar
    27   15   16 ar
    28   16   17 ar
    29   16   36 1
    30   17   18 ar
    31   17   37 1
    32   18   19 ar
    33   18   38 1
    34   19   20 ar
    35   19   39 1
    36   20   40 1
    37   21   22 1
    38   21   41 1
    39   22   27 ar
    40   22   23 ar
    41   23   24 ar
    42   23   42 1
    43   24   25 ar
    44   24   43 1
    45   25   26 ar
    46   25   44 1
    47   26   27 ar
    48   26   45 1
    49   27   46 1
@<TRIPOS>MOLECULE
ZINC33821372
   56    59     0     0     0
SMALL
USER_CHARGES

@<TRIPOS>ATOM
      1 C1         -0.2941    1.2655   -0.1923 C.3       1 <0>        -0.1871
      2 C2         -0.0342   -0.2352   -0.0462 C.3       1 <0>         0.0782
      3 C3          0.7817   -0.7303   -1.2421 C.3       1 <0>        -0.1570
      4 O1          0.6932   -0.4774    1.1597 O.3       1 <0>        -0.3241
      5 C4         -0.0298   -0.5994    2.3013 C.ar      1 <0>         0.2422
      6 C5         -1.3962   -0.3766    2.2852 C.ar      1 <0>        -0.2513
      7 C6         -2.1335   -0.5017    3.4531 C.ar      1 <0>         0.2377
      8 C7         -1.5054   -0.8505    4.6449 C.ar      1 <0>        -0.2385
      9 C8         -0.1481   -1.0739    4.6731 C.ar      1 <0>         0.0184
     10 C9          0.6032   -0.9570    3.5002 C.ar      1 <0>        -0.2157
     11 C10         2.0572   -1.2025    3.5250 C.cat     1 <0>         0.5774
     12 N1          2.8200   -1.0953    2.4475 N.pl3     1 <0>        -0.6242
     13 C11         4.2131   -1.4023    2.8073 C.3       1 <0>         0.1501
     14 H1          4.5703   -2.2705    2.2534 H         1 <0>         0.1434
     15 C12         4.1346   -1.7151    4.3153 C.3       1 <0>         0.1564
     16 H2          4.4527   -2.7390    4.5119 H         1 <0>         0.1444
     17 N2          2.7074   -1.5427    4.6278 N.pl3     1 <0>        -0.6453
     18 C13         4.9712   -0.7406    5.1036 C.ar      1 <0>        -0.1210
     19 C14         4.4768    0.5173    5.3940 C.ar      1 <0>        -0.0852
     20 C15         5.2436    1.4115    6.1170 C.ar      1 <0>        -0.1055
     21 C16         6.5061    1.0475    6.5502 C.ar      1 <0>        -0.0133
     22 C17         7.0004   -0.2116    6.2592 C.ar      1 <0>        -0.1031
     23 C18         6.2304   -1.1069    5.5410 C.ar      1 <0>        -0.0744
     24 Cl1         7.4701    2.1703    7.4578 Cl        1 <0>        -0.0474
     25 C19         5.1013   -0.2114    2.5546 C.ar      1 <0>        -0.1217
     26 C20         4.6446    1.0630    2.8347 C.ar      1 <0>        -0.0803
     27 C21         5.4588    2.1556    2.6031 C.ar      1 <0>        -0.1065
     28 C22         6.7310    1.9737    2.0908 C.ar      1 <0>        -0.0125
     29 C23         7.1875    0.6981    1.8106 C.ar      1 <0>        -0.1049
     30 C24         6.3745   -0.3942    2.0480 C.ar      1 <0>        -0.0743
     31 Cl2         7.7539    3.3457    1.7991 Cl        1 <0>        -0.0477
     32 O2         -3.4729   -0.2826    3.4338 O.3       1 <0>        -0.2964
     33 C25        -4.1720   -0.4284    4.6715 C.3       1 <0>         0.0162
     34 H3          0.6567    1.7971   -0.2285 H         1 <0>         0.0733
     35 H4         -0.8490    1.4502   -1.1121 H         1 <0>         0.0868
     36 H5         -0.8754    1.6181    0.6597 H         1 <0>         0.0676
     37 H6         -0.9851   -0.7668   -0.0100 H         1 <0>         0.0907
     38 H7          1.7325   -0.1986   -1.2783 H         1 <0>         0.0715
     39 H8          0.9669   -1.7994   -1.1380 H         1 <0>         0.0701
     40 H9          0.2268   -0.5455   -2.1619 H         1 <0>         0.0926
     41 H10        -1.8881   -0.1050    1.3629 H         1 <0>         0.1607
     42 H11        -2.0854   -0.9459    5.5509 H         1 <0>         0.1544
     43 H12         0.3358   -1.3441    5.6000 H         1 <0>         0.1457
     44 H13         2.3057   -1.6609    5.5027 H         1 <0>         0.4545
     45 H14         3.4914    0.8015    5.0555 H         1 <0>         0.1238
     46 H15         4.8574    2.3943    6.3435 H         1 <0>         0.1392
     47 H16         7.9860   -0.4962    6.5968 H         1 <0>         0.1432
     48 H17         6.6142   -2.0915    5.3179 H         1 <0>         0.1401
     49 H18         3.6514    1.2048    3.2343 H         1 <0>         0.1235
     50 H19         5.1017    3.1512    2.8217 H         1 <0>         0.1386
     51 H20         8.1804    0.5555    1.4104 H         1 <0>         0.1432
     52 H21         6.7325   -1.3904    1.8338 H         1 <0>         0.1401
     53 H22        -4.0470   -1.4459    5.0418 H         1 <0>         0.0689
     54 H23        -3.7706    0.2755    5.4006 H         1 <0>         0.0687
     55 H24        -5.2317   -0.2258    4.5162 H         1 <0>         0.1163
     56 H25         2.5092   -0.8532    1.5611 H         1 <0>         0.4595
@<TRIPOS>BOND
     1    1    2 1
     2    1   34 1
     3    1   35 1
     4    1   36 1
     5    2    3 1
     6    2    4 1
     7    2   37 1
     8    3   38 1
     9    3   39 1
    10    3   40 1
    11    4    5 1
    12    5   10 ar
    13    5    6 ar
    14    6    7 ar
    15    6   41 1
    16    7    8 ar
    17    7   32 1
    18    8    9 ar
    19    8   42 1
    20    9   10 ar
    21    9   43 1
    22   10   11 1
    23   11   17 1
    24   11   12 2
    25   12   13 1
    26   12   56 1
    27   13   14 1
    28   13   15 1
    29   13   25 1
    30   15   16 1
    31   15   17 1
    32   15   18 1
    33   17   44 1
    34   18   23 ar
    35   18   19 ar
    36   19   20 ar
    37   19   45 1
    38   20   21 ar
    39   20   46 1
    40   21   22 ar
    41   21   24 1
    42   22   23 ar
    43   22   47 1
    44   23   48 1
    45   25   30 ar
    46   25   26 ar
    47   26   27 ar
    48   26   49 1
    49   27   28 ar
    50   27   50 1
    51   28   29 ar
    52   28   31 1
    53   29   30 ar
    54   29   51 1
    55   30   52 1
    56   32   33 1
    57   33   53 1
    58   33   54 1
    59   33   55 1
@<TRIPOS>MOLECULE
ZINC33821372
   55    58     0     0     0
SMALL
USER_CHARGES
(4S,5R)-4,5-bis(4-chlorophenyl)-2-(2-isopropoxy-4-methoxy-phenyl)-4,5-dihydro-1H-imidazole
@<TRIPOS>ATOM
      1 C1         -7.7256    4.2926   -3.1687 C.3       1 <0>        -0.1808
      2 C2         -7.8846    2.9388   -2.4738 C.3       1 <0>         0.0709
      3 C3         -8.0182    1.8373   -3.5273 C.3       1 <0>        -0.1452
      4 O1         -6.7379    2.6833   -1.6603 O.3       1 <0>        -0.2632
      5 C4         -6.7403    3.2095   -0.4093 C.ar      1 <0>         0.2243
      6 C5         -7.7676    4.0477   -0.0103 C.ar      1 <0>        -0.2595
      7 C6         -7.7680    4.5848    1.2682 C.ar      1 <0>         0.1900
      8 C7         -6.7389    4.2848    2.1543 C.ar      1 <0>        -0.2529
      9 C8         -5.7152    3.4483    1.7696 C.ar      1 <0>        -0.0104
     10 C9         -5.7030    2.9067    0.4825 C.ar      1 <0>        -0.1318
     11 C10        -4.6037    2.0130    0.0648 C.2       1 <0>         0.4353
     12 N1         -4.5408    1.4780   -1.1117 N.2       1 <0>        -0.5263
     13 C11        -3.3364    0.6439   -1.2238 C.3       1 <0>         0.1010
     14 H1         -3.5984   -0.3875   -1.5023 H         1 <0>         0.1049
     15 C12        -2.6575    0.7784    0.1537 C.3       1 <0>         0.1545
     16 H2         -2.5107   -0.1718    0.6881 H         1 <0>         0.0941
     17 N2         -3.5595    1.6761    0.8942 N.pl3     1 <0>        -0.7596
     18 C13        -1.2899    1.3959    0.0141 C.ar      1 <0>        -0.0917
     19 C14        -0.1623    0.5986    0.0752 C.ar      1 <0>        -0.0947
     20 C15         1.0920    1.1635   -0.0589 C.ar      1 <0>        -0.1094
     21 C16         1.2191    2.5281   -0.2486 C.ar      1 <0>        -0.0286
     22 C17         0.0904    3.3263   -0.3039 C.ar      1 <0>        -0.1105
     23 C18        -1.1633    2.7602   -0.1697 C.ar      1 <0>        -0.0797
     24 Cl1         2.7941    3.2383   -0.4176 Cl        1 <0>        -0.0709
     25 C19        -2.4324    1.1651   -2.3111 C.ar      1 <0>        -0.0604
     26 C20        -2.3463    2.5249   -2.5452 C.ar      1 <0>        -0.0724
     27 C21        -1.5131    3.0039   -3.5385 C.ar      1 <0>        -0.1129
     28 C22        -0.7739    2.1216   -4.3061 C.ar      1 <0>        -0.0310
     29 C23        -0.8648    0.7605   -4.0751 C.ar      1 <0>        -0.1108
     30 C24        -1.6940    0.2831   -3.0777 C.ar      1 <0>        -0.0990
     31 Cl2         0.2670    2.7221   -5.5590 Cl        1 <0>        -0.0746
     32 O2         -8.7771    5.4060    1.6566 O.3       1 <0>        -0.3124
     33 C25        -8.7160    5.9246    2.9868 C.3       1 <0>         0.0214
     34 H3         -7.6296    5.0845   -2.4113 H         1 <0>         0.0624
     35 H4         -8.6083    4.4892   -3.7949 H         1 <0>         0.0728
     36 H5         -6.8246    4.2773   -3.7995 H         1 <0>         0.0707
     37 H6         -8.7445    2.9411   -1.7879 H         1 <0>         0.0726
     38 H7         -8.1325    0.8640   -3.0277 H         1 <0>         0.0654
     39 H8         -7.1172    1.8221   -4.1581 H         1 <0>         0.0706
     40 H9         -8.9009    2.0340   -4.1535 H         1 <0>         0.0752
     41 H10        -8.5690    4.2831   -0.6950 H         1 <0>         0.1443
     42 H11        -6.7448    4.7062    3.1487 H         1 <0>         0.1347
     43 H12        -4.9200    3.2139    2.4618 H         1 <0>         0.1319
     44 H13        -3.3265    1.9561    1.9321 H         1 <0>         0.4358
     45 H14        -0.2616   -0.4666    0.2233 H         1 <0>         0.1301
     46 H15         1.9727    0.5400   -0.0152 H         1 <0>         0.1319
     47 H16         0.1890    4.3916   -0.4516 H         1 <0>         0.1294
     48 H17        -2.0444    3.3832   -0.2129 H         1 <0>         0.1274
     49 H18        -2.9267    3.2132   -1.9488 H         1 <0>         0.1251
     50 H19        -1.4425    4.0665   -3.7184 H         1 <0>         0.1275
     51 H20        -0.2883    0.0713   -4.6742 H         1 <0>         0.1304
     52 H21        -1.7654   -0.7794   -2.8975 H         1 <0>         0.1283
     53 H22        -9.5880    6.5699    3.1692 H         1 <0>         0.1048
     54 H23        -7.7936    6.5112    3.1096 H         1 <0>         0.0604
     55 H24        -8.7194    5.0919    3.7055 H         1 <0>         0.0605
@<TRIPOS>BOND
     1    1    2 1
     2    1   34 1
     3    1   35 1
     4    1   36 1
     5    2    3 1
     6    2    4 1
     7    2   37 1
     8    3   38 1
     9    3   39 1
    10    3   40 1
    11    4    5 1
    12    5   10 ar
    13    5    6 ar
    14    6    7 ar
    15    6   41 1
    16    7    8 ar
    17    7   32 1
    18    8    9 ar
    19    8   42 1
    20    9   10 ar
    21    9   43 1
    22   10   11 1
    23   11   17 1
    24   11   12 2
    25   12   13 1
    26   13   14 1
    27   13   15 1
    28   13   25 1
    29   15   16 1
    30   15   17 1
    31   15   18 1
    32   17   44 1
    33   18   23 ar
    34   18   19 ar
    35   19   20 ar
    36   19   45 1
    37   20   21 ar
    38   20   46 1
    39   21   22 ar
    40   21   24 1
    41   22   23 ar
    42   22   47 1
    43   23   48 1
    44   25   30 ar
    45   25   26 ar
    46   26   27 ar
    47   26   49 1
    48   27   28 ar
    49   27   50 1
    50   28   29 ar
    51   28   31 1
    52   29   30 ar
    53   29   51 1
    54   30   52 1
    55   32   33 1
    56   33   53 1
    57   33   54 1
    58   33   55 1
