@<TRIPOS>MOLECULE
ZINC04175443
   31    32     0     0     0
SMALL
USER_CHARGES

@<TRIPOS>ATOM
      1 C1         -0.0186    1.3779   -0.0138 C.ar      1 <0>        -0.1041
      2 C2          1.1659    2.0938   -0.0101 C.ar      1 <0>        -0.1230
      3 C3          2.3756    1.4323   -0.0190 C.ar      1 <0>        -0.0916
      4 C4          2.4036    0.0340   -0.0312 C.ar      1 <0>        -0.0847
      5 C5          1.2023   -0.6823   -0.0343 C.ar      1 <0>        -0.0976
      6 C6          0.0007   -0.0060   -0.0258 C.ar      1 <0>        -0.1231
      7 C7          3.6904   -0.6800   -0.0411 C.2       1 <0>        -0.0065
      8 C8          3.7134   -2.0288   -0.0529 C.2       1 <0>        -0.2339
      9 C9          4.9939   -2.7393   -0.0628 C.2       1 <0>         0.4487
     10 O1          6.0360   -2.1153   -0.1563 O.2       1 <0>        -0.4446
     11 C10         5.0218   -4.2066    0.0400 C.ar      1 <0>        -0.2115
     12 C11         4.9874   -4.8269    1.2997 C.ar      1 <0>         0.1732
     13 C12         5.0141   -6.2065    1.3875 C.ar      1 <0>        -0.1806
     14 C13         5.0747   -6.9787    0.2344 C.ar      1 <0>         0.1572
     15 C14         5.1091   -6.3732   -1.0153 C.ar      1 <0>        -0.1821
     16 C15         5.0773   -4.9950   -1.1210 C.ar      1 <0>         0.1742
     17 O2          5.1052   -4.4056   -2.3427 O.3       1 <0>        -0.4903
     18 O3          5.1010   -8.3323    0.3294 O.3       1 <0>        -0.4918
     19 O4          4.9286   -4.0745    2.4271 O.3       1 <0>        -0.4869
     20 H1         -0.9630    1.9018   -0.0026 H         1 <0>         0.1260
     21 H2          1.1426    3.1736   -0.0007 H         1 <0>         0.1280
     22 H3          3.2990    1.9923   -0.0168 H         1 <0>         0.1291
     23 H4          1.2158   -1.7622   -0.0441 H         1 <0>         0.1278
     24 H5         -0.9278   -0.5576   -0.0286 H         1 <0>         0.1273
     25 H6          4.6164   -0.1242   -0.0390 H         1 <0>         0.1355
     26 H7          2.7874   -2.5847   -0.0550 H         1 <0>         0.1338
     27 H8          4.9880   -6.6851    2.3553 H         1 <0>         0.1461
     28 H9          5.1562   -6.9808   -1.9069 H         1 <0>         0.1458
     29 H10         5.9960   -4.2158   -2.6676 H         1 <0>         0.4021
     30 H11         4.2261   -8.7440    0.3235 H         1 <0>         0.3994
     31 H12         4.0290   -3.8753    2.7205 H         1 <0>         0.3985
@<TRIPOS>BOND
     1    1    6 ar
     2    1    2 ar
     3    1   20 1
     4    2    3 ar
     5    2   21 1
     6    3    4 ar
     7    3   22 1
     8    4    5 ar
     9    4    7 1
    10    5    6 ar
    11    5   23 1
    12    6   24 1
    13    7    8 2
    14    7   25 1
    15    8    9 1
    16    8   26 1
    17    9   10 2
    18    9   11 1
    19   11   16 ar
    20   11   12 ar
    21   12   13 ar
    22   12   19 1
    23   13   14 ar
    24   13   27 1
    25   14   15 ar
    26   14   18 1
    27   15   16 ar
    28   15   28 1
    29   16   17 1
    30   17   29 1
    31   18   30 1
    32   19   31 1
@<TRIPOS>MOLECULE
ZINC04097193
   32    33     0     0     0
SMALL
USER_CHARGES

@<TRIPOS>ATOM
      1 C1         -0.0150    1.3947    0.0152 C.ar      1 <0>        -0.0732
      2 C2          1.1693    2.0962    0.0143 C.ar      1 <0>        -0.1489
      3 C3          2.3824    1.4169    0.0102 C.ar      1 <0>         0.1228
      4 C4          2.4063    0.0268    0.0070 C.ar      1 <0>        -0.1489
      5 C5          1.2277   -0.6843    0.0073 C.ar      1 <0>        -0.0795
      6 C6          0.0034   -0.0052    0.0119 C.ar      1 <0>        -0.0939
      7 C7         -1.2580   -0.7592    0.0133 C.2       1 <0>        -0.0051
      8 C8         -1.2376   -2.1098    0.0101 C.2       1 <0>        -0.2344
      9 C9         -2.4931   -2.8603    0.0115 C.2       1 <0>         0.4486
     10 O1         -3.5549   -2.2711    0.1113 O.2       1 <0>        -0.4445
     11 C10        -2.4738   -4.3269   -0.1077 C.ar      1 <0>        -0.2117
     12 C11        -2.4191   -4.9317   -1.3739 C.ar      1 <0>         0.1733
     13 C12        -2.4008   -6.3104   -1.4770 C.ar      1 <0>        -0.1807
     14 C13        -2.4363   -7.0969   -0.3327 C.ar      1 <0>         0.1574
     15 C14        -2.4905   -6.5066    0.9235 C.ar      1 <0>        -0.1822
     16 C15        -2.5041   -5.1292    1.0444 C.ar      1 <0>         0.1741
     17 O2         -2.5517   -4.5546    2.2725 O.3       1 <0>        -0.4904
     18 O3         -2.4185   -8.4495   -0.4426 O.3       1 <0>        -0.4918
     19 O4         -2.3847   -4.1652   -2.4929 O.3       1 <0>        -0.4869
     20 O5          3.5475    2.1133    0.0090 O.3       1 <0>        -0.4985
     21 H1         -0.9568    1.9233    0.0228 H         1 <0>         0.1347
     22 H2          1.1563    3.1761    0.0165 H         1 <0>         0.1348
     23 H3          3.3513   -0.4961    0.0038 H         1 <0>         0.1340
     24 H4          1.2473   -1.7641    0.0041 H         1 <0>         0.1331
     25 H5         -2.2014   -0.2334    0.0168 H         1 <0>         0.1366
     26 H6         -0.2942   -2.6355    0.0066 H         1 <0>         0.1338
     27 H7         -2.3591   -6.7771   -2.4501 H         1 <0>         0.1461
     28 H8         -2.5179   -7.1252    1.8084 H         1 <0>         0.1457
     29 H9         -3.4484   -4.3974    2.5988 H         1 <0>         0.4021
     30 H10        -1.5306   -8.8326   -0.4408 H         1 <0>         0.3995
     31 H11        -1.4921   -3.9336   -2.7837 H         1 <0>         0.3986
     32 H12         3.8871    2.3133    0.8920 H         1 <0>         0.3954
@<TRIPOS>BOND
     1    1    6 ar
     2    1    2 ar
     3    1   21 1
     4    2    3 ar
     5    2   22 1
     6    3    4 ar
     7    3   20 1
     8    4    5 ar
     9    4   23 1
    10    5    6 ar
    11    5   24 1
    12    6    7 1
    13    7    8 2
    14    7   25 1
    15    8    9 1
    16    8   26 1
    17    9   10 2
    18    9   11 1
    19   11   16 ar
    20   11   12 ar
    21   12   13 ar
    22   12   19 1
    23   13   14 ar
    24   13   27 1
    25   14   15 ar
    26   14   18 1
    27   15   16 ar
    28   15   28 1
    29   16   17 1
    30   17   29 1
    31   18   30 1
    32   19   31 1
    33   20   32 1
@<TRIPOS>MOLECULE
ZINC04214704
   87    92     0     0     0
SMALL
USER_CHARGES
N-[2-[[4-[2-(6,7-dimethoxy-3,4-dihydro-1H-isoquinolin-2-yl)ethyl]phenyl]carbamoyl]-4,5-dimethoxy-phenyl]quinoline-3-carboxamide
@<TRIPOS>ATOM
      1 C1          3.5298    2.1860    0.0249 C.3       1 <0>         0.0211
      2 O1          2.3433    1.3901   -0.0012 O.3       1 <0>        -0.2964
      3 C2          1.1554    2.0521    0.0120 C.ar      1 <0>         0.1309
      4 C3          1.1306    3.4351    0.0486 C.ar      1 <0>        -0.1671
      5 C4         -0.0782    4.1148    0.0615 C.ar      1 <0>        -0.0845
      6 C5         -1.2642    3.4118    0.0344 C.ar      1 <0>        -0.1325
      7 C6         -1.2442    2.0251   -0.0061 C.ar      1 <0>        -0.1558
      8 C7         -0.0411    1.3419   -0.0118 C.ar      1 <0>         0.1181
      9 O2         -0.0279   -0.0175   -0.0461 O.3       1 <0>        -0.2967
     10 C8         -1.2948   -0.6783   -0.0690 C.3       1 <0>         0.0218
     11 C9         -2.6004    4.1075    0.0394 C.3       1 <0>         0.0534
     12 C10        -1.4169    6.1803   -0.2939 C.3       1 <0>         0.0018
     13 C11        -0.0530    5.6212    0.1117 C.3       1 <0>        -0.1030
     14 C12        -3.7352    6.2112    0.4114 C.3       1 <0>        -0.0019
     15 C13        -4.7230    5.6043    1.4098 C.3       1 <0>        -0.0974
     16 C14        -6.0359    6.3394    1.3275 C.ar      1 <0>        -0.1288
     17 C15        -6.2621    7.4401    2.1334 C.ar      1 <0>        -0.0836
     18 C16        -7.4621    8.1194    2.0563 C.ar      1 <0>        -0.1254
     19 C17        -8.4465    7.6893    1.1759 C.ar      1 <0>         0.1703
     20 C18        -8.2183    6.5800    0.3719 C.ar      1 <0>        -0.1481
     21 C19        -7.0141    5.9083    0.4501 C.ar      1 <0>        -0.0837
     22 N1         -9.6646    8.3720    1.0988 N.am      1 <0>        -0.6681
     23 C20        -9.7286    9.6760    1.4333 C.2       1 <0>         0.5813
     24 O3         -8.7106   10.2863    1.6995 O.2       1 <0>        -0.5250
     25 C21       -11.0307   10.3620    1.4764 C.ar      1 <0>        -0.1863
     26 C22       -12.2116    9.6410    1.2674 C.ar      1 <0>        -0.1229
     27 C23       -13.4294   10.2867    1.3149 C.ar      1 <0>         0.0843
     28 C24       -13.4865   11.6599    1.5591 C.ar      1 <0>         0.1670
     29 C25       -12.3217   12.3821    1.7609 C.ar      1 <0>        -0.1955
     30 C26       -11.0920   11.7427    1.7216 C.ar      1 <0>         0.2308
     31 N2         -9.9201   12.4689    1.9246 N.am      1 <0>        -0.6551
     32 C27        -9.8249   13.7350    1.4723 C.2       1 <0>         0.5696
     33 O4        -10.7890   14.2724    0.9627 O.2       1 <0>        -0.5142
     34 C28        -8.5493   14.4695    1.5958 C.ar      1 <0>        -0.2033
     35 C29        -8.4449   15.7760    1.1310 C.ar      1 <0>         0.0244
     36 C30        -7.2092   16.4291    1.2734 C.ar      1 <0>        -0.1152
     37 C31        -7.0273   17.7495    0.8273 C.ar      1 <0>        -0.0839
     38 C32        -5.8158   18.3509    0.9816 C.ar      1 <0>        -0.1157
     39 C33        -4.7529   17.6740    1.5766 C.ar      1 <0>        -0.0826
     40 C34        -4.8940   16.3945    2.0196 C.ar      1 <0>        -0.1023
     41 C35        -6.1287   15.7385    1.8787 C.ar      1 <0>         0.1460
     42 N3         -6.2895   14.4808    2.3060 N.ar      1 <0>        -0.4729
     43 C36        -7.4326   13.8555    2.1893 C.ar      1 <0>         0.1644
     44 O5        -14.6886   12.2903    1.5993 O.3       1 <0>        -0.2933
     45 C37       -14.6757   13.6963    1.8541 C.3       1 <0>         0.0200
     46 O6        -14.5778    9.5845    1.1172 O.3       1 <0>        -0.2989
     47 C38       -14.4471    8.1827    0.8725 C.3       1 <0>         0.0222
     48 H1          4.4042    1.5352    0.0108 H         1 <0>         0.1109
     49 H2          3.5487    2.8388   -0.8478 H         1 <0>         0.0603
     50 H3          3.5417    2.7909    0.9315 H         1 <0>         0.0602
     51 H4          2.0579    3.9884    0.0669 H         1 <0>         0.1466
     52 H5         -2.1736    1.4754   -0.0293 H         1 <0>         0.1456
     53 H6         -1.1414   -1.7571   -0.0955 H         1 <0>         0.1104
     54 H7         -1.8589   -0.4133    0.8253 H         1 <0>         0.0588
     55 H8         -1.8503   -0.3684   -0.9541 H         1 <0>         0.0590
     56 H9         -3.0141    4.0993   -0.9690 H         1 <0>         0.1378
     57 H10        -3.2782    3.5799    0.7105 H         1 <0>         0.1360
     58 H11        -1.5842    6.0025   -1.3562 H         1 <0>         0.1332
     59 H12        -1.4519    7.2508   -0.0919 H         1 <0>         0.1369
     60 H13         0.1842    5.9456    1.1249 H         1 <0>         0.1033
     61 H14         0.7088    5.9934   -0.5734 H         1 <0>         0.1216
     62 H15        -3.5781    7.2632    0.6495 H         1 <0>         0.1340
     63 H16        -4.1382    6.1232   -0.5975 H         1 <0>         0.1330
     64 H17        -4.8800    4.5523    1.1718 H         1 <0>         0.0932
     65 H18        -4.3200    5.6923    2.4188 H         1 <0>         0.0948
     66 H19        -5.4980    7.7713    2.8210 H         1 <0>         0.1284
     67 H20        -7.6365    8.9816    2.6829 H         1 <0>         0.1504
     68 H21        -8.9815    6.2433   -0.3140 H         1 <0>         0.1314
     69 H22        -6.8360    5.0457   -0.1748 H         1 <0>         0.1277
     70 H23       -10.4634    7.9070    0.8046 H         1 <0>         0.4144
     71 H24       -12.1698    8.5794    1.0735 H         1 <0>         0.1413
     72 H25       -12.3716   13.4444    1.9494 H         1 <0>         0.1661
     73 H26        -9.1728   12.0633    2.3915 H         1 <0>         0.4242
     74 H27        -9.2880   16.2735    0.6748 H         1 <0>         0.1562
     75 H28        -7.8439   18.2838    0.3647 H         1 <0>         0.1372
     76 H29        -5.6766   19.3655    0.6387 H         1 <0>         0.1348
     77 H30        -3.8014   18.1726    1.6879 H         1 <0>         0.1359
     78 H31        -4.0594   15.8852    2.4783 H         1 <0>         0.1394
     79 H32        -7.5190   12.8422    2.5527 H         1 <0>         0.1620
     80 H33       -14.2131   13.8858    2.8227 H         1 <0>         0.0597
     81 H34       -14.1060   14.2017    1.0743 H         1 <0>         0.0657
     82 H35       -15.6981   14.0740    1.8597 H         1 <0>         0.1085
     83 H36       -13.8491    8.0248   -0.0250 H         1 <0>         0.0551
     84 H37       -13.9573    7.7094    1.7234 H         1 <0>         0.0559
     85 H38       -15.4353    7.7446    0.7324 H         1 <0>         0.1069
     86 N4         -2.4447    5.4928    0.5133 N.4       1 <0>        -0.3935
     87 H39        -2.1464    5.4797    1.4957 H         1 <0>         0.4299
@<TRIPOS>BOND
     1    1    2 1
     2    1   48 1
     3    1   49 1
     4    1   50 1
     5    2    3 1
     6    3    8 ar
     7    3    4 ar
     8    4    5 ar
     9    4   51 1
    10    5   13 1
    11    5    6 ar
    12    6    7 ar
    13    6   11 1
    14    7    8 ar
    15    7   52 1
    16    8    9 1
    17    9   10 1
    18   10   53 1
    19   10   54 1
    20   10   55 1
    21   11   56 1
    22   11   57 1
    23   11   86 1
    24   12   13 1
    25   12   58 1
    26   12   59 1
    27   12   86 1
    28   13   60 1
    29   13   61 1
    30   14   15 1
    31   14   62 1
    32   14   63 1
    33   14   86 1
    34   15   16 1
    35   15   64 1
    36   15   65 1
    37   16   21 ar
    38   16   17 ar
    39   17   18 ar
    40   17   66 1
    41   18   19 ar
    42   18   67 1
    43   19   20 ar
    44   19   22 1
    45   20   21 ar
    46   20   68 1
    47   21   69 1
    48   22   23 am
    49   22   70 1
    50   23   24 2
    51   23   25 1
    52   25   30 ar
    53   25   26 ar
    54   26   27 ar
    55   26   71 1
    56   27   28 ar
    57   27   46 1
    58   28   29 ar
    59   28   44 1
    60   29   30 ar
    61   29   72 1
    62   30   31 1
    63   31   32 am
    64   31   73 1
    65   32   33 2
    66   32   34 1
    67   34   43 ar
    68   34   35 ar
    69   35   36 ar
    70   35   74 1
    71   36   41 ar
    72   36   37 ar
    73   37   38 ar
    74   37   75 1
    75   38   39 ar
    76   38   76 1
    77   39   40 ar
    78   39   77 1
    79   40   41 ar
    80   40   78 1
    81   41   42 ar
    82   42   43 ar
    83   43   79 1
    84   44   45 1
    85   45   80 1
    86   45   81 1
    87   45   82 1
    88   46   47 1
    89   47   83 1
    90   47   84 1
    91   47   85 1
    92   86   87 1
