@<TRIPOS>MOLECULE
ZINC01851149
   58    61     0     0     0
SMALL
USER_CHARGES

@<TRIPOS>ATOM
      1 C1         -0.0167    1.3781    0.0096 C.ar      1 <0>        -0.0896
      2 C2          1.1690    2.0873    0.0021 C.ar      1 <0>        -0.1006
      3 C3          2.3816    1.4109   -0.0131 C.ar      1 <0>         0.1668
      4 C4          2.3986    0.0211   -0.0208 C.ar      1 <0>        -0.0379
      5 C5          1.2084   -0.6828   -0.0132 C.ar      1 <0>        -0.0271
      6 C6          0.0021   -0.0041    0.0020 C.ar      1 <0>        -0.0892
      7 Cl1         1.2271   -2.4187   -0.0233 Cl        1 <0>        -0.0322
      8 Cl2         3.9117   -0.8297   -0.0404 Cl        1 <0>        -0.0503
      9 N1          3.5822    2.1260   -0.0212 N.pl3     1 <0>        -0.6733
     10 C7          4.2166    2.5248   -1.2872 C.3       1 <0>         0.1212
     11 C8          5.6874    2.0967   -1.2494 C.3       1 <0>        -0.0255
     12 N2          6.3270    2.6517   -0.0498 N.4       1 <0>        -0.3792
     13 C9          5.7166    2.0749    1.1547 C.3       1 <0>        -0.0318
     14 C10         4.2444    2.5067    1.2361 C.3       1 <0>         0.1223
     15 C11         7.7610    2.3338   -0.0701 C.3       1 <0>        -0.0093
     16 C12         8.4515    3.0158    1.1127 C.3       1 <0>        -0.1453
     17 C13         9.9450    2.6847    1.0915 C.3       1 <0>        -0.1184
     18 C14        10.6355    3.3667    2.2743 C.3       1 <0>         0.0595
     19 O1         12.0305    3.0574    2.2545 O.3       1 <0>        -0.3124
     20 C15        12.7944    3.5890    3.2448 C.ar      1 <0>         0.1559
     21 C16        12.2111    4.3876    4.2189 C.ar      1 <0>        -0.2294
     22 C17        12.9865    4.9295    5.2261 C.ar      1 <0>        -0.0411
     23 C18        14.3441    4.6777    5.2669 C.ar      1 <0>        -0.1551
     24 C19        14.9331    3.8788    4.2952 C.ar      1 <0>         0.2059
     25 C20        14.1552    3.3295    3.2858 C.ar      1 <0>        -0.1852
     26 N3         16.3074    3.6248    4.3397 N.am      1 <0>        -0.6651
     27 C21        17.0003    3.8176    5.4770 C.2       1 <0>         0.5216
     28 O2         18.1945    3.6066    5.4945 O.2       1 <0>        -0.5157
     29 C22        16.3105    4.2925    6.7275 C.3       1 <0>        -0.1402
     30 C23        15.1900    5.2680    6.3653 C.3       1 <0>        -0.0752
     31 H1         -0.9596    1.9044    0.0260 H         1 <0>         0.1477
     32 H2          1.1527    3.1672    0.0077 H         1 <0>         0.1420
     33 H3         -0.9265   -0.5556    0.0083 H         1 <0>         0.1502
     34 H4          3.7134    2.0333   -2.1198 H         1 <0>         0.1171
     35 H5          4.1529    3.6066   -1.4040 H         1 <0>         0.0851
     36 H6          5.7487    1.0088   -1.2236 H         1 <0>         0.1293
     37 H7          6.1971    2.4687   -2.1381 H         1 <0>         0.1401
     38 H8          5.7771    0.9876    1.1077 H         1 <0>         0.1300
     39 H9          6.2479    2.4307    2.0374 H         1 <0>         0.1398
     40 H10         4.1834    3.5868    1.3697 H         1 <0>         0.0853
     41 H11         3.7595    2.0032    2.0724 H         1 <0>         0.1165
     42 H12         7.8950    1.2546    0.0040 H         1 <0>         0.1305
     43 H13         8.1993    2.6912   -1.0020 H         1 <0>         0.1352
     44 H14         8.3175    4.0950    1.0386 H         1 <0>         0.0923
     45 H15         8.0132    2.6584    2.0445 H         1 <0>         0.0907
     46 H16        10.0790    1.6055    1.1656 H         1 <0>         0.0866
     47 H17        10.3833    3.0420    0.1597 H         1 <0>         0.0875
     48 H18        10.5015    4.4459    2.2002 H         1 <0>         0.0675
     49 H19        10.1972    3.0093    3.2062 H         1 <0>         0.0669
     50 H20        11.1499    4.5859    4.1893 H         1 <0>         0.1286
     51 H21        12.5305    5.5511    5.9824 H         1 <0>         0.1354
     52 H22        14.6099    2.7045    2.5314 H         1 <0>         0.1380
     53 H23        16.7645    3.3072    3.5453 H         1 <0>         0.4136
     54 H24        15.8894    3.4371    7.2558 H         1 <0>         0.1060
     55 H25        17.0331    4.7940    7.3713 H         1 <0>         0.1134
     56 H26        15.6229    6.2086    6.0246 H         1 <0>         0.0845
     57 H27        14.5699    5.4506    7.2429 H         1 <0>         0.0936
     58 H28         6.2073    3.6535   -0.0392 H         1 <0>         0.4226
@<TRIPOS>BOND
     1    1    6 ar
     2    1    2 ar
     3    1   31 1
     4    2    3 ar
     5    2   32 1
     6    3    4 ar
     7    3    9 1
     8    4    5 ar
     9    4    8 1
    10    5    6 ar
    11    5    7 1
    12    6   33 1
    13    9   14 1
    14    9   10 1
    15   10   11 1
    16   10   34 1
    17   10   35 1
    18   11   12 1
    19   11   36 1
    20   11   37 1
    21   12   13 1
    22   12   15 1
    23   12   58 1
    24   13   14 1
    25   13   38 1
    26   13   39 1
    27   14   40 1
    28   14   41 1
    29   15   16 1
    30   15   42 1
    31   15   43 1
    32   16   17 1
    33   16   44 1
    34   16   45 1
    35   17   18 1
    36   17   46 1
    37   17   47 1
    38   18   19 1
    39   18   48 1
    40   18   49 1
    41   19   20 1
    42   20   25 ar
    43   20   21 ar
    44   21   22 ar
    45   21   50 1
    46   22   23 ar
    47   22   51 1
    48   23   30 1
    49   23   24 ar
    50   24   25 ar
    51   24   26 1
    52   25   52 1
    53   26   27 am
    54   26   53 1
    55   27   28 2
    56   27   29 1
    57   29   30 1
    58   29   54 1
    59   29   55 1
    60   30   56 1
    61   30   57 1
@<TRIPOS>MOLECULE
ZINC01851149
   57    60     0     0     0
SMALL
USER_CHARGES

@<TRIPOS>ATOM
      1 C1         -0.0167    1.3781    0.0096 C.ar      1 <0>        -0.0962
      2 C2          1.1690    2.0873    0.0021 C.ar      1 <0>        -0.1094
      3 C3          2.3816    1.4109   -0.0131 C.ar      1 <0>         0.1932
      4 C4          2.3986    0.0211   -0.0208 C.ar      1 <0>        -0.0428
      5 C5          1.2084   -0.6828   -0.0132 C.ar      1 <0>        -0.0286
      6 C6          0.0021   -0.0041    0.0020 C.ar      1 <0>        -0.1045
      7 Cl1         1.2271   -2.4187   -0.0233 Cl        1 <0>        -0.0488
      8 Cl2         3.9117   -0.8297   -0.0404 Cl        1 <0>        -0.0433
      9 N1          3.5822    2.1260   -0.0212 N.pl3     1 <0>        -0.6753
     10 C7          4.2154    2.5239   -1.2877 C.3       1 <0>         0.1522
     11 C8          5.6814    2.0786   -1.2601 C.3       1 <0>         0.0390
     12 N2          6.3271    2.6054   -0.0504 N.3       1 <0>        -0.5335
     13 C9          5.7110    2.0562    1.1648 C.3       1 <0>         0.0352
     14 C10         4.2431    2.5059    1.2366 C.3       1 <0>         0.1520
     15 C11         7.7731    2.3471   -0.0705 C.3       1 <0>         0.0570
     16 C12         8.4448    3.1181    1.0676 C.3       1 <0>        -0.1122
     17 C13         9.9508    2.8491    1.0467 C.3       1 <0>        -0.1185
     18 C14        10.6225    3.6201    2.1847 C.3       1 <0>         0.0609
     19 O1         12.0291    3.3688    2.1652 O.3       1 <0>        -0.3131
     20 C15        12.7788    3.9828    3.1179 C.ar      1 <0>         0.1632
     21 C16        12.1712    4.8060    4.0560 C.ar      1 <0>        -0.2281
     22 C17        12.9321    5.4316    5.0250 C.ar      1 <0>        -0.0412
     23 C18        14.2995    5.2392    5.0634 C.ar      1 <0>        -0.1625
     24 C19        14.9129    4.4161    4.1277 C.ar      1 <0>         0.2001
     25 C20        14.1497    3.7829    3.1569 C.ar      1 <0>        -0.1880
     26 N3         16.2971    4.2225    4.1697 N.am      1 <0>        -0.6633
     27 C21        16.9915    4.5031    5.2876 C.2       1 <0>         0.5225
     28 O2         18.1937    4.3433    5.3024 O.2       1 <0>        -0.5237
     29 C22        16.2937    5.0132    6.5196 C.3       1 <0>        -0.1395
     30 C23        15.1296    5.9209    6.1201 C.3       1 <0>        -0.0723
     31 H1         -0.9596    1.9044    0.0260 H         1 <0>         0.1404
     32 H2          1.1527    3.1672    0.0077 H         1 <0>         0.1387
     33 H3         -0.9265   -0.5556    0.0083 H         1 <0>         0.1426
     34 H4          3.7022    2.0431   -2.1205 H         1 <0>         0.0715
     35 H5          4.1638    3.6071   -1.3984 H         1 <0>         0.0629
     36 H6          5.7306    0.9897   -1.2538 H         1 <0>         0.0403
     37 H7          6.1944    2.4613   -2.1423 H         1 <0>         0.0804
     38 H8          5.7599    0.9676    1.1373 H         1 <0>         0.0406
     39 H9          6.2457    2.4226    2.0412 H         1 <0>         0.0819
     40 H10         4.1941    3.5874    1.3639 H         1 <0>         0.0629
     41 H11         3.7483    2.0131    2.0736 H         1 <0>         0.0709
     42 H12         7.9533    1.2798    0.0578 H         1 <0>         0.0339
     43 H13         8.1873    2.6734   -1.0245 H         1 <0>         0.0769
     44 H14         8.2646    4.1855    0.9393 H         1 <0>         0.0762
     45 H15         8.0306    2.7918    2.0216 H         1 <0>         0.0660
     46 H16        10.1310    1.7817    1.1750 H         1 <0>         0.0732
     47 H17        10.3650    3.1754    0.0927 H         1 <0>         0.0761
     48 H18        10.4423    4.6874    2.0565 H         1 <0>         0.0659
     49 H19        10.2083    3.2938    3.1387 H         1 <0>         0.0641
     50 H20        11.1023    4.9580    4.0282 H         1 <0>         0.1320
     51 H21        12.4571    6.0722    5.7533 H         1 <0>         0.1337
     52 H22        14.6236    3.1389    2.4308 H         1 <0>         0.1367
     53 H23        16.7599    3.8832    3.3877 H         1 <0>         0.4126
     54 H24        15.9140    4.1697    7.0961 H         1 <0>         0.1050
     55 H25        17.0002    5.5774    7.1284 H         1 <0>         0.1106
     56 H26        15.5192    6.8597    5.7264 H         1 <0>         0.0818
     57 H27        14.5104    6.1229    6.9941 H         1 <0>         0.0917
@<TRIPOS>BOND
     1    1    6 ar
     2    1    2 ar
     3    1   31 1
     4    2    3 ar
     5    2   32 1
     6    3    4 ar
     7    3    9 1
     8    4    5 ar
     9    4    8 1
    10    5    6 ar
    11    5    7 1
    12    6   33 1
    13    9   14 1
    14    9   10 1
    15   10   11 1
    16   10   34 1
    17   10   35 1
    18   11   12 1
    19   11   36 1
    20   11   37 1
    21   12   13 1
    22   12   15 1
    23   13   14 1
    24   13   38 1
    25   13   39 1
    26   14   40 1
    27   14   41 1
    28   15   16 1
    29   15   42 1
    30   15   43 1
    31   16   17 1
    32   16   44 1
    33   16   45 1
    34   17   18 1
    35   17   46 1
    36   17   47 1
    37   18   19 1
    38   18   48 1
    39   18   49 1
    40   19   20 1
    41   20   25 ar
    42   20   21 ar
    43   21   22 ar
    44   21   50 1
    45   22   23 ar
    46   22   51 1
    47   23   30 1
    48   23   24 ar
    49   24   25 ar
    50   24   26 1
    51   25   52 1
    52   26   27 am
    53   26   53 1
    54   27   28 2
    55   27   29 1
    56   29   30 1
    57   29   54 1
    58   29   55 1
    59   30   56 1
    60   30   57 1
@<TRIPOS>MOLECULE
ZINC05834731
   54    55     0     0     0
SMALL
USER_CHARGES
1-[5-hydroxy-2-(2-hydroxy-3-propylamino-propoxy)-phenyl]-3-phenyl-propan-1-one
@<TRIPOS>ATOM
      1 C1          6.4419   -6.4507   -0.4566 C.3       1 <0>        -0.1569
      2 C2          6.4588   -4.9265   -0.3245 C.3       1 <0>        -0.1526
      3 C3          5.0224   -4.3997   -0.3120 C.3       1 <0>        -0.0061
      4 C4          3.6735   -2.3940   -0.1697 C.3       1 <0>        -0.0378
      5 C5          3.7313   -0.8708   -0.0369 C.3       1 <0>         0.0870
      6 H1          4.2786   -0.4529   -0.8817 H         1 <0>         0.1365
      7 C6          2.3094   -0.3060   -0.0207 C.3       1 <0>         0.0220
      8 O1          2.3641    1.1219   -0.0140 O.3       1 <0>        -0.2697
      9 C7          1.1798    1.7836    0.0004 C.ar      1 <0>         0.1662
     10 C8         -0.0126    1.0758    0.0080 C.ar      1 <0>        -0.2069
     11 C9         -1.2182    1.7478    0.0173 C.ar      1 <0>        -0.0714
     12 C10        -1.2489    3.1378    0.0308 C.ar      1 <0>         0.0690
     13 C11        -0.0711    3.8594    0.0235 C.ar      1 <0>        -0.0601
     14 C12         1.1573    3.1874    0.0081 C.ar      1 <0>        -0.1803
     15 C13         2.4139    3.9460    0.0007 C.2       1 <0>         0.3962
     16 O2          3.4759    3.3602   -0.0122 O.2       1 <0>        -0.4315
     17 C14         2.3845    5.4527    0.0091 C.3       1 <0>        -0.1524
     18 C15         3.8167    5.9908   -0.0012 C.3       1 <0>        -0.0692
     19 C16         3.7873    7.4975    0.0072 C.ar      1 <0>        -0.0895
     20 C17         3.7686    8.1950   -1.1861 C.ar      1 <0>        -0.1174
     21 C18         3.7363    9.5770   -1.1784 C.ar      1 <0>        -0.1169
     22 C19         3.7338   10.2616    0.0225 C.ar      1 <0>        -0.1207
     23 C20         3.7583    9.5641    1.2158 C.ar      1 <0>        -0.1165
     24 C21         3.7848    8.1821    1.2081 C.ar      1 <0>        -0.1169
     25 O3         -2.4425    3.7892    0.0453 O.3       1 <0>        -0.4915
     26 O4          4.3955   -0.5237    1.1798 O.3       1 <0>        -0.5393
     27 H2          5.9038   -6.8825    0.3873 H         1 <0>         0.0671
     28 H3          5.9445   -6.7294   -1.3856 H         1 <0>         0.0672
     29 H4          7.4652   -6.8260   -0.4655 H         1 <0>         0.0787
     30 H5          6.9968   -4.4947   -1.1684 H         1 <0>         0.0875
     31 H6          6.9561   -4.6478    0.6045 H         1 <0>         0.0876
     32 H7          4.4844   -4.8315    0.5319 H         1 <0>         0.1309
     33 H8          4.5251   -4.6784   -1.2410 H         1 <0>         0.1314
     34 H9          3.1261   -2.8119    0.6751 H         1 <0>         0.1382
     35 H10         3.1668   -2.6588   -1.0978 H         1 <0>         0.1453
     36 H11         1.7904   -0.6539    0.8724 H         1 <0>         0.0782
     37 H12         1.7737   -0.6450   -0.9075 H         1 <0>         0.0829
     38 H13         0.0021   -0.0041    0.0020 H         1 <0>         0.1357
     39 H14        -2.1433    1.1905    0.0183 H         1 <0>         0.1410
     40 H15        -0.0975    4.9391    0.0292 H         1 <0>         0.1500
     41 H16         1.8992    5.7811   -0.8012 H         1 <0>         0.0915
     42 H17         1.8719    5.8011    0.9057 H         1 <0>         0.1020
     43 H18         4.3457    5.6328    0.8821 H         1 <0>         0.0789
     44 H19         4.3294    5.6423   -0.8978 H         1 <0>         0.0781
     45 H20         3.7751    7.6603   -2.1244 H         1 <0>         0.1205
     46 H21         3.7168   10.1219   -2.1106 H         1 <0>         0.1232
     47 H22         3.7124   11.3414    0.0285 H         1 <0>         0.1232
     48 H23         3.7564   10.0990    2.1540 H         1 <0>         0.1235
     49 H24         3.8040    7.6371    2.1404 H         1 <0>         0.1212
     50 H25        -2.7960    3.9820   -0.8339 H         1 <0>         0.3952
     51 H26         3.9626   -0.8633    1.9750 H         1 <0>         0.3882
     52 N1          5.0476   -2.9303   -0.1845 N.4       1 <0>        -0.5142
     53 H27         5.5588   -2.5300   -0.9799 H         1 <0>         0.4354
     54 H28         5.5205   -2.6743    0.6902 H         1 <0>         0.4380
@<TRIPOS>BOND
     1    1    2 1
     2    1   27 1
     3    1   28 1
     4    1   29 1
     5    2    3 1
     6    2   30 1
     7    2   31 1
     8    3   32 1
     9    3   33 1
    10    3   52 1
    11    4    5 1
    12    4   34 1
    13    4   35 1
    14    4   52 1
    15    5    6 1
    16    5    7 1
    17    5   26 1
    18    7    8 1
    19    7   36 1
    20    7   37 1
    21    8    9 1
    22    9   14 ar
    23    9   10 ar
    24   10   11 ar
    25   10   38 1
    26   11   12 ar
    27   11   39 1
    28   12   13 ar
    29   12   25 1
    30   13   14 ar
    31   13   40 1
    32   14   15 1
    33   15   16 2
    34   15   17 1
    35   17   18 1
    36   17   41 1
    37   17   42 1
    38   18   19 1
    39   18   43 1
    40   18   44 1
    41   19   24 ar
    42   19   20 ar
    43   20   21 ar
    44   20   45 1
    45   21   22 ar
    46   21   46 1
    47   22   23 ar
    48   22   47 1
    49   23   24 ar
    50   23   48 1
    51   24   49 1
    52   25   50 1
    53   26   51 1
    54   52   53 1
    55   52   54 1
@<TRIPOS>MOLECULE
ZINC05834799
   54    55     0     0     0
SMALL
USER_CHARGES
1-[5-hydroxy-2-(2-hydroxy-3-propylamino-propoxy)-phenyl]-3-phenyl-propan-1-one
@<TRIPOS>ATOM
      1 C1         12.5242    2.0796   -0.6752 C.3       1 <0>        -0.1569
      2 C2         11.1109    1.5088   -0.5430 C.3       1 <0>        -0.1526
      3 C3         10.1078    2.6564   -0.4095 C.3       1 <0>        -0.0062
      4 C4          7.7588    3.1839   -0.1521 C.3       1 <0>        -0.0376
      5 C5          6.3609    2.5755   -0.0225 C.3       1 <0>         0.0871
      6 H1          6.1739    1.9118   -0.8666 H         1 <0>         0.1357
      7 C6          5.3169    3.6938   -0.0119 C.3       1 <0>         0.0220
      8 O1          4.0070    3.1226   -0.0083 O.3       1 <0>        -0.2698
      9 C7          2.9592    3.9845    0.0011 C.ar      1 <0>         0.1662
     10 C8          3.1839    5.3528    0.0014 C.ar      1 <0>        -0.2068
     11 C9          2.1189    6.2307    0.0167 C.ar      1 <0>        -0.0712
     12 C10         0.8132    5.7528    0.0257 C.ar      1 <0>         0.0689
     13 C11         0.5703    4.3931    0.0202 C.ar      1 <0>        -0.0601
     14 C12         1.6437    3.4940    0.0051 C.ar      1 <0>        -0.1803
     15 C13         1.3951    2.0474   -0.0003 C.2       1 <0>         0.3962
     16 O2          2.3277    1.2718   -0.0133 O.2       1 <0>        -0.4316
     17 C14        -0.0187    1.5258    0.0104 C.3       1 <0>        -0.1522
     18 C15         0.0021   -0.0041    0.0020 C.3       1 <0>        -0.0692
     19 C16        -1.4117   -0.5257    0.0127 C.ar      1 <0>        -0.0896
     20 C17        -2.0468   -0.7767    1.2146 C.ar      1 <0>        -0.1171
     21 C18        -3.3455   -1.2502    1.2245 C.ar      1 <0>        -0.1168
     22 C19        -4.0053   -1.4830    0.0323 C.ar      1 <0>        -0.1206
     23 C20        -3.3683   -1.2374   -1.1696 C.ar      1 <0>        -0.1166
     24 C21        -2.0716   -0.7585   -1.1795 C.ar      1 <0>        -0.1171
     25 O3         -0.2283    6.6271    0.0403 O.3       1 <0>        -0.4915
     26 O4          6.2758    1.8328    1.1954 O.3       1 <0>        -0.5386
     27 H2         12.5785    2.7144   -1.5597 H         1 <0>         0.0672
     28 H3         12.7623    2.6691    0.2102 H         1 <0>         0.0671
     29 H4         13.2388    1.2621   -0.7703 H         1 <0>         0.0786
     30 H5         11.0566    0.8741    0.3414 H         1 <0>         0.0876
     31 H6         10.8728    0.9194   -1.4285 H         1 <0>         0.0875
     32 H7         10.1621    3.2912   -1.2940 H         1 <0>         0.1315
     33 H8         10.3459    3.2459    0.4759 H         1 <0>         0.1309
     34 H9          7.7967    3.8223   -1.0348 H         1 <0>         0.1448
     35 H10         7.9805    3.7771    0.7351 H         1 <0>         0.1388
     36 H11         5.4402    4.3144   -0.8995 H         1 <0>         0.0828
     37 H12         5.4489    4.3057    0.8804 H         1 <0>         0.0783
     38 H13         4.1949    5.7327   -0.0055 H         1 <0>         0.1358
     39 H14         2.3008    7.2952    0.0214 H         1 <0>         0.1410
     40 H15        -0.4448    4.0243    0.0279 H         1 <0>         0.1501
     41 H16        -0.5023    1.8571   -0.7998 H         1 <0>         0.0918
     42 H17        -0.5289    1.8773    0.9072 H         1 <0>         0.1015
     43 H18         0.5123   -0.3556   -0.8948 H         1 <0>         0.0782
     44 H19         0.5293   -0.3651    0.8851 H         1 <0>         0.0789
     45 H20        -1.5297   -0.5990    2.1460 H         1 <0>         0.1210
     46 H21        -3.8433   -1.4417    2.1636 H         1 <0>         0.1234
     47 H22        -5.0187   -1.8564    0.0400 H         1 <0>         0.1232
     48 H23        -3.8838   -1.4192   -2.1011 H         1 <0>         0.1233
     49 H24        -1.5739   -0.5666   -2.1185 H         1 <0>         0.1207
     50 H25        -0.5213    6.8750    0.9279 H         1 <0>         0.3953
     51 H26         6.4317    2.3612    1.9900 H         1 <0>         0.3884
     52 N1          8.7484    2.0979   -0.2826 N.4       1 <0>        -0.5147
     53 H27         8.7050    1.4983    0.5497 H         1 <0>         0.4385
     54 H28         8.5319    1.5409   -1.1175 H         1 <0>         0.4352
@<TRIPOS>BOND
     1    1    2 1
     2    1   27 1
     3    1   28 1
     4    1   29 1
     5    2    3 1
     6    2   30 1
     7    2   31 1
     8    3   32 1
     9    3   33 1
    10    3   52 1
    11    4    5 1
    12    4   34 1
    13    4   35 1
    14    4   52 1
    15    5    6 1
    16    5    7 1
    17    5   26 1
    18    7    8 1
    19    7   36 1
    20    7   37 1
    21    8    9 1
    22    9   14 ar
    23    9   10 ar
    24   10   11 ar
    25   10   38 1
    26   11   12 ar
    27   11   39 1
    28   12   13 ar
    29   12   25 1
    30   13   14 ar
    31   13   40 1
    32   14   15 1
    33   15   16 2
    34   15   17 1
    35   17   18 1
    36   17   41 1
    37   17   42 1
    38   18   19 1
    39   18   43 1
    40   18   44 1
    41   19   24 ar
    42   19   20 ar
    43   20   21 ar
    44   20   45 1
    45   21   22 ar
    46   21   46 1
    47   22   23 ar
    48   22   47 1
    49   23   24 ar
    50   23   48 1
    51   24   49 1
    52   25   50 1
    53   26   51 1
    54   52   53 1
    55   52   54 1
@<TRIPOS>MOLECULE
ZINC06005366
   69    70     0     0     0
SMALL
USER_CHARGES

@<TRIPOS>ATOM
      1 C1          0.4613    1.3512   -0.2411 C.3       1 <0>        -0.1833
      2 C2          0.0759   -0.1096    0.0005 C.3       1 <0>        -0.0833
      3 C3          0.8943   -0.6667    1.1670 C.3       1 <0>        -0.1749
      4 C4         -1.4143   -0.1950    0.3364 C.3       1 <0>         0.1003
      5 C5         -1.7978   -1.6548    0.5869 C.3       1 <0>        -0.1048
      6 C6         -1.5098   -2.4805   -0.6685 C.3       1 <0>        -0.1619
      7 C7         -1.8932   -3.9403   -0.4180 C.3       1 <0>        -0.0085
      8 N1         -1.6167   -4.7331   -1.6234 N.4       1 <0>        -0.5110
      9 C8         -1.9849   -6.1347   -1.3828 C.3       1 <0>        -0.0074
     10 C9         -1.6968   -6.9604   -2.6383 C.3       1 <0>        -0.0955
     11 C10        -2.0745   -8.3982   -2.3914 C.ar      1 <0>        -0.1101
     12 C11        -1.1417   -9.2771   -1.8730 C.ar      1 <0>        -0.1023
     13 C12        -1.4833  -10.5971   -1.6448 C.ar      1 <0>        -0.1721
     14 C13        -2.7631  -11.0418   -1.9353 C.ar      1 <0>         0.1184
     15 C14        -3.7021  -10.1570   -2.4567 C.ar      1 <0>         0.1059
     16 C15        -3.3546   -8.8341   -2.6786 C.ar      1 <0>        -0.1659
     17 O1         -4.9594  -10.5887   -2.7435 O.3       1 <0>        -0.3007
     18 C16        -5.8704   -9.6251   -3.2761 C.3       1 <0>         0.0251
     19 O2         -3.1005  -12.3401   -1.7119 O.3       1 <0>        -0.3013
     20 C17        -2.0856  -13.1912   -1.1756 C.3       1 <0>         0.0227
     21 C18        -2.2021    0.3329   -0.7895 C.1       1 <0>         0.2040
     22 N2         -2.8100    0.7403   -1.6584 N.1       1 <0>        -0.4102
     23 C19        -1.6980    0.6182    1.5730 C.ar      1 <0>        -0.0963
     24 C20        -0.6670    1.2767    2.2170 C.ar      1 <0>        -0.1133
     25 C21        -0.9220    2.0240    3.3517 C.ar      1 <0>        -0.1756
     26 C22        -2.2135    2.1147    3.8457 C.ar      1 <0>         0.1176
     27 C23        -3.2513    1.4523    3.1972 C.ar      1 <0>         0.1029
     28 C24        -2.9895    0.7089    2.0575 C.ar      1 <0>        -0.1606
     29 O3         -4.5204    1.5383    3.6782 O.3       1 <0>        -0.3010
     30 C25        -5.5352    0.8324    2.9612 C.3       1 <0>         0.0258
     31 O4         -2.4660    2.8491    4.9621 O.3       1 <0>        -0.3026
     32 C26        -1.3521    3.5012    5.5754 C.3       1 <0>         0.0231
     33 H1          1.5406    1.4640   -0.1388 H         1 <0>         0.0722
     34 H2          0.1589    1.6453   -1.2462 H         1 <0>         0.0563
     35 H3         -0.0411    1.9852    0.4895 H         1 <0>         0.0836
     36 H4          0.2799   -0.6925   -0.8976 H         1 <0>         0.0828
     37 H5          0.4393   -0.3607    2.1090 H         1 <0>         0.0865
     38 H6          0.9142   -1.7550    1.1098 H         1 <0>         0.0576
     39 H7          1.9125   -0.2814    1.1132 H         1 <0>         0.0716
     40 H8         -1.2145   -2.0457    1.4206 H         1 <0>         0.1044
     41 H9         -2.8595   -1.7157    0.8262 H         1 <0>         0.0855
     42 H10        -2.0931   -2.0896   -1.5022 H         1 <0>         0.0872
     43 H11        -0.4481   -2.4196   -0.9078 H         1 <0>         0.0992
     44 H12        -1.3099   -4.3312    0.4157 H         1 <0>         0.1371
     45 H13        -2.9549   -4.0012   -0.1787 H         1 <0>         0.1332
     46 H14        -2.1567   -4.3712   -2.3951 H         1 <0>         0.4284
     47 H15        -1.4015   -6.5256   -0.5491 H         1 <0>         0.1354
     48 H16        -3.0465   -6.1956   -1.1435 H         1 <0>         0.1327
     49 H17        -2.2802   -6.5695   -3.4719 H         1 <0>         0.0941
     50 H18        -0.6352   -6.8995   -2.8775 H         1 <0>         0.0972
     51 H19        -0.1439   -8.9318   -1.6461 H         1 <0>         0.1296
     52 H20        -0.7525  -11.2818   -1.2404 H         1 <0>         0.1423
     53 H21        -4.0826   -8.1445   -3.0797 H         1 <0>         0.1366
     54 H22        -5.4756   -9.2305   -4.2123 H         1 <0>         0.0566
     55 H23        -6.8346  -10.0993   -3.4596 H         1 <0>         0.1072
     56 H24        -5.9960   -8.8107   -2.5627 H         1 <0>         0.0540
     57 H25        -1.2384  -13.2225   -1.8606 H         1 <0>         0.0593
     58 H26        -1.7586  -12.8033   -0.2108 H         1 <0>         0.0586
     59 H27        -2.4856  -14.1968   -1.0462 H         1 <0>         0.1081
     60 H28         0.3400    1.2068    1.8330 H         1 <0>         0.1606
     61 H29        -0.1147    2.5368    3.8534 H         1 <0>         0.1427
     62 H30        -3.7938    0.1970    1.5502 H         1 <0>         0.1322
     63 H31        -6.4977    0.9846    3.4495 H         1 <0>         0.1056
     64 H32        -5.5837    1.2057    1.9383 H         1 <0>         0.0538
     65 H33        -5.2981   -0.2314    2.9489 H         1 <0>         0.0535
     66 H34        -0.6151    2.7563    5.8754 H         1 <0>         0.0585
     67 H35        -0.9005    4.1938    4.8652 H         1 <0>         0.0584
     68 H36        -1.6913    4.0508    6.4534 H         1 <0>         0.1058
     69 H37        -0.6339   -4.6767   -1.8449 H         1 <0>         0.4289
@<TRIPOS>BOND
     1    1    2 1
     2    1   33 1
     3    1   34 1
     4    1   35 1
     5    2    3 1
     6    2    4 1
     7    2   36 1
     8    3   37 1
     9    3   38 1
    10    3   39 1
    11    4    5 1
    12    4   21 1
    13    4   23 1
    14    5    6 1
    15    5   40 1
    16    5   41 1
    17    6    7 1
    18    6   42 1
    19    6   43 1
    20    7    8 1
    21    7   44 1
    22    7   45 1
    23    8    9 1
    24    8   46 1
    25    8   69 1
    26    9   10 1
    27    9   47 1
    28    9   48 1
    29   10   11 1
    30   10   49 1
    31   10   50 1
    32   11   16 ar
    33   11   12 ar
    34   12   13 ar
    35   12   51 1
    36   13   14 ar
    37   13   52 1
    38   14   15 ar
    39   14   19 1
    40   15   16 ar
    41   15   17 1
    42   16   53 1
    43   17   18 1
    44   18   54 1
    45   18   55 1
    46   18   56 1
    47   19   20 1
    48   20   57 1
    49   20   58 1
    50   20   59 1
    51   21   22 3
    52   23   28 ar
    53   23   24 ar
    54   24   25 ar
    55   24   60 1
    56   25   26 ar
    57   25   61 1
    58   26   27 ar
    59   26   31 1
    60   27   28 ar
    61   27   29 1
    62   28   62 1
    63   29   30 1
    64   30   63 1
    65   30   64 1
    66   30   65 1
    67   31   32 1
    68   32   66 1
    69   32   67 1
    70   32   68 1
@<TRIPOS>MOLECULE
ZINC13492624
   69    70     0     0     0
SMALL
USER_CHARGES

@<TRIPOS>ATOM
      1 C1          0.7045   -0.4249    1.0239 C.3       1 <0>        -0.1774
      2 C2         -0.2083   -0.0426   -0.1430 C.3       1 <0>        -0.0830
      3 C3          0.4665   -0.4198   -1.4633 C.3       1 <0>        -0.1809
      4 C4         -1.5370   -0.7907   -0.0174 C.3       1 <0>         0.0999
      5 C5         -2.1706   -0.4806    1.3403 C.3       1 <0>        -0.1047
      6 C6         -2.4396    1.0218    1.4464 C.3       1 <0>        -0.1617
      7 C7         -3.0628    1.3335    2.8085 C.3       1 <0>        -0.0085
      8 N1         -3.3211    2.7760    2.9103 N.4       1 <0>        -0.5110
      9 C8         -3.9194    3.0752    4.2181 C.3       1 <0>        -0.0074
     10 C9         -4.1884    4.5776    4.3242 C.3       1 <0>        -0.0956
     11 C10        -4.8022    4.8846    5.6658 C.ar      1 <0>        -0.1101
     12 C11        -6.1760    4.8564    5.8185 C.ar      1 <0>        -0.1025
     13 C12        -6.7439    5.1373    7.0471 C.ar      1 <0>        -0.1721
     14 C13        -5.9359    5.4474    8.1292 C.ar      1 <0>         0.1184
     15 C14        -4.5531    5.4753    7.9757 C.ar      1 <0>         0.1060
     16 C15        -3.9901    5.1881    6.7426 C.ar      1 <0>        -0.1656
     17 O1         -3.7559    5.7792    9.0347 O.3       1 <0>        -0.3008
     18 C16        -2.3458    5.7889    8.8035 C.3       1 <0>         0.0251
     19 O2         -6.4930    5.7244    9.3385 O.3       1 <0>        -0.3013
     20 C17        -7.9188    5.6773    9.4220 C.3       1 <0>         0.0226
     21 C18        -2.4458   -0.3607   -1.0926 C.1       1 <0>         0.2042
     22 N2         -3.1471   -0.0288   -1.9224 N.1       1 <0>        -0.4104
     23 C19        -1.2914   -2.2733   -0.1302 C.ar      1 <0>        -0.0950
     24 C20         0.0029   -2.7591   -0.1404 C.ar      1 <0>        -0.1162
     25 C21         0.2335   -4.1182   -0.2438 C.ar      1 <0>        -0.1751
     26 C22        -0.8339   -4.9969   -0.3369 C.ar      1 <0>         0.1169
     27 C23        -2.1366   -4.5079   -0.3262 C.ar      1 <0>         0.1038
     28 C24        -2.3608   -3.1449   -0.2175 C.ar      1 <0>        -0.1615
     29 O3         -3.1875   -5.3663   -0.4174 O.3       1 <0>        -0.3011
     30 C25        -4.4965   -4.7934   -0.4001 C.3       1 <0>         0.0257
     31 O4         -0.6087   -6.3342   -0.4391 O.3       1 <0>        -0.3027
     32 C26         0.7540   -6.7642   -0.4443 C.3       1 <0>         0.0232
     33 H1          1.7439   -0.2550    0.7428 H         1 <0>         0.0727
     34 H2          0.4586    0.1856    1.8927 H         1 <0>         0.0579
     35 H3          0.5613   -1.4777    1.2673 H         1 <0>         0.0885
     36 H4         -0.3928    1.0315   -0.1231 H         1 <0>         0.0823
     37 H5          0.4507   -1.5031   -1.5829 H         1 <0>         0.0837
     38 H6         -0.0692    0.0450   -2.2909 H         1 <0>         0.0555
     39 H7          1.4989   -0.0701   -1.4565 H         1 <0>         0.0706
     40 H8         -3.1097   -1.0255    1.4360 H         1 <0>         0.0860
     41 H9         -1.4911   -0.7851    2.1364 H         1 <0>         0.1044
     42 H10        -1.5015    1.5671    1.3427 H         1 <0>         0.0987
     43 H11        -3.1254    1.3249    0.6552 H         1 <0>         0.0872
     44 H12        -4.0009    0.7882    2.9122 H         1 <0>         0.1337
     45 H13        -2.3770    1.0304    3.5997 H         1 <0>         0.1367
     46 H14        -2.4527    3.2808    2.8143 H         1 <0>         0.4284
     47 H15        -4.8575    2.5299    4.3218 H         1 <0>         0.1343
     48 H16        -3.2336    2.7722    5.0093 H         1 <0>         0.1338
     49 H17        -3.2503    5.1229    4.2205 H         1 <0>         0.0947
     50 H18        -4.8742    4.8807    3.5330 H         1 <0>         0.0966
     51 H19        -6.8069    4.6148    4.9759 H         1 <0>         0.1292
     52 H20        -7.8174    5.1153    7.1636 H         1 <0>         0.1421
     53 H21        -2.9170    5.2054    6.6217 H         1 <0>         0.1370
     54 H22        -2.1084    6.5266    8.0370 H         1 <0>         0.0565
     55 H23        -1.8278    6.0455    9.7275 H         1 <0>         0.1071
     56 H24        -2.0255    4.8020    8.4694 H         1 <0>         0.0541
     57 H25        -8.3474    6.4016    8.7293 H         1 <0>         0.0592
     58 H26        -8.2651    4.6770    9.1622 H         1 <0>         0.0585
     59 H27        -8.2314    5.9175   10.4383 H         1 <0>         0.1081
     60 H28         0.8357   -2.0753   -0.0679 H         1 <0>         0.1622
     61 H29         1.2456   -4.4952   -0.2522 H         1 <0>         0.1426
     62 H30        -3.3710   -2.7631   -0.2052 H         1 <0>         0.1315
     63 H31        -5.2409   -5.5857   -0.4793 H         1 <0>         0.1059
     64 H32        -4.6427   -4.2495    0.5331 H         1 <0>         0.0534
     65 H33        -4.6043   -4.1081   -1.2408 H         1 <0>         0.0539
     66 H34         1.2738   -6.3142   -1.2902 H         1 <0>         0.0584
     67 H35         1.2357   -6.4561    0.4837 H         1 <0>         0.0583
     68 H36         0.7921   -7.8501   -0.5303 H         1 <0>         0.1058
     69 H37        -3.9559    3.0565    2.1779 H         1 <0>         0.4288
@<TRIPOS>BOND
     1    1    2 1
     2    1   33 1
     3    1   34 1
     4    1   35 1
     5    2    3 1
     6    2    4 1
     7    2   36 1
     8    3   37 1
     9    3   38 1
    10    3   39 1
    11    4    5 1
    12    4   21 1
    13    4   23 1
    14    5    6 1
    15    5   40 1
    16    5   41 1
    17    6    7 1
    18    6   42 1
    19    6   43 1
    20    7    8 1
    21    7   44 1
    22    7   45 1
    23    8    9 1
    24    8   46 1
    25    8   69 1
    26    9   10 1
    27    9   47 1
    28    9   48 1
    29   10   11 1
    30   10   49 1
    31   10   50 1
    32   11   16 ar
    33   11   12 ar
    34   12   13 ar
    35   12   51 1
    36   13   14 ar
    37   13   52 1
    38   14   15 ar
    39   14   19 1
    40   15   16 ar
    41   15   17 1
    42   16   53 1
    43   17   18 1
    44   18   54 1
    45   18   55 1
    46   18   56 1
    47   19   20 1
    48   20   57 1
    49   20   58 1
    50   20   59 1
    51   21   22 3
    52   23   28 ar
    53   23   24 ar
    54   24   25 ar
    55   24   60 1
    56   25   26 ar
    57   25   61 1
    58   26   27 ar
    59   26   31 1
    60   27   28 ar
    61   27   29 1
    62   28   62 1
    63   29   30 1
    64   30   63 1
    65   30   64 1
    66   30   65 1
    67   31   32 1
    68   32   66 1
    69   32   67 1
    70   32   68 1
@<TRIPOS>MOLECULE
ZINC20419503
   52    54     0     0     0
SMALL
USER_CHARGES
1-[2-[(2S)-3-[4-(4-fluorophenyl)piperazin-1-yl]-2-hydroxy-propoxy]phenyl]ethanone
@<TRIPOS>ATOM
      1 C1          0.1338   -4.3320   -0.1522 C.3       1 <0>        -0.2030
      2 C2          0.0696   -2.8288   -0.0663 C.2       1 <0>         0.3890
      3 O1         -0.4714   -2.2981    0.8808 O.2       1 <0>        -0.4386
      4 C3          0.6616   -2.0070   -1.1287 C.ar      1 <0>        -0.2082
      5 C4          1.2868   -2.6148   -2.2242 C.ar      1 <0>        -0.0371
      6 C5          1.8394   -1.8372   -3.2169 C.ar      1 <0>        -0.1735
      7 C6          1.7803   -0.4544   -3.1378 C.ar      1 <0>        -0.0457
      8 C7          1.1622    0.1594   -2.0668 C.ar      1 <0>        -0.2274
      9 C8          0.6044   -0.6058   -1.0534 C.ar      1 <0>         0.1863
     10 O2          0.0021   -0.0041    0.0020 O.3       1 <0>        -0.2716
     11 C9         -0.0173    1.4248    0.0099 C.3       1 <0>         0.0593
     12 C10        -0.7334    1.9182    1.2687 C.3       1 <0>         0.1261
     13 H1         -1.7159    1.4370    1.3832 H         1 <0>         0.0640
     14 C11        -0.8645    3.4417    1.2168 C.3       1 <0>         0.0259
     15 N1         -1.5521    3.9154    2.4254 N.3       1 <0>        -0.5366
     16 C12        -2.9452    3.4487    2.4559 C.3       1 <0>         0.0452
     17 C13        -3.6014    3.8951    3.7646 C.3       1 <0>         0.0585
     18 N2         -3.5373    5.3597    3.8671 N.pl3     1 <0>        -0.4890
     19 C14        -2.1442    5.8264    3.8366 C.3       1 <0>         0.0499
     20 C15        -1.4879    5.3800    2.5280 C.3       1 <0>         0.0564
     21 C16        -4.1918    5.8106    5.0175 C.ar      1 <0>         0.1019
     22 C17        -3.5109    6.5878    5.9454 C.ar      1 <0>        -0.1419
     23 C18        -4.1608    7.0361    7.0787 C.ar      1 <0>        -0.1254
     24 C19        -5.4871    6.7024    7.2952 C.ar      1 <0>         0.0718
     25 C20        -6.1663    5.9233    6.3740 C.ar      1 <0>        -0.1269
     26 C21        -5.5220    5.4771    5.2367 C.ar      1 <0>        -0.1113
     27 F1         -6.1194    7.1381    8.4068 F         1 <0>        -0.1411
     28 O3          0.0207    1.5440    2.4234 O.3       1 <0>        -0.5806
     29 H2          0.6580   -4.6245   -1.0740 H         1 <0>         0.0816
     30 H3         -0.8867   -4.7424   -0.1647 H         1 <0>         0.0939
     31 H4          0.6769   -4.7262    0.7194 H         1 <0>         0.0944
     32 H5          1.3352   -3.6917   -2.2906 H         1 <0>         0.1414
     33 H6          2.3211   -2.3068   -4.0618 H         1 <0>         0.1313
     34 H7          2.2165    0.1467   -3.9219 H         1 <0>         0.1304
     35 H8          1.1166    1.2372   -2.0159 H         1 <0>         0.1327
     36 H9          1.0147    1.8055    0.0021 H         1 <0>         0.0740
     37 H10        -0.5493    1.7892   -0.8812 H         1 <0>         0.0773
     38 H11         0.1367    3.8942    1.1633 H         1 <0>         0.0894
     39 H12        -1.4450    3.7297    0.3279 H         1 <0>         0.0470
     40 H13        -3.4942    3.8773    1.6045 H         1 <0>         0.0488
     41 H14        -2.9657    2.3509    2.3901 H         1 <0>         0.0893
     42 H15        -4.6526    3.5714    3.7767 H         1 <0>         0.0897
     43 H16        -3.0689    3.4434    4.6145 H         1 <0>         0.0573
     44 H17        -2.1238    6.9242    3.9023 H         1 <0>         0.0906
     45 H18        -1.5952    5.3979    4.6881 H         1 <0>         0.0597
     46 H19        -0.4364    5.7027    2.5153 H         1 <0>         0.0883
     47 H20        -2.0200    5.8309    1.6774 H         1 <0>         0.0475
     48 H21        -2.4752    6.8449    5.7790 H         1 <0>         0.1371
     49 H22        -3.6330    7.6443    7.7984 H         1 <0>         0.1364
     50 H23        -7.2009    5.6645    6.5446 H         1 <0>         0.1379
     51 H24        -6.0523    4.8697    4.5182 H         1 <0>         0.1348
     52 H25        -0.3398    1.8140    3.4270 H         1 <0>         0.4130
@<TRIPOS>BOND
     1    1    2 1
     2    1   29 1
     3    1   30 1
     4    1   31 1
     5    2    3 2
     6    2    4 1
     7    4    9 ar
     8    4    5 ar
     9    5    6 ar
    10    5   32 1
    11    6    7 ar
    12    6   33 1
    13    7    8 ar
    14    7   34 1
    15    8    9 ar
    16    8   35 1
    17    9   10 1
    18   10   11 1
    19   11   12 1
    20   11   36 1
    21   11   37 1
    22   12   13 1
    23   12   14 1
    24   12   28 1
    25   14   15 1
    26   14   38 1
    27   14   39 1
    28   15   20 1
    29   15   16 1
    30   16   17 1
    31   16   40 1
    32   16   41 1
    33   17   18 1
    34   17   42 1
    35   17   43 1
    36   18   19 1
    37   18   21 1
    38   19   20 1
    39   19   44 1
    40   19   45 1
    41   20   46 1
    42   20   47 1
    43   21   26 ar
    44   21   22 ar
    45   22   23 ar
    46   22   48 1
    47   23   24 ar
    48   23   49 1
    49   24   25 ar
    50   24   27 1
    51   25   26 ar
    52   25   50 1
    53   26   51 1
    54   28   52 1
@<TRIPOS>MOLECULE
ZINC20419505
   52    54     0     0     0
SMALL
USER_CHARGES
1-[2-[(2R)-3-[4-(4-fluorophenyl)piperazin-1-yl]-2-hydroxy-propoxy]phenyl]ethanone
@<TRIPOS>ATOM
      1 C1         -6.2654    0.3118    1.2508 C.3       1 <0>        -0.2030
      2 C2         -4.8117    0.7069    1.2125 C.2       1 <0>         0.3889
      3 O1         -4.1171    0.3739    0.2756 O.2       1 <0>        -0.4383
      4 C3         -4.2362    1.4949    2.3091 C.ar      1 <0>        -0.2083
      5 C4         -5.0336    1.8815    3.3932 C.ar      1 <0>        -0.0372
      6 C5         -4.4864    2.6201    4.4182 C.ar      1 <0>        -0.1736
      7 C6         -3.1491    2.9835    4.3829 C.ar      1 <0>        -0.0458
      8 C7         -2.3488    2.6050    3.3236 C.ar      1 <0>        -0.2274
      9 C8         -2.8820    1.8657    2.2783 C.ar      1 <0>         0.1863
     10 O2         -2.0984    1.4981    1.2345 O.3       1 <0>        -0.2715
     11 C9         -0.7311    1.9117    1.2725 C.3       1 <0>         0.0590
     12 C10        -0.0108    1.4077    0.0203 C.3       1 <0>         0.1288
     13 H1         -0.5576    1.6849   -0.8930 H         1 <0>         0.0631
     14 C11         1.4181    1.9544   -0.0010 C.3       1 <0>         0.0254
     15 N1          2.1057    1.4806   -1.2096 N.3       1 <0>        -0.5374
     16 C12         3.5642    1.5753   -1.0570 C.3       1 <0>         0.0556
     17 C13         4.2431    0.9999   -2.3022 C.3       1 <0>         0.0579
     18 N2          3.7916    1.7394   -3.4891 N.pl3     1 <0>        -0.4890
     19 C14         2.3330    1.6448   -3.6417 C.3       1 <0>         0.0502
     20 C15         1.6541    2.2202   -2.3965 C.3       1 <0>         0.0489
     21 C16         4.4460    1.2885   -4.6395 C.ar      1 <0>         0.1019
     22 C17         3.7096    0.8271   -5.7228 C.ar      1 <0>        -0.1418
     23 C18         4.3581    0.3866   -6.8600 C.ar      1 <0>        -0.1252
     24 C19         5.7416    0.3950   -6.9164 C.ar      1 <0>         0.0718
     25 C20         6.4779    0.8497   -5.8355 C.ar      1 <0>        -0.1271
     26 C21         5.8335    1.2960   -4.6983 C.ar      1 <0>        -0.1114
     27 F1          6.3739   -0.0407   -8.0279 F         1 <0>        -0.1411
     28 O3          0.0259   -0.0208    0.0343 O.3       1 <0>        -0.5815
     29 H2         -6.7272    0.7015    2.1700 H         1 <0>         0.0816
     30 H3         -6.3478   -0.7850    1.2356 H         1 <0>         0.0943
     31 H4         -6.7824    0.7305    0.3748 H         1 <0>         0.0939
     32 H5         -6.0759    1.6005    3.4255 H         1 <0>         0.1413
     33 H6         -5.1021    2.9175    5.2542 H         1 <0>         0.1313
     34 H7         -2.7293    3.5627    5.1921 H         1 <0>         0.1303
     35 H8         -1.3068    2.8886    3.3069 H         1 <0>         0.1327
     36 H9         -0.6811    3.0100    1.3072 H         1 <0>         0.0770
     37 H10        -0.2464    1.4942    2.1674 H         1 <0>         0.0735
     38 H11         1.3900    3.0540   -0.0024 H         1 <0>         0.0491
     39 H12         1.9586    1.6026    0.8901 H         1 <0>         0.0876
     40 H13         3.8524    2.6299   -0.9353 H         1 <0>         0.0476
     41 H14         3.8779    1.0048   -0.1704 H         1 <0>         0.0887
     42 H15         5.3343    1.0960   -2.2023 H         1 <0>         0.0897
     43 H16         3.9767   -0.0621   -2.4074 H         1 <0>         0.0572
     44 H17         2.0193    2.2154   -4.5283 H         1 <0>         0.0905
     45 H18         2.0447    0.5903   -3.7635 H         1 <0>         0.0596
     46 H19         0.5628    2.1240   -2.4952 H         1 <0>         0.0878
     47 H20         1.9204    3.2822   -2.2901 H         1 <0>         0.0486
     48 H21         2.6306    0.8166   -5.6776 H         1 <0>         0.1372
     49 H22         3.7858    0.0319   -7.7043 H         1 <0>         0.1364
     50 H23         7.5569    0.8556   -5.8818 H         1 <0>         0.1379
     51 H24         6.4082    1.6509   -3.8556 H         1 <0>         0.1348
     52 H25         0.5071   -0.5667   -0.7906 H         1 <0>         0.4131
@<TRIPOS>BOND
     1    1    2 1
     2    1   29 1
     3    1   30 1
     4    1   31 1
     5    2    3 2
     6    2    4 1
     7    4    9 ar
     8    4    5 ar
     9    5    6 ar
    10    5   32 1
    11    6    7 ar
    12    6   33 1
    13    7    8 ar
    14    7   34 1
    15    8    9 ar
    16    8   35 1
    17    9   10 1
    18   10   11 1
    19   11   12 1
    20   11   36 1
    21   11   37 1
    22   12   13 1
    23   12   14 1
    24   12   28 1
    25   14   15 1
    26   14   38 1
    27   14   39 1
    28   15   20 1
    29   15   16 1
    30   16   17 1
    31   16   40 1
    32   16   41 1
    33   17   18 1
    34   17   42 1
    35   17   43 1
    36   18   19 1
    37   18   21 1
    38   19   20 1
    39   19   44 1
    40   19   45 1
    41   20   46 1
    42   20   47 1
    43   21   26 ar
    44   21   22 ar
    45   22   23 ar
    46   22   48 1
    47   23   24 ar
    48   23   49 1
    49   24   25 ar
    50   24   27 1
    51   25   26 ar
    52   25   50 1
    53   26   51 1
    54   28   52 1
@<TRIPOS>MOLECULE
ZINC00004779
   56    56     0     0     0
SMALL
USER_CHARGES
1-[2-[4-(2-hydroxy-3-isopropylamino-propoxy)phenyl]ethyl]-3-isopropyl-urea
@<TRIPOS>ATOM
      1 C1          5.4147   -7.2515    0.9377 C.3       1 <0>        -0.1845
      2 C2          4.8233   -6.9922   -0.4494 C.3       1 <0>         0.0271
      3 C3          4.6245   -8.3237   -1.1762 C.3       1 <0>        -0.1861
      4 C4          3.7078   -4.8595   -0.1844 C.3       1 <0>        -0.0383
      5 C5          2.3407   -4.1875   -0.0419 C.3       1 <0>         0.0857
      6 H1          1.7050   -4.4760   -0.8790 H         1 <0>         0.1343
      7 C6          2.5176   -2.6678   -0.0360 C.3       1 <0>         0.0297
      8 O1          1.2345   -2.0389   -0.0203 O.3       1 <0>        -0.3023
      9 C7          1.2134   -0.6801   -0.0132 C.ar      1 <0>         0.1173
     10 C8          0.0021   -0.0041    0.0020 C.ar      1 <0>        -0.1404
     11 C9         -0.0167    1.3772    0.0096 C.ar      1 <0>        -0.0693
     12 C10         1.1705    2.0859    0.0021 C.ar      1 <0>        -0.1076
     13 C11         2.3791    1.4145   -0.0132 C.ar      1 <0>        -0.0721
     14 C12         2.4032    0.0333   -0.0208 C.ar      1 <0>        -0.2056
     15 C13         1.1472    3.5927    0.0105 C.3       1 <0>        -0.0909
     16 C14         1.1531    4.0949    1.4557 C.3       1 <0>         0.1444
     17 N1          1.1303    5.5597    1.4638 N.am      1 <0>        -0.7502
     18 C15         1.1311    6.2272    2.6347 C.2       1 <0>         0.7037
     19 O2          1.1506    5.6136    3.6842 O.2       1 <0>        -0.5892
     20 N2          1.1102    7.5747    2.6422 N.am      1 <0>        -0.7417
     21 C16         1.1109    8.3003    3.9149 C.3       1 <0>         0.1534
     22 C17         2.5503    8.4660    4.4066 C.3       1 <0>        -0.1651
     23 C18         0.4779    9.6789    3.7164 C.3       1 <0>        -0.1621
     24 O3          1.7320   -4.6010    1.1831 O.3       1 <0>        -0.5429
     25 H2          4.7337   -7.8804    1.5112 H         1 <0>         0.0838
     26 H3          6.3753   -7.7561    0.8345 H         1 <0>         0.1075
     27 H4          5.5563   -6.3029    1.4555 H         1 <0>         0.0787
     28 H5          5.5043   -6.3633   -1.0229 H         1 <0>         0.1383
     29 H6          4.2032   -8.1390   -2.1643 H         1 <0>         0.0828
     30 H7          5.5852   -8.8283   -1.2793 H         1 <0>         0.1079
     31 H8          3.9436   -8.9526   -0.6027 H         1 <0>         0.0833
     32 H9          4.2099   -4.4770   -1.0730 H         1 <0>         0.1449
     33 H10         4.3126   -4.6431    0.6962 H         1 <0>         0.1382
     34 H11         3.0613   -2.3618   -0.9298 H         1 <0>         0.0809
     35 H12         3.0787   -2.3708    0.8501 H         1 <0>         0.0767
     36 H13        -0.9255   -0.5572    0.0083 H         1 <0>         0.1344
     37 H14        -0.9595    1.9040    0.0169 H         1 <0>         0.1354
     38 H15         3.3051    1.9703   -0.0187 H         1 <0>         0.1288
     39 H16         3.3475   -0.4907   -0.0323 H         1 <0>         0.1243
     40 H17         2.0264    3.9726   -0.5098 H         1 <0>         0.0810
     41 H18         0.2468    3.9449   -0.4929 H         1 <0>         0.0826
     42 H19         0.2738    3.7150    1.9759 H         1 <0>         0.0681
     43 H20         2.0534    3.7427    1.9590 H         1 <0>         0.0664
     44 H21         1.1148    6.0491    0.6265 H         1 <0>         0.3967
     45 H22         1.0946    8.0642    1.8049 H         1 <0>         0.3955
     46 H23         0.5371    7.7398    4.6530 H         1 <0>         0.0885
     47 H24         3.1241    9.0264    3.6685 H         1 <0>         0.0557
     48 H25         2.5508    9.0058    5.3535 H         1 <0>         0.0672
     49 H26         3.0013    7.4838    4.5480 H         1 <0>         0.0597
     50 H27        -0.5475    9.5609    3.3661 H         1 <0>         0.0620
     51 H28         0.4785   10.2188    4.6633 H         1 <0>         0.0757
     52 H29         1.0517   10.2394    2.9783 H         1 <0>         0.0611
     53 H30         2.2440   -4.3764    1.9721 H         1 <0>         0.3905
     54 N3          3.5191   -6.3171   -0.3103 N.4       1 <0>        -0.5138
     55 H31         3.0424   -6.6705    0.5276 H         1 <0>         0.4365
     56 H32         2.9457   -6.5140   -1.1390 H         1 <0>         0.4336
@<TRIPOS>BOND
     1    1    2 1
     2    1   25 1
     3    1   26 1
     4    1   27 1
     5    2    3 1
     6    2   28 1
     7    2   54 1
     8    3   29 1
     9    3   30 1
    10    3   31 1
    11    4    5 1
    12    4   32 1
    13    4   33 1
    14    4   54 1
    15    5    6 1
    16    5    7 1
    17    5   24 1
    18    7    8 1
    19    7   34 1
    20    7   35 1
    21    8    9 1
    22    9   14 ar
    23    9   10 ar
    24   10   11 ar
    25   10   36 1
    26   11   12 ar
    27   11   37 1
    28   12   13 ar
    29   12   15 1
    30   13   14 ar
    31   13   38 1
    32   14   39 1
    33   15   16 1
    34   15   40 1
    35   15   41 1
    36   16   17 1
    37   16   42 1
    38   16   43 1
    39   17   18 am
    40   17   44 1
    41   18   19 2
    42   18   20 am
    43   20   21 1
    44   20   45 1
    45   21   22 1
    46   21   23 1
    47   21   46 1
    48   22   47 1
    49   22   48 1
    50   22   49 1
    51   23   50 1
    52   23   51 1
    53   23   52 1
    54   24   53 1
    55   54   55 1
    56   54   56 1
@<TRIPOS>MOLECULE
ZINC01999561
   56    56     0     0     0
SMALL
USER_CHARGES
1-[2-[4-(2-hydroxy-3-isopropylamino-propoxy)phenyl]ethyl]-3-isopropyl-urea
@<TRIPOS>ATOM
      1 C1         -0.3503   -0.5073   -4.8181 C.3       1 <0>        -0.1862
      2 C2          0.6685   -0.4662   -3.6774 C.3       1 <0>         0.0270
      3 C3          1.7983    0.5006   -4.0373 C.3       1 <0>        -0.1844
      4 C4          0.7182   -0.4975   -1.2568 C.3       1 <0>        -0.0385
      5 C5          0.0021   -0.0041    0.0020 C.3       1 <0>         0.0855
      6 H1         -1.0205   -0.3814    0.0098 H         1 <0>         0.1356
      7 C6          0.7421   -0.5109    1.2415 C.3       1 <0>         0.0298
      8 O1          0.0101   -0.1492    2.4144 O.3       1 <0>        -0.3023
      9 C7          0.5346   -0.5268    3.6099 C.ar      1 <0>         0.1173
     10 C8          1.7262   -1.2360    3.6530 C.ar      1 <0>        -0.2056
     11 C9          2.2604   -1.6133    4.8698 C.ar      1 <0>        -0.0721
     12 C10         1.6022   -1.2955    6.0435 C.ar      1 <0>        -0.1076
     13 C11         0.4115   -0.5938    6.0029 C.ar      1 <0>        -0.0693
     14 C12        -0.1237   -0.2088    4.7889 C.ar      1 <0>        -0.1403
     15 C13         2.1838   -1.7143    7.3692 C.3       1 <0>        -0.0909
     16 C14         1.6509   -3.0982    7.7456 C.3       1 <0>         0.1444
     17 N1          2.2163   -3.5053    9.0343 N.am      1 <0>        -0.7502
     18 C15         1.8859   -4.6977    9.5686 C.2       1 <0>         0.7038
     19 O2          1.1187   -5.4355    8.9811 O.2       1 <0>        -0.5892
     20 N2          2.4060   -5.0721   10.7543 N.am      1 <0>        -0.7418
     21 C16         2.0470   -6.3683   11.3351 C.3       1 <0>         0.1534
     22 C17         2.9568   -7.4550   10.7588 C.3       1 <0>        -0.1651
     23 C18         2.2192   -6.3117   12.8543 C.3       1 <0>        -0.1621
     24 O3         -0.0173    1.4248    0.0099 O.3       1 <0>        -0.5435
     25 H2         -0.7615    0.4900   -4.9742 H         1 <0>         0.0832
     26 H3          0.1400   -0.8452   -5.7311 H         1 <0>         0.1079
     27 H4         -1.1553   -1.1961   -4.5617 H         1 <0>         0.0830
     28 H5          1.0796   -1.4635   -3.5213 H         1 <0>         0.1385
     29 H6          1.3872    1.4980   -4.1934 H         1 <0>         0.0836
     30 H7          2.5241    0.5299   -3.2246 H         1 <0>         0.0785
     31 H8          2.2886    0.1628   -4.9503 H         1 <0>         0.1076
     32 H9          1.7408   -0.1202   -1.2645 H         1 <0>         0.1375
     33 H10         0.7330   -1.5874   -1.2628 H         1 <0>         0.1456
     34 H11         0.8346   -1.5958    1.1912 H         1 <0>         0.0815
     35 H12         1.7350   -0.0630    1.2804 H         1 <0>         0.0761
     36 H13         2.2382   -1.4887    2.7362 H         1 <0>         0.1243
     37 H14         3.1906   -2.1609    4.9041 H         1 <0>         0.1288
     38 H15        -0.1003   -0.3461    6.9211 H         1 <0>         0.1354
     39 H16        -1.0535    0.3396    4.7578 H         1 <0>         0.1344
     40 H17         3.2705   -1.7515    7.2937 H         1 <0>         0.0810
     41 H18         1.8973   -0.9939    8.1354 H         1 <0>         0.0826
     42 H19         0.5642   -3.0609    7.8211 H         1 <0>         0.0681
     43 H20         1.9374   -3.8186    6.9793 H         1 <0>         0.0664
     44 H21         2.8284   -2.9166    9.5030 H         1 <0>         0.3968
     45 H22         3.0181   -4.4835   11.2230 H         1 <0>         0.3955
     46 H23         1.0089   -6.5987   11.0955 H         1 <0>         0.0885
     47 H24         3.9948   -7.2246   10.9984 H         1 <0>         0.0557
     48 H25         2.6896   -8.4194   11.1909 H         1 <0>         0.0672
     49 H26         2.8340   -7.4954    9.6765 H         1 <0>         0.0596
     50 H27         1.5711   -5.5374   13.2649 H         1 <0>         0.0620
     51 H28         1.9520   -7.2760   13.2864 H         1 <0>         0.0757
     52 H29         3.2573   -6.0812   13.0939 H         1 <0>         0.0611
     53 H30         0.8606    1.8301    0.0037 H         1 <0>         0.3896
     54 N3         -0.0011   -0.0048   -2.4466 N.4       1 <0>        -0.5132
     55 H31        -0.9643   -0.3603   -2.4315 H         1 <0>         0.4341
     56 H32        -0.0150    1.0217   -2.4331 H         1 <0>         0.4358
@<TRIPOS>BOND
     1    1    2 1
     2    1   25 1
     3    1   26 1
     4    1   27 1
     5    2    3 1
     6    2   28 1
     7    2   54 1
     8    3   29 1
     9    3   30 1
    10    3   31 1
    11    4    5 1
    12    4   32 1
    13    4   33 1
    14    4   54 1
    15    5    6 1
    16    5    7 1
    17    5   24 1
    18    7    8 1
    19    7   34 1
    20    7   35 1
    21    8    9 1
    22    9   14 ar
    23    9   10 ar
    24   10   11 ar
    25   10   36 1
    26   11   12 ar
    27   11   37 1
    28   12   13 ar
    29   12   15 1
    30   13   14 ar
    31   13   38 1
    32   14   39 1
    33   15   16 1
    34   15   40 1
    35   15   41 1
    36   16   17 1
    37   16   42 1
    38   16   43 1
    39   17   18 am
    40   17   44 1
    41   18   19 2
    42   18   20 am
    43   20   21 1
    44   20   45 1
    45   21   22 1
    46   21   23 1
    47   21   46 1
    48   22   47 1
    49   22   48 1
    50   22   49 1
    51   23   50 1
    52   23   51 1
    53   23   52 1
    54   24   53 1
    55   54   55 1
    56   54   56 1
@<TRIPOS>MOLECULE
ZINC03812888
   72    73     0     0     0
SMALL
USER_CHARGES

@<TRIPOS>ATOM
      1 C1          0.4643    1.3329   -0.2411 C.3       1 <0>        -0.1747
      2 C2          0.0733   -0.1223    0.0241 C.3       1 <0>        -0.0830
      3 C3          0.8761   -0.6579    1.2114 C.3       1 <0>        -0.1834
      4 C4         -1.4212   -0.1988    0.3430 C.3       1 <0>         0.1004
      5 C5         -2.2237    0.3455   -0.8405 C.3       1 <0>        -0.1048
      6 C6         -1.9247   -0.4899   -2.0868 C.3       1 <0>        -0.1606
      7 C7         -2.7272    0.0544   -3.2703 C.3       1 <0>        -0.0091
      8 N1         -2.4402   -0.7477   -4.4670 N.4       1 <0>        -0.3873
      9 C8         -1.0302   -0.5789   -4.8430 C.3       1 <0>        -0.0587
     10 C9         -3.2986   -0.3021   -5.5727 C.3       1 <0>        -0.0075
     11 C10        -3.0896   -1.2169   -6.7811 C.3       1 <0>        -0.0949
     12 C11        -3.9702   -0.7598   -7.9154 C.ar      1 <0>        -0.1088
     13 C12        -5.2517   -1.2635   -8.0399 C.ar      1 <0>        -0.1027
     14 C13        -6.0634   -0.8473   -9.0787 C.ar      1 <0>        -0.1717
     15 C14        -5.5933    0.0770   -9.9977 C.ar      1 <0>         0.1180
     16 C15        -4.3036    0.5843   -9.8722 C.ar      1 <0>         0.1059
     17 C16        -3.4969    0.1666   -8.8259 C.ar      1 <0>        -0.1655
     18 O1         -3.8377    1.4917  -10.7717 O.3       1 <0>        -0.3008
     19 C17        -2.5044    1.9690  -10.5804 C.3       1 <0>         0.0253
     20 O2         -6.3903    0.4871  -11.0204 O.3       1 <0>        -0.3014
     21 C18        -7.7019   -0.0764  -11.0869 C.3       1 <0>         0.0227
     22 C19        -1.7993   -1.6000    0.5892 C.1       1 <0>         0.2041
     23 N2         -2.0910   -2.6813    0.7792 N.1       1 <0>        -0.4101
     24 C20        -1.7157    0.6241    1.5707 C.ar      1 <0>        -0.0960
     25 C21        -0.6924    1.2978    2.2112 C.ar      1 <0>        -0.1135
     26 C22        -0.9573    2.0540    3.3377 C.ar      1 <0>        -0.1756
     27 C23        -2.2510    2.1383    3.8270 C.ar      1 <0>         0.1175
     28 C24        -3.2811    1.4605    3.1820 C.ar      1 <0>         0.1030
     29 C25        -3.0094    0.7082    2.0505 C.ar      1 <0>        -0.1606
     30 O3         -4.5524    1.5402    3.6584 O.3       1 <0>        -0.3010
     31 C26        -5.5587    0.8184    2.9454 C.3       1 <0>         0.0257
     32 O4         -2.5133    2.8814    4.9353 O.3       1 <0>        -0.3026
     33 C27        -1.4070    3.5493    5.5454 C.3       1 <0>         0.0232
     34 H1          1.5417    1.4471   -0.1220 H         1 <0>         0.0714
     35 H2          0.1801    1.6060   -1.2573 H         1 <0>         0.0573
     36 H3         -0.0504    1.9823    0.4671 H         1 <0>         0.0866
     37 H4          0.2874   -0.7230   -0.8599 H         1 <0>         0.0818
     38 H5          1.8959   -0.2762    1.1621 H         1 <0>         0.0724
     39 H6          0.4106   -0.3318    2.1415 H         1 <0>         0.0837
     40 H7          0.8938   -1.7472    1.1763 H         1 <0>         0.0565
     41 H8         -3.2884    0.2910   -0.6133 H         1 <0>         0.0854
     42 H9         -1.9437    1.3831   -1.0228 H         1 <0>         0.1040
     43 H10        -0.8600   -0.4354   -2.3140 H         1 <0>         0.0984
     44 H11        -2.2047   -1.5275   -1.9045 H         1 <0>         0.0867
     45 H12        -3.7919   -0.0001   -3.0431 H         1 <0>         0.1322
     46 H13        -2.4473    1.0920   -3.4526 H         1 <0>         0.1347
     47 H14        -0.8339    0.4722   -5.0545 H         1 <0>         0.1249
     48 H15        -0.3932   -0.9095   -4.0226 H         1 <0>         0.1255
     49 H16        -0.8172   -1.1741   -5.7310 H         1 <0>         0.1260
     50 H17        -4.3424   -0.3437   -5.2617 H         1 <0>         0.1327
     51 H18        -3.0405    0.7218   -5.8431 H         1 <0>         0.1319
     52 H19        -2.0457   -1.1754   -7.0921 H         1 <0>         0.0944
     53 H20        -3.3477   -2.2408   -6.5107 H         1 <0>         0.0957
     54 H21        -5.6193   -1.9840   -7.3242 H         1 <0>         0.1290
     55 H22        -7.0638   -1.2429   -9.1741 H         1 <0>         0.1420
     56 H23        -2.4969    0.5616   -8.7240 H         1 <0>         0.1364
     57 H24        -2.2588    2.6850  -11.3647 H         1 <0>         0.1070
     58 H25        -2.4286    2.4553   -9.6078 H         1 <0>         0.0539
     59 H26        -1.8088    1.1309  -10.6227 H         1 <0>         0.0563
     60 H27        -7.6275   -1.1590  -11.1896 H         1 <0>         0.0592
     61 H28        -8.2478    0.1654  -10.1750 H         1 <0>         0.0584
     62 H29        -8.2308    0.3347  -11.9468 H         1 <0>         0.1080
     63 H30         0.3164    1.2329    1.8308 H         1 <0>         0.1604
     64 H31        -0.1560    2.5788    3.8366 H         1 <0>         0.1426
     65 H32        -3.8077    0.1843    1.5459 H         1 <0>         0.1325
     66 H33        -6.5240    0.9669    3.4294 H         1 <0>         0.1055
     67 H34        -5.6074    1.1811    1.9187 H         1 <0>         0.0536
     68 H35        -5.3123   -0.2434    2.9444 H         1 <0>         0.0538
     69 H36        -0.6644    2.8139    5.8548 H         1 <0>         0.0583
     70 H37        -0.9593    4.2388    4.8297 H         1 <0>         0.0585
     71 H38        -1.7536    4.1046    6.4169 H         1 <0>         0.1058
     72 H39        -2.6218   -1.7207   -4.2712 H         1 <0>         0.4250
@<TRIPOS>BOND
     1    1    2 1
     2    1   34 1
     3    1   35 1
     4    1   36 1
     5    2    3 1
     6    2    4 1
     7    2   37 1
     8    3   38 1
     9    3   39 1
    10    3   40 1
    11    4    5 1
    12    4   22 1
    13    4   24 1
    14    5    6 1
    15    5   41 1
    16    5   42 1
    17    6    7 1
    18    6   43 1
    19    6   44 1
    20    7    8 1
    21    7   45 1
    22    7   46 1
    23    8    9 1
    24    8   10 1
    25    8   72 1
    26    9   47 1
    27    9   48 1
    28    9   49 1
    29   10   11 1
    30   10   50 1
    31   10   51 1
    32   11   12 1
    33   11   52 1
    34   11   53 1
    35   12   17 ar
    36   12   13 ar
    37   13   14 ar
    38   13   54 1
    39   14   15 ar
    40   14   55 1
    41   15   16 ar
    42   15   20 1
    43   16   17 ar
    44   16   18 1
    45   17   56 1
    46   18   19 1
    47   19   57 1
    48   19   58 1
    49   19   59 1
    50   20   21 1
    51   21   60 1
    52   21   61 1
    53   21   62 1
    54   22   23 3
    55   24   29 ar
    56   24   25 ar
    57   25   26 ar
    58   25   63 1
    59   26   27 ar
    60   26   64 1
    61   27   28 ar
    62   27   32 1
    63   28   29 ar
    64   28   30 1
    65   29   65 1
    66   30   31 1
    67   31   66 1
    68   31   67 1
    69   31   68 1
    70   32   33 1
    71   33   69 1
    72   33   70 1
    73   33   71 1
@<TRIPOS>MOLECULE
ZINC43552569
   93    94     0     0     0
SMALL
USER_CHARGES

@<TRIPOS>ATOM
      1 C1         -0.0187    1.5258    0.0104 C.3       1 <0>        -0.1848
      2 C2          0.0021   -0.0041    0.0020 C.3       1 <0>         0.1174
      3 C3          0.7421   -0.5109    1.2415 C.3       1 <0>        -0.1838
      4 C4         -1.4333   -0.5336    0.0129 C.3       1 <0>        -0.1409
      5 O1          0.6709   -0.4649   -1.1737 O.3       1 <0>        -0.3441
      6 C5          1.9483   -0.0860   -1.3362 C.2       1 <0>         0.4512
      7 O2          2.4810    0.6138   -0.5076 O.2       1 <0>        -0.4856
      8 C6          2.7182   -0.5334   -2.5520 C.3       1 <0>         0.1604
      9 H1          2.2197   -0.1713   -3.4512 H         1 <0>         0.1277
     10 C7          2.7792   -2.0618   -2.5831 C.3       1 <0>        -0.1220
     11 C8          3.4512   -2.5192   -3.8793 C.3       1 <0>        -0.1151
     12 C9          3.5123   -4.0476   -3.9103 C.3       1 <0>        -0.1326
     13 C10         4.1843   -4.5050   -5.2065 C.3       1 <0>         0.1351
     14 N1          4.2428   -5.9685   -5.2362 N.am      1 <0>        -0.7099
     15 C11         4.7970   -6.5995   -6.2904 C.2       1 <0>         0.6460
     16 O3          5.2481   -5.9545   -7.2161 O.2       1 <0>        -0.5690
     17 O4          4.8507   -7.9445   -6.3177 O.3       1 <0>        -0.3606
     18 C12         5.4518   -8.5466   -7.4658 C.3       1 <0>         0.1288
     19 C13         5.4222  -10.0463   -7.3201 C.ar      1 <0>        -0.1011
     20 C14         6.4730  -10.7019   -6.7063 C.ar      1 <0>        -0.0937
     21 C15         6.4458  -12.0775   -6.5726 C.ar      1 <0>        -0.1233
     22 C16         5.3677  -12.7974   -7.0525 C.ar      1 <0>        -0.1074
     23 C17         4.3165  -12.1417   -7.6655 C.ar      1 <0>        -0.1231
     24 C18         4.3417  -10.7657   -7.7953 C.ar      1 <0>        -0.0937
     25 N2          4.0781    0.0086   -2.4957 N.am      1 <0>        -0.7116
     26 C19         4.3278    1.2511   -2.9543 C.2       1 <0>         0.5102
     27 O5          3.4268    1.9205   -3.4136 O.2       1 <0>        -0.4857
     28 C20         5.7267    1.8086   -2.8963 C.3       1 <0>         0.1734
     29 H2          6.4405    1.0268   -3.1560 H         1 <0>         0.1283
     30 C21         6.0161    2.3140   -1.4815 C.3       1 <0>        -0.1339
     31 C22         7.4533    2.7582   -1.3909 C.2       1 <0>         0.4684
     32 O6          8.1723    2.6788   -2.3587 O.2       1 <0>        -0.5021
     33 O7          7.9346    3.2422   -0.2351 O.3       1 <0>        -0.3431
     34 C23         9.3057    3.6444   -0.2211 C.3       1 <0>         0.1093
     35 C24         9.6649    4.1569    1.1498 C.ar      1 <0>        -0.1007
     36 C25         9.5034    5.4963    1.4512 C.ar      1 <0>        -0.0944
     37 C26         9.8328    5.9665    2.7087 C.ar      1 <0>        -0.1221
     38 C27        10.3234    5.0971    3.6650 C.ar      1 <0>        -0.1077
     39 C28        10.4841    3.7575    3.3639 C.ar      1 <0>        -0.1226
     40 C29        10.1506    3.2866    2.1077 C.ar      1 <0>        -0.0949
     41 N3          5.8501    2.9175   -3.8457 N.am      1 <0>        -0.6957
     42 C30         5.0615    4.0032   -3.7201 C.2       1 <0>         0.6561
     43 O8          4.2480    4.0623   -2.8193 O.2       1 <0>        -0.5391
     44 O9          5.1749    5.0223   -4.5926 O.3       1 <0>        -0.3586
     45 C31         4.3073    6.1412   -4.3995 C.3       1 <0>         0.1371
     46 C32         4.5612    6.7513   -3.0196 C.3       1 <0>        -0.1847
     47 C33         4.5803    7.1905   -5.4791 C.3       1 <0>        -0.1407
     48 C34         2.8515    5.6799   -4.4932 C.3       1 <0>        -0.1837
     49 H3          1.0039    1.9031    0.0027 H         1 <0>         0.0839
     50 H4         -0.5459    1.8868   -0.8726 H         1 <0>         0.0611
     51 H5         -0.5289    1.8773    0.9072 H         1 <0>         0.0699
     52 H6          0.2319   -0.1594    2.1383 H         1 <0>         0.0708
     53 H7          0.7568   -1.6008    1.2356 H         1 <0>         0.0606
     54 H8          1.7647   -0.1336    1.2338 H         1 <0>         0.0824
     55 H9         -1.9605   -0.1726   -0.8702 H         1 <0>         0.0671
     56 H10        -1.4185   -1.6235    0.0069 H         1 <0>         0.0666
     57 H11        -1.9435   -0.1821    0.9097 H         1 <0>         0.0784
     58 H12         3.3548   -2.4199   -1.7295 H         1 <0>         0.0788
     59 H13         1.7684   -2.4669   -2.5353 H         1 <0>         0.0975
     60 H14         2.8757   -2.1611   -4.7329 H         1 <0>         0.0753
     61 H15         4.4621   -2.1141   -3.9270 H         1 <0>         0.0727
     62 H16         4.0879   -4.4057   -3.0567 H         1 <0>         0.0748
     63 H17         2.5015   -4.4527   -3.8626 H         1 <0>         0.0763
     64 H18         3.6088   -4.1469   -6.0601 H         1 <0>         0.0731
     65 H19         5.1951   -4.0999   -5.2542 H         1 <0>         0.0726
     66 H20         3.8826   -6.4834   -4.4973 H         1 <0>         0.4081
     67 H21         4.8985   -8.2574   -8.3594 H         1 <0>         0.0785
     68 H22         6.4849   -8.2104   -7.5535 H         1 <0>         0.0784
     69 H23         7.3153  -10.1395   -6.3314 H         1 <0>         0.1248
     70 H24         7.2671  -12.5898   -6.0936 H         1 <0>         0.1264
     71 H25         5.3468  -13.8722   -6.9487 H         1 <0>         0.1254
     72 H26         3.4743  -12.7042   -8.0407 H         1 <0>         0.1265
     73 H27         3.5187  -10.2530   -8.2710 H         1 <0>         0.1249
     74 H28         4.7987   -0.5267   -2.1283 H         1 <0>         0.4065
     75 H29         5.3609    3.1551   -1.2549 H         1 <0>         0.1384
     76 H30         5.8380    1.5116   -0.7656 H         1 <0>         0.1231
     77 H31         9.9374    2.7908   -0.4669 H         1 <0>         0.0790
     78 H32         9.4602    4.4343   -0.9562 H         1 <0>         0.0777
     79 H33         9.1201    6.1755    0.7041 H         1 <0>         0.1238
     80 H34         9.7073    7.0130    2.9439 H         1 <0>         0.1264
     81 H35        10.5815    5.4645    4.6472 H         1 <0>         0.1254
     82 H36        10.8677    3.0784    4.1109 H         1 <0>         0.1264
     83 H37        10.2726    2.2394    1.8736 H         1 <0>         0.1243
     84 H38         6.4995    2.8704   -4.5648 H         1 <0>         0.4164
     85 H39         5.5983    7.0800   -2.9528 H         1 <0>         0.0568
     86 H40         3.8994    7.6048   -2.8723 H         1 <0>         0.0693
     87 H41         4.3667    6.0038   -2.2505 H         1 <0>         0.0869
     88 H42         4.3995    6.7559   -6.4622 H         1 <0>         0.0664
     89 H43         3.9185    8.0440   -5.3318 H         1 <0>         0.0799
     90 H44         5.6175    7.5191   -5.4123 H         1 <0>         0.0654
     91 H45         2.6570    4.9324   -3.7242 H         1 <0>         0.0929
     92 H46         2.1897    6.5334   -4.3460 H         1 <0>         0.0660
     93 H47         2.6707    5.2453   -5.4764 H         1 <0>         0.0574
@<TRIPOS>BOND
     1    1    2 1
     2    1   49 1
     3    1   50 1
     4    1   51 1
     5    2    3 1
     6    2    4 1
     7    2    5 1
     8    3   52 1
     9    3   53 1
    10    3   54 1
    11    4   55 1
    12    4   56 1
    13    4   57 1
    14    5    6 1
    15    6    7 2
    16    6    8 1
    17    8    9 1
    18    8   10 1
    19    8   25 1
    20   10   11 1
    21   10   58 1
    22   10   59 1
    23   11   12 1
    24   11   60 1
    25   11   61 1
    26   12   13 1
    27   12   62 1
    28   12   63 1
    29   13   14 1
    30   13   64 1
    31   13   65 1
    32   14   15 am
    33   14   66 1
    34   15   16 2
    35   15   17 1
    36   17   18 1
    37   18   19 1
    38   18   67 1
    39   18   68 1
    40   19   24 ar
    41   19   20 ar
    42   20   21 ar
    43   20   69 1
    44   21   22 ar
    45   21   70 1
    46   22   23 ar
    47   22   71 1
    48   23   24 ar
    49   23   72 1
    50   24   73 1
    51   25   26 am
    52   25   74 1
    53   26   27 2
    54   26   28 1
    55   28   29 1
    56   28   30 1
    57   28   41 1
    58   30   31 1
    59   30   75 1
    60   30   76 1
    61   31   32 2
    62   31   33 1
    63   33   34 1
    64   34   35 1
    65   34   77 1
    66   34   78 1
    67   35   40 ar
    68   35   36 ar
    69   36   37 ar
    70   36   79 1
    71   37   38 ar
    72   37   80 1
    73   38   39 ar
    74   38   81 1
    75   39   40 ar
    76   39   82 1
    77   40   83 1
    78   41   42 am
    79   41   84 1
    80   42   43 2
    81   42   44 1
    82   44   45 1
    83   45   46 1
    84   45   47 1
    85   45   48 1
    86   46   85 1
    87   46   86 1
    88   46   87 1
    89   47   88 1
    90   47   89 1
    91   47   90 1
    92   48   91 1
    93   48   92 1
    94   48   93 1
@<TRIPOS>MOLECULE
ZINC01814176
   55    58     0     0     0
SMALL
USER_CHARGES
allyl-butylsulfanyl-BLAHone
@<TRIPOS>ATOM
      1 C1          8.0510   -0.2126    6.3865 C.3       1 <0>        -0.1542
      2 C2          6.9886    0.0833    5.3260 C.3       1 <0>        -0.1172
      3 C3          5.9128   -1.0039    5.3644 C.3       1 <0>        -0.1096
      4 C4          4.8505   -0.7080    4.3039 C.3       1 <0>        -0.1059
      5 S1          3.5778   -1.9942    4.3495 S.3       1 <0>         0.0012
      6 C5          2.5161   -1.4196    3.0660 C.2       1 <0>         0.3636
      7 N1          2.8271   -0.3136    2.4192 N.2       1 <0>        -0.5285
      8 C6          2.0460    0.1507    1.4395 C.2       1 <0>         0.2332
      9 C7          0.8855   -0.5299    1.0962 C.2       1 <0>        -0.2387
     10 C8          0.5623   -1.7041    1.7868 C.2       1 <0>         0.5348
     11 O1         -0.4484   -2.3307    1.5120 O.2       1 <0>        -0.5082
     12 N2          1.3927   -2.1284    2.7640 N.am      1 <0>        -0.5004
     13 C9          1.0837   -3.3555    3.5024 C.3       1 <0>         0.1126
     14 C10         1.7111   -4.5339    2.8034 C.2       1 <0>        -0.1819
     15 C11         2.5139   -5.3338    3.4604 C.2       1 <0>        -0.1515
     16 C12         0.0021   -0.0041    0.0020 C.3       1 <0>         0.0151
     17 C13         0.4977   -0.5107   -1.3617 C.3       1 <0>        -0.1059
     18 C14        -0.6529   -1.3434   -1.9651 C.3       1 <0>        -0.1198
     19 C15        -1.9229   -0.8020   -1.2624 C.3       1 <0>        -0.1170
     20 C16        -1.4300   -0.5423    0.1833 C.3       1 <0>        -0.1837
     21 C17        -0.0186    1.5228    0.0104 C.3       1 <0>        -0.0722
     22 C18         1.3891    2.0586   -0.0001 C.ar      1 <0>        -0.0464
     23 C19         2.3937    1.3837    0.6962 C.ar      1 <0>        -0.0581
     24 C20         3.6967    1.8709    0.6862 C.ar      1 <0>        -0.0696
     25 C21         3.9893    3.0257   -0.0131 C.ar      1 <0>        -0.1326
     26 C22         2.9909    3.6936   -0.6988 C.ar      1 <0>        -0.0958
     27 C23         1.6935    3.2113   -0.6926 C.ar      1 <0>        -0.1241
     28 H1          8.5065   -1.1819    6.1838 H         1 <0>         0.0556
     29 H2          8.8174    0.5619    6.3591 H         1 <0>         0.0579
     30 H3          7.5858   -0.2288    7.3721 H         1 <0>         0.0556
     31 H4          7.4538    0.0995    4.3403 H         1 <0>         0.0663
     32 H5          6.5330    1.0526    5.5286 H         1 <0>         0.0664
     33 H6          5.4476   -1.0200    6.3501 H         1 <0>         0.0740
     34 H7          6.3684   -1.9732    5.1618 H         1 <0>         0.0743
     35 H8          5.3156   -0.6918    3.3183 H         1 <0>         0.1016
     36 H9          4.3949    0.2613    4.5066 H         1 <0>         0.1019
     37 H10         1.4806   -3.2800    4.5148 H         1 <0>         0.1017
     38 H11         0.0030   -3.4915    3.5450 H         1 <0>         0.1172
     39 H12         1.4990   -4.7189    1.7607 H         1 <0>         0.1169
     40 H13         2.9636   -6.1784    2.9594 H         1 <0>         0.1081
     41 H14         2.7261   -5.1488    4.5031 H         1 <0>         0.1035
     42 H15         0.7294    0.3328   -2.0120 H         1 <0>         0.0666
     43 H16         1.3814   -1.1350   -1.2296 H         1 <0>         0.0569
     44 H17        -0.5155   -2.4015   -1.7424 H         1 <0>         0.0637
     45 H18        -0.7163   -1.1862   -3.0418 H         1 <0>         0.0615
     46 H19        -2.7171   -1.5484   -1.2715 H         1 <0>         0.0630
     47 H20        -2.2600    0.1242   -1.7278 H         1 <0>         0.0571
     48 H21        -1.4194   -1.4701    0.7553 H         1 <0>         0.1575
     49 H22        -2.0583    0.2018    0.6728 H         1 <0>         0.0531
     50 H23        -0.5489    1.8821   -0.8716 H         1 <0>         0.0870
     51 H24        -0.5319    1.8725    0.9062 H         1 <0>         0.0800
     52 H25         4.4756    1.3487    1.2220 H         1 <0>         0.1309
     53 H26         4.9994    3.4079   -0.0241 H         1 <0>         0.1273
     54 H27         3.2251    4.5968   -1.2426 H         1 <0>         0.1264
     55 H28         0.9194    3.7380   -1.2309 H         1 <0>         0.1286
@<TRIPOS>BOND
     1    1    2 1
     2    1   28 1
     3    1   29 1
     4    1   30 1
     5    2    3 1
     6    2   31 1
     7    2   32 1
     8    3    4 1
     9    3   33 1
    10    3   34 1
    11    4    5 1
    12    4   35 1
    13    4   36 1
    14    5    6 1
    15    6   12 1
    16    6    7 2
    17    7    8 1
    18    8   23 1
    19    8    9 2
    20    9   10 1
    21    9   16 1
    22   10   11 2
    23   10   12 am
    24   12   13 1
    25   13   14 1
    26   13   37 1
    27   13   38 1
    28   14   15 2
    29   14   39 1
    30   15   40 1
    31   15   41 1
    32   16   20 1
    33   16   17 1
    34   16   21 1
    35   17   18 1
    36   17   42 1
    37   17   43 1
    38   18   19 1
    39   18   44 1
    40   18   45 1
    41   19   20 1
    42   19   46 1
    43   19   47 1
    44   20   48 1
    45   20   49 1
    46   21   22 1
    47   21   50 1
    48   21   51 1
    49   22   27 ar
    50   22   23 ar
    51   23   24 ar
    52   24   25 ar
    53   24   52 1
    54   25   26 ar
    55   25   53 1
    56   26   27 ar
    57   26   54 1
    58   27   55 1
@<TRIPOS>MOLECULE
ZINC08438483
   68    71     0     0     0
SMALL
USER_CHARGES
N-[2-[(3-acetyl-2,4,6-trimethyl-phenyl)methylsulfanyl]benzothiazol-6-yl]-4-tert-butyl-benzamide
@<TRIPOS>ATOM
      1 C1         -0.0356    1.5961   -0.0110 C.3       1 <0>        -0.1266
      2 C2         -0.0117    0.0893    0.0005 C.ar      1 <0>        -0.0384
      3 C3          0.0080   -0.5897    1.2066 C.ar      1 <0>        -0.1264
      4 C4          0.0295   -1.9681    1.2254 C.ar      1 <0>        -0.0329
      5 C5          0.0313   -2.6803    0.0216 C.ar      1 <0>        -0.1636
      6 C6          0.0112   -1.9870   -1.1926 C.ar      1 <0>        -0.0218
      7 C7         -0.0154   -0.6082   -1.1947 C.ar      1 <0>        -0.0965
      8 C8         -0.0428    0.1409   -2.5020 C.3       1 <0>        -0.0744
      9 S1          1.6524    0.4672   -3.0460 S.3       1 <0>         0.0537
     10 C9          1.3309    1.3267   -4.5502 C.2       1 <0>         0.1091
     11 N1          0.1744    1.6297   -5.0951 N.2       1 <0>        -0.4986
     12 C10         0.0770    2.2997   -6.2655 C.ar      1 <0>         0.0702
     13 C11        -1.0963    2.6847   -6.9545 C.ar      1 <0>        -0.0391
     14 C12        -1.0257    3.3607   -8.1323 C.ar      1 <0>        -0.1287
     15 C13         0.1974    3.6995   -8.7063 C.ar      1 <0>         0.1706
     16 C14         1.3723    3.3378   -8.0589 C.ar      1 <0>        -0.0663
     17 C15         1.3038    2.6561   -6.8702 C.ar      1 <0>        -0.1252
     18 S2          2.4950    2.0148   -5.7187 S.3       1 <0>         0.0501
     19 N2          0.2423    4.3961   -9.9203 N.am      1 <0>        -0.6673
     20 C16         1.2277    4.1455  -10.8049 C.2       1 <0>         0.5615
     21 O1          2.0203    3.2481  -10.5940 O.2       1 <0>        -0.5112
     22 C17         1.3447    4.9619  -12.0317 C.ar      1 <0>        -0.1457
     23 C18         0.4329    5.9893  -12.2796 C.ar      1 <0>        -0.0810
     24 C19         0.5513    6.7512  -13.4236 C.ar      1 <0>        -0.1286
     25 C20         1.5641    6.4913  -14.3298 C.ar      1 <0>        -0.0365
     26 C21         2.4678    5.4707  -14.0929 C.ar      1 <0>        -0.1229
     27 C22         2.3642    4.7050  -12.9500 C.ar      1 <0>        -0.0510
     28 C23         1.6838    7.3239  -15.5802 C.3       1 <0>        -0.0355
     29 C24         1.5550    6.4209  -16.8085 C.3       1 <0>        -0.1407
     30 C25         0.5722    8.3751  -15.6013 C.3       1 <0>        -0.1470
     31 C26         3.0455    8.0211  -15.6002 C.3       1 <0>        -0.1408
     32 C27         0.0124   -2.7447   -2.4953 C.3       1 <0>        -0.1348
     33 C28         0.0536   -4.1518    0.0329 C.2       1 <0>         0.4076
     34 O2          1.1095   -4.7414    0.1202 O.2       1 <0>        -0.4423
     35 C29        -1.2358   -4.9257   -0.0642 C.3       1 <0>        -0.1927
     36 C30         0.0515   -2.7054    2.5395 C.3       1 <0>        -0.1272
     37 H1          0.9861    1.9756   -0.0215 H         1 <0>         0.0818
     38 H2         -0.5617    1.9444   -0.8999 H         1 <0>         0.0719
     39 H3         -0.5486    1.9582    0.8800 H         1 <0>         0.0732
     40 H4          0.0070   -0.0383    2.1352 H         1 <0>         0.1330
     41 H5         -0.5566   -0.4585   -3.2536 H         1 <0>         0.1102
     42 H6         -0.5697    1.0857   -2.3684 H         1 <0>         0.1133
     43 H7         -2.0623    2.4385   -6.5392 H         1 <0>         0.1391
     44 H8         -1.9396    3.6416   -8.6345 H         1 <0>         0.1394
     45 H9          2.3308    3.5908   -8.4876 H         1 <0>         0.1449
     46 H10        -0.4359    5.0589  -10.1244 H         1 <0>         0.4144
     47 H11        -0.3608    6.1902  -11.5753 H         1 <0>         0.1257
     48 H12        -0.1508    7.5493  -13.6145 H         1 <0>         0.1359
     49 H13         3.2558    5.2728  -14.8044 H         1 <0>         0.1313
     50 H14         3.0704    3.9089  -12.7660 H         1 <0>         0.1377
     51 H15         0.5849    5.9242  -16.7942 H         1 <0>         0.0579
     52 H16         1.6416    7.0231  -17.7129 H         1 <0>         0.0623
     53 H17         2.3469    5.6720  -16.7935 H         1 <0>         0.0590
     54 H18         0.6640    9.0185  -14.7262 H         1 <0>         0.0602
     55 H19         0.6588    8.9773  -16.5056 H         1 <0>         0.0618
     56 H20        -0.3979    7.8784  -15.5870 H         1 <0>         0.0602
     57 H21         3.8374    7.2723  -15.5852 H         1 <0>         0.0590
     58 H22         3.1321    8.6234  -16.5046 H         1 <0>         0.0623
     59 H23         3.1372    8.6645  -14.7252 H         1 <0>         0.0579
     60 H24        -1.0095   -3.0191   -2.7569 H         1 <0>         0.0815
     61 H25         0.4322   -2.1162   -3.2807 H         1 <0>         0.0801
     62 H26         0.6154   -3.6466   -2.3905 H         1 <0>         0.0727
     63 H27        -1.6574   -4.7604   -0.9558 H         1 <0>         0.0865
     64 H28        -1.0301   -5.9902    0.0488 H         1 <0>         0.0873
     65 H29        -1.9146   -4.6012    0.7245 H         1 <0>         0.0944
     66 H30        -0.9677   -2.8217    2.9080 H         1 <0>         0.0800
     67 H31         0.5007   -3.6883    2.3972 H         1 <0>         0.0679
     68 H32         0.6374   -2.1396    3.2639 H         1 <0>         0.0778
@<TRIPOS>BOND
     1    1    2 1
     2    1   37 1
     3    1   38 1
     4    1   39 1
     5    2    7 ar
     6    2    3 ar
     7    3    4 ar
     8    3   40 1
     9    4    5 ar
    10    4   36 1
    11    5    6 ar
    12    5   33 1
    13    6    7 ar
    14    6   32 1
    15    7    8 1
    16    8    9 1
    17    8   41 1
    18    8   42 1
    19    9   10 1
    20   10   18 1
    21   10   11 2
    22   11   12 1
    23   12   17 ar
    24   12   13 ar
    25   13   14 ar
    26   13   43 1
    27   14   15 ar
    28   14   44 1
    29   15   16 ar
    30   15   19 1
    31   16   17 ar
    32   16   45 1
    33   17   18 1
    34   19   20 am
    35   19   46 1
    36   20   21 2
    37   20   22 1
    38   22   27 ar
    39   22   23 ar
    40   23   24 ar
    41   23   47 1
    42   24   25 ar
    43   24   48 1
    44   25   26 ar
    45   25   28 1
    46   26   27 ar
    47   26   49 1
    48   27   50 1
    49   28   29 1
    50   28   30 1
    51   28   31 1
    52   29   51 1
    53   29   52 1
    54   29   53 1
    55   30   54 1
    56   30   55 1
    57   30   56 1
    58   31   57 1
    59   31   58 1
    60   31   59 1
    61   32   60 1
    62   32   61 1
    63   32   62 1
    64   33   34 2
    65   33   35 1
    66   35   63 1
    67   35   64 1
    68   35   65 1
    69   36   66 1
    70   36   67 1
    71   36   68 1
@<TRIPOS>MOLECULE
ZINC08684365
   44    46     0     0     0
SMALL
USER_CHARGES

@<TRIPOS>ATOM
      1 C1         -6.1328   -6.0123   -4.8994 C.3       1 <0>        -0.1531
      2 C2         -4.9037   -6.0288   -3.9883 C.3       1 <0>         0.0570
      3 O1         -5.0029   -4.9687   -3.0353 O.3       1 <0>        -0.3207
      4 C3         -3.9837   -4.8423   -2.1441 C.ar      1 <0>         0.1027
      5 C4         -2.9092   -5.7157   -2.1895 C.ar      1 <0>        -0.1899
      6 C5         -1.8737   -5.5860   -1.2827 C.ar      1 <0>        -0.0949
      7 C6         -1.9062   -4.5855   -0.3288 C.ar      1 <0>        -0.1358
      8 C7         -2.9741   -3.7098   -0.2770 C.ar      1 <0>        -0.0985
      9 C8         -4.0146   -3.8308   -1.1867 C.ar      1 <0>         0.1149
     10 N1         -5.0955   -2.9413   -1.1396 N.am      1 <0>        -0.6478
     11 C9         -5.3934   -2.3030    0.0095 C.2       1 <0>         0.5961
     12 O2         -4.6955   -2.4645    0.9942 O.2       1 <0>        -0.5060
     13 C10        -6.5182   -1.4445    0.0716 C.2       1 <0>        -0.2556
     14 C11        -7.7701   -1.9403    0.1644 C.2       1 <0>         0.1822
     15 N2         -8.8540   -1.1116    0.2242 N.pl3     1 <0>        -0.5988
     16 C12        -8.7696    0.2245    0.1973 C.2       1 <0>         0.5595
     17 N3         -7.5880    0.8665    0.1074 N.pl3     1 <0>        -0.6476
     18 C13        -6.3564    0.0618    0.0426 C.3       1 <0>         0.2736
     19 H1         -5.7199    0.3476    0.8802 H         1 <0>         0.1165
     20 C14        -5.6345    0.4271   -1.2287 C.2       1 <0>        -0.1973
     21 C15        -4.3221    0.7117   -1.4136 C.2       1 <0>        -0.1206
     22 C16        -3.8763    1.0232   -2.6844 C.2       1 <0>        -0.1598
     23 C17        -4.7647    1.0349   -3.7082 C.2       1 <0>        -0.1585
     24 S1         -6.2843    0.5898   -2.8836 S.3       1 <0>         0.0619
     25 S2        -10.2093    1.1471    0.2791 S.2       1 <0>        -0.5883
     26 C18        -7.9754   -3.4328    0.2019 C.3       1 <0>        -0.1363
     27 H2         -6.0571   -6.8210   -5.6263 H         1 <0>         0.0802
     28 H3         -7.0322   -6.1469   -4.2985 H         1 <0>         0.0663
     29 H4         -6.1846   -5.0574   -5.4223 H         1 <0>         0.0664
     30 H5         -4.8519   -6.9838   -3.4654 H         1 <0>         0.0634
     31 H6         -4.0043   -5.8943   -4.5891 H         1 <0>         0.0629
     32 H7         -2.8807   -6.4982   -2.9333 H         1 <0>         0.1314
     33 H8         -1.0373   -6.2682   -1.3193 H         1 <0>         0.1264
     34 H9         -1.0951   -4.4883    0.3777 H         1 <0>         0.1285
     35 H10        -2.9969   -2.9293    0.4691 H         1 <0>         0.1612
     36 H11        -5.6296   -2.7846   -1.9339 H         1 <0>         0.4155
     37 H12        -3.6352    0.6956   -0.5804 H         1 <0>         0.1359
     38 H13        -2.8359    1.2541   -2.8589 H         1 <0>         0.1382
     39 H14        -4.5961    1.2529   -4.7524 H         1 <0>         0.1889
     40 H15        -7.8655   -3.7890    1.2262 H         1 <0>         0.1013
     41 H16        -8.9753   -3.6713   -0.1604 H         1 <0>         0.0906
     42 H17        -7.2337   -3.9176   -0.4328 H         1 <0>         0.0961
     43 H18        -9.7345   -1.5134    0.2896 H         1 <0>         0.4427
     44 H19        -7.5495    1.8356    0.0894 H         1 <0>         0.4492
@<TRIPOS>BOND
     1    1    2 1
     2    1   27 1
     3    1   28 1
     4    1   29 1
     5    2    3 1
     6    2   30 1
     7    2   31 1
     8    3    4 1
     9    4    9 ar
    10    4    5 ar
    11    5    6 ar
    12    5   32 1
    13    6    7 ar
    14    6   33 1
    15    7    8 ar
    16    7   34 1
    17    8    9 ar
    18    8   35 1
    19    9   10 1
    20   10   11 am
    21   10   36 1
    22   11   12 2
    23   11   13 1
    24   13   18 1
    25   13   14 2
    26   14   15 1
    27   14   26 1
    28   15   16 1
    29   15   43 1
    30   16   17 1
    31   16   25 2
    32   17   18 1
    33   17   44 1
    34   18   19 1
    35   18   20 1
    36   20   24 1
    37   20   21 2
    38   21   22 1
    39   21   37 1
    40   22   23 2
    41   22   38 1
    42   23   24 1
    43   23   39 1
    44   26   40 1
    45   26   41 1
    46   26   42 1
@<TRIPOS>MOLECULE
ZINC08684366
   44    46     0     0     0
SMALL
USER_CHARGES

@<TRIPOS>ATOM
      1 C1         -2.8195   -2.5301    5.8228 C.3       1 <0>        -0.1523
      2 C2         -2.3118   -3.3363    4.6256 C.3       1 <0>         0.0575
      3 O1         -3.1346   -3.0693    3.4882 O.3       1 <0>        -0.3173
      4 C3         -2.8171   -3.7112    2.3322 C.ar      1 <0>         0.1048
      5 C4         -1.7410   -4.5830    2.2950 C.ar      1 <0>        -0.1906
      6 C5         -1.4193   -5.2349    1.1190 C.ar      1 <0>        -0.0948
      7 C6         -2.1694   -5.0199   -0.0226 C.ar      1 <0>        -0.1363
      8 C7         -3.2446   -4.1522    0.0061 C.ar      1 <0>        -0.0992
      9 C8         -3.5765   -3.4981    1.1838 C.ar      1 <0>         0.1147
     10 N1         -4.6689   -2.6224    1.2169 N.am      1 <0>        -0.6459
     11 C9         -5.0904   -2.0277    0.0832 C.2       1 <0>         0.5957
     12 O2         -4.5516   -2.2877   -0.9774 O.2       1 <0>        -0.5068
     13 C10        -6.1601   -1.1002    0.1255 C.2       1 <0>        -0.2530
     14 C11        -7.4416   -1.5163    0.2061 C.2       1 <0>         0.1783
     15 N2         -8.4723   -0.6212    0.2468 N.pl3     1 <0>        -0.5988
     16 C12        -8.3042    0.7067    0.2118 C.2       1 <0>         0.5596
     17 N3         -7.0839    1.2732    0.1321 N.pl3     1 <0>        -0.6469
     18 C13        -5.9042    0.3928    0.0882 C.3       1 <0>         0.2731
     19 H1         -5.3557    0.6169   -0.8266 H         1 <0>         0.1154
     20 C14        -5.0153    0.7411    1.2542 C.2       1 <0>        -0.1971
     21 C15        -3.6969    1.0558    1.2583 C.2       1 <0>        -0.1182
     22 C16        -3.0803    1.3443    2.4613 C.2       1 <0>        -0.1588
     23 C17        -3.8123    1.3040    3.6014 C.2       1 <0>        -0.1555
     24 S1         -5.4273    0.8540    2.9876 S.3       1 <0>         0.0624
     25 S2         -9.6845    1.7180    0.2693 S.2       1 <0>        -0.5898
     26 C18        -7.7400   -2.9928    0.2514 C.3       1 <0>        -0.1348
     27 H2         -2.1919   -2.7337    6.6904 H         1 <0>         0.0796
     28 H3         -2.7802   -1.4665    5.5875 H         1 <0>         0.0654
     29 H4         -3.8480   -2.8157    6.0433 H         1 <0>         0.0663
     30 H5         -1.2833   -3.0507    4.4051 H         1 <0>         0.0622
     31 H6         -2.3511   -4.3999    4.8608 H         1 <0>         0.0627
     32 H7         -1.1531   -4.7532    3.1848 H         1 <0>         0.1309
     33 H8         -0.5797   -5.9136    1.0918 H         1 <0>         0.1262
     34 H9         -1.9141   -5.5311   -0.9390 H         1 <0>         0.1285
     35 H10        -3.8288   -3.9862   -0.8870 H         1 <0>         0.1604
     36 H11        -5.1222   -2.4438    2.0557 H         1 <0>         0.4150
     37 H12        -3.1364    1.0803    0.3354 H         1 <0>         0.1344
     38 H13        -2.0309    1.5976    2.4924 H         1 <0>         0.1365
     39 H14        -3.5005    1.4979    4.6171 H         1 <0>         0.1874
     40 H15        -7.6641   -3.3474    1.2793 H         1 <0>         0.0988
     41 H16        -8.7488   -3.1712   -0.1210 H         1 <0>         0.0918
     42 H17        -7.0230   -3.5276   -0.3714 H         1 <0>         0.0968
     43 H18        -9.3768   -0.9668    0.3041 H         1 <0>         0.4426
     44 H19        -6.9848    2.2378    0.1080 H         1 <0>         0.4490
@<TRIPOS>BOND
     1    1    2 1
     2    1   27 1
     3    1   28 1
     4    1   29 1
     5    2    3 1
     6    2   30 1
     7    2   31 1
     8    3    4 1
     9    4    9 ar
    10    4    5 ar
    11    5    6 ar
    12    5   32 1
    13    6    7 ar
    14    6   33 1
    15    7    8 ar
    16    7   34 1
    17    8    9 ar
    18    8   35 1
    19    9   10 1
    20   10   11 am
    21   10   36 1
    22   11   12 2
    23   11   13 1
    24   13   18 1
    25   13   14 2
    26   14   15 1
    27   14   26 1
    28   15   16 1
    29   15   43 1
    30   16   17 1
    31   16   25 2
    32   17   18 1
    33   17   44 1
    34   18   19 1
    35   18   20 1
    36   20   24 1
    37   20   21 2
    38   21   22 1
    39   21   37 1
    40   22   23 2
    41   22   38 1
    42   23   24 1
    43   23   39 1
    44   26   40 1
    45   26   41 1
    46   26   42 1
@<TRIPOS>MOLECULE
ZINC17740304
   58    60     0     0     0
SMALL
USER_CHARGES

@<TRIPOS>ATOM
      1 C1         -0.0184    1.5028    0.0103 C.3       1 <0>        -0.1163
      2 C2          0.0021   -0.0041    0.0020 C.ar      1 <0>        -0.0827
      3 C3          0.0057   -0.6882   -1.2000 C.ar      1 <0>        -0.1218
      4 C4          0.0240   -2.0707   -1.2121 C.ar      1 <0>        -0.1153
      5 C5          0.0391   -2.7732   -0.0230 C.ar      1 <0>        -0.1276
      6 C6          0.0360   -2.0893    1.1859 C.ar      1 <0>         0.1728
      7 C7          0.0228   -0.7000    1.1944 C.ar      1 <0>        -0.0942
      8 C8          0.0251    0.0464    2.5036 C.3       1 <0>        -0.1107
      9 N1          0.0513   -2.7965    2.3902 N.pl3     1 <0>        -0.6777
     10 C9         -1.2026   -3.2008    3.0442 C.3       1 <0>         0.1524
     11 C10        -1.1572   -2.7461    4.5069 C.3       1 <0>         0.0401
     12 N2          0.0660   -3.2590    5.1382 N.3       1 <0>        -0.5207
     13 C11         1.2676   -2.7038    4.5010 C.3       1 <0>         0.0351
     14 C12         1.3217   -3.1621    3.0350 C.3       1 <0>         0.1518
     15 C13         0.0649   -2.9918    6.5826 C.3       1 <0>         0.0257
     16 C14         1.2189   -3.7494    7.2424 C.3       1 <0>         0.1159
     17 H1          2.1640   -3.4179    6.8123 H         1 <0>         0.1090
     18 C15         1.2177   -3.4711    8.7468 C.3       1 <0>         0.0240
     19 O1          2.3619   -4.0832    9.3454 O.3       1 <0>        -0.2963
     20 C16         2.5118   -3.9307   10.6850 C.ar      1 <0>         0.1647
     21 C17         1.5697   -3.2090   11.4101 C.ar      1 <0>        -0.2255
     22 C18         1.7163   -3.0523   12.7644 C.ar      1 <0>        -0.0175
     23 C19         2.8171   -3.6206   13.4173 C.ar      1 <0>        -0.2160
     24 C20         3.7629   -4.3464   12.6826 C.ar      1 <0>        -0.0297
     25 C21         3.6041   -4.5016   11.3295 C.ar      1 <0>        -0.1645
     26 C22         2.9795   -3.4556   14.8676 C.2       1 <0>         0.3971
     27 O2          2.1593   -2.8262   15.5019 O.2       1 <0>        -0.4632
     28 C23         4.1651   -4.0682   15.5676 C.3       1 <0>        -0.2017
     29 O3          1.0588   -5.1514    7.0172 O.3       1 <0>        -0.5346
     30 H2          1.0042    1.8801    0.0026 H         1 <0>         0.0697
     31 H3         -0.5455    1.8639   -0.8728 H         1 <0>         0.0663
     32 H4         -0.5286    1.8543    0.9071 H         1 <0>         0.0667
     33 H5         -0.0061   -0.1414   -2.1312 H         1 <0>         0.1208
     34 H6          0.0260   -2.6019   -2.1525 H         1 <0>         0.1216
     35 H7          0.0530   -3.8531   -0.0331 H         1 <0>         0.1208
     36 H8         -1.0019    0.2123    2.8290 H         1 <0>         0.0632
     37 H9          0.5541   -0.5398    3.2551 H         1 <0>         0.0688
     38 H10         0.5247    1.0064    2.3736 H         1 <0>         0.0628
     39 H11        -2.0467   -2.7299    2.5404 H         1 <0>         0.0711
     40 H12        -1.3051   -4.2851    3.0009 H         1 <0>         0.0590
     41 H13        -1.1593   -1.6569    4.5495 H         1 <0>         0.0369
     42 H14        -2.0288   -3.1327    5.0352 H         1 <0>         0.0795
     43 H15         1.2318   -1.6152    4.5436 H         1 <0>         0.0380
     44 H16         2.1546   -3.0597    5.0250 H         1 <0>         0.0822
     45 H17         1.4571   -4.2427    2.9908 H         1 <0>         0.0610
     46 H18         2.1472   -2.6656    2.5250 H         1 <0>         0.0711
     47 H19         0.1870   -1.9224    6.7544 H         1 <0>         0.0453
     48 H20        -0.8803   -3.3233    7.0127 H         1 <0>         0.0825
     49 H21         1.2504   -2.3950    8.9173 H         1 <0>         0.0734
     50 H22         0.3114   -3.8820    9.1916 H         1 <0>         0.0706
     51 H23         0.7213   -2.7708   10.9055 H         1 <0>         0.1328
     52 H24         0.9843   -2.4914   13.3265 H         1 <0>         0.1361
     53 H25         4.6136   -4.7866   13.1814 H         1 <0>         0.1409
     54 H26         4.3307   -5.0646   10.7625 H         1 <0>         0.1396
     55 H27         5.0849   -3.6576   15.1513 H         1 <0>         0.0939
     56 H28         4.1153   -3.8414   16.6326 H         1 <0>         0.0853
     57 H29         4.1525   -5.1488   15.4253 H         1 <0>         0.0941
     58 H30         0.2373   -5.5158    7.3741 H         1 <0>         0.3734
@<TRIPOS>BOND
     1    1    2 1
     2    1   30 1
     3    1   31 1
     4    1   32 1
     5    2    7 ar
     6    2    3 ar
     7    3    4 ar
     8    3   33 1
     9    4    5 ar
    10    4   34 1
    11    5    6 ar
    12    5   35 1
    13    6    7 ar
    14    6    9 1
    15    7    8 1
    16    8   36 1
    17    8   37 1
    18    8   38 1
    19    9   14 1
    20    9   10 1
    21   10   11 1
    22   10   39 1
    23   10   40 1
    24   11   12 1
    25   11   41 1
    26   11   42 1
    27   12   13 1
    28   12   15 1
    29   13   14 1
    30   13   43 1
    31   13   44 1
    32   14   45 1
    33   14   46 1
    34   15   16 1
    35   15   47 1
    36   15   48 1
    37   16   17 1
    38   16   18 1
    39   16   29 1
    40   18   19 1
    41   18   49 1
    42   18   50 1
    43   19   20 1
    44   20   25 ar
    45   20   21 ar
    46   21   22 ar
    47   21   51 1
    48   22   23 ar
    49   22   52 1
    50   23   24 ar
    51   23   26 1
    52   24   25 ar
    53   24   53 1
    54   25   54 1
    55   26   27 2
    56   26   28 1
    57   28   55 1
    58   28   56 1
    59   28   57 1
    60   29   58 1
@<TRIPOS>MOLECULE
ZINC17740304
   59    61     0     0     0
SMALL
USER_CHARGES

@<TRIPOS>ATOM
      1 C1         -0.0184    1.5028    0.0103 C.3       1 <0>        -0.1222
      2 C2          0.0021   -0.0041    0.0020 C.ar      1 <0>        -0.0752
      3 C3          0.0057   -0.6882   -1.2000 C.ar      1 <0>        -0.1069
      4 C4          0.0240   -2.0707   -1.2121 C.ar      1 <0>        -0.1092
      5 C5          0.0391   -2.7732   -0.0230 C.ar      1 <0>        -0.1195
      6 C6          0.0360   -2.0893    1.1859 C.ar      1 <0>         0.1458
      7 C7          0.0228   -0.7000    1.1944 C.ar      1 <0>        -0.0921
      8 C8          0.0251    0.0464    2.5036 C.3       1 <0>        -0.1101
      9 N1          0.0513   -2.7965    2.3902 N.pl3     1 <0>        -0.6728
     10 C9         -1.2020   -3.2016    3.0455 C.3       1 <0>         0.1210
     11 C10        -1.1463   -2.7641    4.5129 C.3       1 <0>        -0.0254
     12 N2          0.0670   -3.3053    5.1383 N.4       1 <0>        -0.3737
     13 C11         1.2577   -2.7225    4.5069 C.3       1 <0>        -0.0335
     14 C12         1.3211   -3.1628    3.0363 C.3       1 <0>         0.1220
     15 C13         0.0649   -2.9786    6.5705 C.3       1 <0>        -0.0440
     16 C14         1.2632   -3.6467    7.2477 C.3       1 <0>         0.0866
     17 H1          2.1856   -3.2844    6.7938 H         1 <0>         0.1349
     18 C15         1.2611   -3.3064    8.7394 C.3       1 <0>         0.0273
     19 O1          2.4413   -3.8324    9.3497 O.3       1 <0>        -0.2972
     20 C16         2.5952   -3.6166   10.6802 C.ar      1 <0>         0.1516
     21 C17         1.6230   -2.9155   11.3855 C.ar      1 <0>        -0.2218
     22 C18         1.7735   -2.6951   12.7305 C.ar      1 <0>        -0.0195
     23 C19         2.9087   -3.1774   13.3938 C.ar      1 <0>        -0.2013
     24 C20         3.8846   -3.8828   12.6789 C.ar      1 <0>        -0.0297
     25 C21         3.7219   -4.1023   11.3352 C.ar      1 <0>        -0.1566
     26 C22         3.0753   -2.9439   14.8341 C.2       1 <0>         0.3947
     27 O2          2.2289   -2.3323   15.4512 O.2       1 <0>        -0.4565
     28 C23         4.2979   -3.4640   15.5453 C.3       1 <0>        -0.2033
     29 O3          1.1752   -5.0633    7.0822 O.3       1 <0>        -0.5420
     30 H2          1.0042    1.8801    0.0026 H         1 <0>         0.0749
     31 H3         -0.5455    1.8639   -0.8728 H         1 <0>         0.0723
     32 H4         -0.5286    1.8543    0.9071 H         1 <0>         0.0687
     33 H5         -0.0061   -0.1414   -2.1312 H         1 <0>         0.1285
     34 H6          0.0260   -2.6019   -2.1525 H         1 <0>         0.1289
     35 H7          0.0530   -3.8531   -0.0331 H         1 <0>         0.1235
     36 H8         -1.0019    0.2123    2.8290 H         1 <0>         0.0675
     37 H9          0.5541   -0.5398    3.2551 H         1 <0>         0.0551
     38 H10         0.5247    1.0064    2.3736 H         1 <0>         0.0729
     39 H11        -2.0459   -2.7200    2.5515 H         1 <0>         0.1168
     40 H12        -1.3108   -4.2848    2.9901 H         1 <0>         0.0795
     41 H13        -1.1286   -1.6756    4.5672 H         1 <0>         0.1309
     42 H14        -2.0245   -3.1401    5.0379 H         1 <0>         0.1373
     43 H15         1.2026   -1.6353    4.5614 H         1 <0>         0.1322
     44 H16         2.1509   -3.0678    5.0274 H         1 <0>         0.1380
     45 H17         1.4628   -4.2421    2.9800 H         1 <0>         0.0815
     46 H18         2.1462   -2.6556    2.5362 H         1 <0>         0.1166
     47 H19         0.1321   -1.8980    6.6968 H         1 <0>         0.1436
     48 H20        -0.8575   -3.3408    7.0245 H         1 <0>         0.1397
     49 H21         1.2386   -2.2239    8.8651 H         1 <0>         0.0842
     50 H22         0.3818   -3.7452    9.2109 H         1 <0>         0.0799
     51 H23         0.7481   -2.5437   10.8730 H         1 <0>         0.1308
     52 H24         1.0182   -2.1503   13.2772 H         1 <0>         0.1396
     53 H25         4.7619   -4.2568   13.1858 H         1 <0>         0.1465
     54 H26         4.4720   -4.6497   10.7837 H         1 <0>         0.1413
     55 H27         5.0834   -2.7088   15.5172 H         1 <0>         0.1007
     56 H28         4.0470   -3.6889   16.5819 H         1 <0>         0.0919
     57 H29         4.6475   -4.3705   15.0512 H         1 <0>         0.0867
     58 H30         0.3773   -5.4550    7.4631 H         1 <0>         0.3906
     59 H31         0.0841   -4.3077    5.0246 H         1 <0>         0.4278
@<TRIPOS>BOND
     1    1    2 1
     2    1   30 1
     3    1   31 1
     4    1   32 1
     5    2    7 ar
     6    2    3 ar
     7    3    4 ar
     8    3   33 1
     9    4    5 ar
    10    4   34 1
    11    5    6 ar
    12    5   35 1
    13    6    7 ar
    14    6    9 1
    15    7    8 1
    16    8   36 1
    17    8   37 1
    18    8   38 1
    19    9   14 1
    20    9   10 1
    21   10   11 1
    22   10   39 1
    23   10   40 1
    24   11   12 1
    25   11   41 1
    26   11   42 1
    27   12   13 1
    28   12   15 1
    29   12   59 1
    30   13   14 1
    31   13   43 1
    32   13   44 1
    33   14   45 1
    34   14   46 1
    35   15   16 1
    36   15   47 1
    37   15   48 1
    38   16   17 1
    39   16   18 1
    40   16   29 1
    41   18   19 1
    42   18   49 1
    43   18   50 1
    44   19   20 1
    45   20   25 ar
    46   20   21 ar
    47   21   22 ar
    48   21   51 1
    49   22   23 ar
    50   22   52 1
    51   23   24 ar
    52   23   26 1
    53   24   25 ar
    54   24   53 1
    55   25   54 1
    56   26   27 2
    57   26   28 1
    58   28   55 1
    59   28   56 1
    60   28   57 1
    61   29   58 1
@<TRIPOS>MOLECULE
ZINC17740306
   58    60     0     0     0
SMALL
USER_CHARGES

@<TRIPOS>ATOM
      1 C1          1.2478    0.8414   -0.2956 C.3       1 <0>        -0.1163
      2 C2          1.0700   -0.6506   -0.1808 C.ar      1 <0>        -0.0827
      3 C3          1.1062   -1.4400   -1.3159 C.ar      1 <0>        -0.1217
      4 C4          0.9430   -2.8093   -1.2151 C.ar      1 <0>        -0.1152
      5 C5          0.7437   -3.3934    0.0206 C.ar      1 <0>        -0.1276
      6 C6          0.7072   -2.6038    1.1626 C.ar      1 <0>         0.1727
      7 C7          0.8767   -1.2287    1.0582 C.ar      1 <0>        -0.0942
      8 C8          0.8436   -0.3685    2.2951 C.3       1 <0>        -0.1106
      9 N1          0.5059   -3.1912    2.4137 N.pl3     1 <0>        -0.6776
     10 C9         -0.8506   -3.3756    2.9515 C.3       1 <0>         0.1523
     11 C10        -0.8954   -2.7944    4.3687 C.3       1 <0>         0.0378
     12 N2          0.1784   -3.3917    5.1737 N.3       1 <0>        -0.5215
     13 C11         1.5015   -3.0501    4.6345 C.3       1 <0>         0.0393
     14 C12         1.6443   -3.6473    3.2255 C.3       1 <0>         0.1513
     15 C13         0.0649   -2.9918    6.5826 C.3       1 <0>         0.0257
     16 C14        -1.0698   -3.7756    7.2454 C.3       1 <0>         0.1189
     17 H1         -1.9982   -3.6002    6.7020 H         1 <0>         0.1085
     18 C15        -1.2314   -3.3119    8.6944 C.3       1 <0>         0.0236
     19 O1         -2.3641   -3.9588    9.2780 O.3       1 <0>        -0.2961
     20 C16        -2.6490   -3.6555   10.5692 C.ar      1 <0>         0.1648
     21 C17        -1.8543   -2.7463   11.2591 C.ar      1 <0>        -0.2256
     22 C18        -2.1383   -2.4360   12.5642 C.ar      1 <0>        -0.0175
     23 C19        -3.2307   -3.0364   13.2023 C.ar      1 <0>        -0.2161
     24 C20        -4.0277   -3.9513   12.5032 C.ar      1 <0>        -0.0297
     25 C21        -3.7383   -4.2507   11.1967 C.ar      1 <0>        -0.1645
     26 C22        -3.5391   -2.7081   14.6001 C.2       1 <0>         0.3971
     27 O2         -2.8472   -1.9157   15.2039 O.2       1 <0>        -0.4633
     28 C23        -4.7153   -3.3558   15.2844 C.3       1 <0>        -0.2017
     29 O3         -0.7612   -5.1707    7.2234 O.3       1 <0>        -0.5348
     30 H2          2.3066    1.0882   -0.2176 H         1 <0>         0.0696
     31 H3          0.8659    1.1798   -1.2589 H         1 <0>         0.0664
     32 H4          0.6994    1.3355    0.5064 H         1 <0>         0.0668
     33 H5          1.2619   -0.9858   -2.2833 H         1 <0>         0.1208
     34 H6          0.9711   -3.4227   -2.1035 H         1 <0>         0.1217
     35 H7          0.6160   -4.4630    0.0987 H         1 <0>         0.1208
     36 H8         -0.1804   -0.0482    2.4876 H         1 <0>         0.0633
     37 H9          1.2110   -0.9418    3.1463 H         1 <0>         0.0686
     38 H10         1.4761    0.5066    2.1462 H         1 <0>         0.0627
     39 H11        -1.5692   -2.8544    2.3191 H         1 <0>         0.0710
     40 H12        -1.0903   -4.4384    2.9839 H         1 <0>         0.0601
     41 H13        -0.7581   -1.7141    4.3233 H         1 <0>         0.0373
     42 H14        -1.8598   -3.0201    4.8240 H         1 <0>         0.0799
     43 H15         1.6055   -1.9662    4.5854 H         1 <0>         0.0384
     44 H16         2.2756   -3.4612    5.2826 H         1 <0>         0.0797
     45 H17         1.6398   -4.7358    3.2837 H         1 <0>         0.0601
     46 H18         2.5759   -3.3058    2.7744 H         1 <0>         0.0715
     47 H19         1.0020   -3.2041    7.0972 H         1 <0>         0.0810
     48 H20        -0.1482   -1.9245    6.6414 H         1 <0>         0.0477
     49 H21        -0.3355   -3.5678    9.2599 H         1 <0>         0.0700
     50 H22        -1.3786   -2.2321    8.7160 H         1 <0>         0.0732
     51 H23        -1.0119   -2.2840   10.7662 H         1 <0>         0.1327
     52 H24        -1.5203   -1.7300   13.0991 H         1 <0>         0.1360
     53 H25        -4.8713   -4.4171   12.9908 H         1 <0>         0.1408
     54 H26        -4.3547   -4.9530   10.6554 H         1 <0>         0.1396
     55 H27        -4.5811   -4.4374   15.2914 H         1 <0>         0.0941
     56 H28        -4.7850   -2.9916   16.3094 H         1 <0>         0.0852
     57 H29        -5.6305   -3.1066   14.7473 H         1 <0>         0.0939
     58 H30         0.0544   -5.4006    7.6892 H         1 <0>         0.3719
@<TRIPOS>BOND
     1    1    2 1
     2    1   30 1
     3    1   31 1
     4    1   32 1
     5    2    7 ar
     6    2    3 ar
     7    3    4 ar
     8    3   33 1
     9    4    5 ar
    10    4   34 1
    11    5    6 ar
    12    5   35 1
    13    6    7 ar
    14    6    9 1
    15    7    8 1
    16    8   36 1
    17    8   37 1
    18    8   38 1
    19    9   14 1
    20    9   10 1
    21   10   11 1
    22   10   39 1
    23   10   40 1
    24   11   12 1
    25   11   41 1
    26   11   42 1
    27   12   13 1
    28   12   15 1
    29   13   14 1
    30   13   43 1
    31   13   44 1
    32   14   45 1
    33   14   46 1
    34   15   16 1
    35   15   47 1
    36   15   48 1
    37   16   17 1
    38   16   18 1
    39   16   29 1
    40   18   19 1
    41   18   49 1
    42   18   50 1
    43   19   20 1
    44   20   25 ar
    45   20   21 ar
    46   21   22 ar
    47   21   51 1
    48   22   23 ar
    49   22   52 1
    50   23   24 ar
    51   23   26 1
    52   24   25 ar
    53   24   53 1
    54   25   54 1
    55   26   27 2
    56   26   28 1
    57   28   55 1
    58   28   56 1
    59   28   57 1
    60   29   58 1
@<TRIPOS>MOLECULE
ZINC17740306
   59    61     0     0     0
SMALL
USER_CHARGES

@<TRIPOS>ATOM
      1 C1          0.7579    0.6459   -0.4657 C.3       1 <0>        -0.1222
      2 C2          0.7209   -0.8501   -0.2878 C.ar      1 <0>        -0.0752
      3 C3          0.8088   -1.6793   -1.3912 C.ar      1 <0>        -0.1069
      4 C4          0.7748   -3.0524   -1.2324 C.ar      1 <0>        -0.1092
      5 C5          0.6535   -3.6005    0.0296 C.ar      1 <0>        -0.1195
      6 C6          0.5655   -2.7707    1.1399 C.ar      1 <0>         0.1458
      7 C7          0.6052   -1.3914    0.9772 C.ar      1 <0>        -0.0921
      8 C8          0.5157   -0.4872    2.1795 C.3       1 <0>        -0.1101
      9 N1          0.4428   -3.3215    2.4175 N.pl3     1 <0>        -0.6728
     10 C9         -0.8801   -3.6076    2.9940 C.3       1 <0>         0.1222
     11 C10        -0.9428   -2.9913    4.3954 C.3       1 <0>        -0.0312
     12 N2          0.1861   -3.4821    5.1959 N.4       1 <0>        -0.3739
     13 C11         1.4513   -3.0152    4.6152 C.3       1 <0>        -0.0275
     14 C12         1.6328   -3.6379    3.2224 C.3       1 <0>         0.1206
     15 C13         0.0649   -2.9786    6.5705 C.3       1 <0>        -0.0440
     16 C14        -1.1693   -3.5946    7.2324 C.3       1 <0>         0.0868
     17 H1         -2.0580   -3.3345    6.6572 H         1 <0>         0.1347
     18 C15        -1.3075   -3.0538    8.6569 C.3       1 <0>         0.0274
     19 O1         -2.5218   -3.5376    9.2344 O.3       1 <0>        -0.2972
     20 C16        -2.7979   -3.1483   10.5043 C.ar      1 <0>         0.1516
     21 C17        -1.9167   -2.3102   11.1792 C.ar      1 <0>        -0.2218
     22 C18        -2.1912   -1.9134   12.4626 C.ar      1 <0>        -0.0195
     23 C19        -3.3612   -2.3536   13.0938 C.ar      1 <0>        -0.2013
     24 C20        -4.2451   -3.1973   12.4098 C.ar      1 <0>        -0.0297
     25 C21        -3.9639   -3.5840   11.1247 C.ar      1 <0>        -0.1566
     26 C22        -3.6600   -1.9321   14.4686 C.2       1 <0>         0.3948
     27 O2         -2.8928   -1.2016   15.0592 O.2       1 <0>        -0.4565
     28 C23        -4.9199   -2.4072   15.1453 C.3       1 <0>        -0.2034
     29 O3         -1.0280   -5.0160    7.2741 O.3       1 <0>        -0.5419
     30 H2          1.7906    0.9917   -0.4213 H         1 <0>         0.0748
     31 H3          0.3284    0.9075   -1.4328 H         1 <0>         0.0724
     32 H4          0.1813    1.1206    0.3282 H         1 <0>         0.0688
     33 H5          0.9037   -1.2534   -2.3791 H         1 <0>         0.1285
     34 H6          0.8429   -3.6971   -2.0962 H         1 <0>         0.1289
     35 H7          0.6267   -4.6731    0.1529 H         1 <0>         0.1235
     36 H8         -0.5296   -0.2543    2.3820 H         1 <0>         0.0677
     37 H9          0.9504   -0.9885    3.0443 H         1 <0>         0.0549
     38 H10         1.0618    0.4352    1.9817 H         1 <0>         0.0728
     39 H11        -1.6558   -3.1693    2.3660 H         1 <0>         0.1166
     40 H12        -1.0250   -4.6858    3.0612 H         1 <0>         0.0807
     41 H13        -0.8883   -1.9054    4.3177 H         1 <0>         0.1313
     42 H14        -1.8793   -3.2749    4.8756 H         1 <0>         0.1376
     43 H15         1.4334   -1.9286    4.5308 H         1 <0>         0.1320
     44 H16         2.2790   -3.3164    5.2573 H         1 <0>         0.1372
     45 H17         1.7374   -4.7191    3.3123 H         1 <0>         0.0804
     46 H18         2.5192   -3.2196    2.7456 H         1 <0>         0.1169
     47 H19         0.9552   -3.2513    7.1372 H         1 <0>         0.1396
     48 H20        -0.0360   -1.8934    6.5524 H         1 <0>         0.1436
     49 H21        -0.4613   -3.3890    9.2565 H         1 <0>         0.0800
     50 H22        -1.3261   -1.9643    8.6317 H         1 <0>         0.0842
     51 H23        -1.0144   -1.9717   10.6916 H         1 <0>         0.1308
     52 H24        -1.5061   -1.2629   12.9860 H         1 <0>         0.1396
     53 H25        -5.1488   -3.5395   12.8922 H         1 <0>         0.1465
     54 H26        -4.6469   -4.2314   10.5948 H         1 <0>         0.1413
     55 H27        -4.7205   -3.3420   15.6693 H         1 <0>         0.1008
     56 H28        -5.2547   -1.6548   15.8593 H         1 <0>         0.0919
     57 H29        -5.6957   -2.5686   14.3969 H         1 <0>         0.0867
     58 H30        -0.2562   -5.3201    7.7709 H         1 <0>         0.3906
     59 H31         0.1749   -4.4910    5.2076 H         1 <0>         0.4279
@<TRIPOS>BOND
     1    1    2 1
     2    1   30 1
     3    1   31 1
     4    1   32 1
     5    2    7 ar
     6    2    3 ar
     7    3    4 ar
     8    3   33 1
     9    4    5 ar
    10    4   34 1
    11    5    6 ar
    12    5   35 1
    13    6    7 ar
    14    6    9 1
    15    7    8 1
    16    8   36 1
    17    8   37 1
    18    8   38 1
    19    9   14 1
    20    9   10 1
    21   10   11 1
    22   10   39 1
    23   10   40 1
    24   11   12 1
    25   11   41 1
    26   11   42 1
    27   12   13 1
    28   12   15 1
    29   12   59 1
    30   13   14 1
    31   13   43 1
    32   13   44 1
    33   14   45 1
    34   14   46 1
    35   15   16 1
    36   15   47 1
    37   15   48 1
    38   16   17 1
    39   16   18 1
    40   16   29 1
    41   18   19 1
    42   18   49 1
    43   18   50 1
    44   19   20 1
    45   20   25 ar
    46   20   21 ar
    47   21   22 ar
    48   21   51 1
    49   22   23 ar
    50   22   52 1
    51   23   24 ar
    52   23   26 1
    53   24   25 ar
    54   24   53 1
    55   25   54 1
    56   26   27 2
    57   26   28 1
    58   28   55 1
    59   28   56 1
    60   28   57 1
    61   29   58 1
@<TRIPOS>MOLECULE
ZINC08438481
   62    66     0     0     0
SMALL
USER_CHARGES
N-[2-[(3-acetyl-2,4,6-trimethyl-phenyl)methylsulfanyl]benzothiazol-6-yl]naphthalene-1-carboxamide
@<TRIPOS>ATOM
      1 C1          8.0628   -6.4255   -2.1853 C.3       1 <0>        -0.1282
      2 C2          8.7632   -6.5326   -0.8552 C.ar      1 <0>        -0.0378
      3 C3         10.0597   -7.0142   -0.7967 C.ar      1 <0>        -0.1264
      4 C4         10.7071   -7.1156    0.4163 C.ar      1 <0>        -0.0328
      5 C5         10.0505   -6.7300    1.5896 C.ar      1 <0>        -0.1639
      6 C6          8.7431   -6.2388    1.5214 C.ar      1 <0>        -0.0222
      7 C7          8.1071   -6.1487    0.3011 C.ar      1 <0>        -0.0970
      8 C8          6.6960   -5.6249    0.2258 C.3       1 <0>        -0.0736
      9 S1          5.5321   -7.0021    0.3827 S.3       1 <0>         0.0533
     10 C9          4.0065   -6.1283    0.2642 C.2       1 <0>         0.1091
     11 N1          3.8052   -4.8394    0.1076 N.2       1 <0>        -0.4983
     12 C10         2.5666   -4.3023    0.0329 C.ar      1 <0>         0.0702
     13 C11         2.2145   -2.9429   -0.1329 C.ar      1 <0>        -0.0385
     14 C12         0.9109   -2.5598   -0.1887 C.ar      1 <0>        -0.1289
     15 C13        -0.1258   -3.4846   -0.0863 C.ar      1 <0>         0.1704
     16 C14         0.1808   -4.8292    0.0828 C.ar      1 <0>        -0.0672
     17 C15         1.4953   -5.2187    0.1345 C.ar      1 <0>        -0.1248
     18 S2          2.3397   -6.7698    0.3278 S.3       1 <0>         0.0502
     19 N2         -1.4599   -3.0638   -0.1474 N.am      1 <0>        -0.6644
     20 C16        -2.3944   -3.8640   -0.6977 C.2       1 <0>         0.5660
     21 O1         -2.0655   -4.9090   -1.2259 O.2       1 <0>        -0.5065
     22 C17        -3.8159   -3.4755   -0.6541 C.ar      1 <0>        -0.1319
     23 C18        -4.1884   -2.2308   -0.1674 C.ar      1 <0>        -0.0662
     24 C19        -5.5256   -1.8574   -0.1277 C.ar      1 <0>        -0.1335
     25 C20        -6.5070   -2.7017   -0.5541 C.ar      1 <0>        -0.0654
     26 C21        -6.1762   -3.9744   -1.0505 C.ar      1 <0>        -0.0615
     27 C22        -4.8181   -4.3717   -1.1033 C.ar      1 <0>        -0.0094
     28 C23        -4.4898   -5.6413   -1.5974 C.ar      1 <0>        -0.1197
     29 C24        -5.4790   -6.4773   -2.0205 C.ar      1 <0>        -0.1098
     30 C25        -6.8157   -6.0887   -1.9691 C.ar      1 <0>        -0.1121
     31 C26        -7.1707   -4.8628   -1.4955 C.ar      1 <0>        -0.1084
     32 C27         8.0287   -5.8148    2.7788 C.3       1 <0>        -0.1309
     33 C28        10.7345   -6.8347    2.8885 C.2       1 <0>         0.4079
     34 O2         11.4598   -5.9392    3.2656 O.2       1 <0>        -0.4441
     35 C29        10.5334   -8.0549    3.7497 C.3       1 <0>        -0.1922
     36 C30        12.1182   -7.6411    0.4779 C.3       1 <0>        -0.1246
     37 H1          8.2544   -5.4439   -2.6188 H         1 <0>         0.0780
     38 H2          8.4373   -7.1984   -2.8564 H         1 <0>         0.0750
     39 H3          6.9902   -6.5566   -2.0427 H         1 <0>         0.0746
     40 H4         10.5653   -7.3115   -1.7035 H         1 <0>         0.1330
     41 H5          6.5436   -5.1276   -0.7321 H         1 <0>         0.1109
     42 H6          6.5288   -4.9139    1.0349 H         1 <0>         0.1112
     43 H7          2.9921   -2.1980   -0.2162 H         1 <0>         0.1392
     44 H8          0.6737   -1.5139   -0.3157 H         1 <0>         0.1396
     45 H9         -0.6084   -5.5614    0.1691 H         1 <0>         0.1469
     46 H10        -1.7115   -2.1964    0.2065 H         1 <0>         0.4148
     47 H11        -3.4309   -1.5443    0.1808 H         1 <0>         0.1280
     48 H12        -5.7929   -0.8821    0.2515 H         1 <0>         0.1337
     49 H13        -7.5407   -2.3920   -0.5108 H         1 <0>         0.1343
     50 H14        -3.4575   -5.9557   -1.6423 H         1 <0>         0.1672
     51 H15        -5.2232   -7.4552   -2.4008 H         1 <0>         0.1260
     52 H16        -7.5814   -6.7697   -2.3102 H         1 <0>         0.1257
     53 H17        -8.2109   -4.5744   -1.4613 H         1 <0>         0.1305
     54 H18         7.4308   -6.6451    3.1545 H         1 <0>         0.0862
     55 H19         8.7609   -5.5241    3.5321 H         1 <0>         0.0681
     56 H20         7.3779   -4.9685    2.5591 H         1 <0>         0.0780
     57 H21         9.9702   -8.7199    3.2592 H         1 <0>         0.0754
     58 H22        11.5013   -8.4993    3.9819 H         1 <0>         0.0956
     59 H23        10.0340   -7.7681    4.6752 H         1 <0>         0.0982
     60 H24        12.8180   -6.8057    0.4599 H         1 <0>         0.0796
     61 H25        12.2544   -8.2094    1.3980 H         1 <0>         0.0669
     62 H26        12.3027   -8.2882   -0.3796 H         1 <0>         0.0769
@<TRIPOS>BOND
     1    1    2 1
     2    1   37 1
     3    1   38 1
     4    1   39 1
     5    2    7 ar
     6    2    3 ar
     7    3    4 ar
     8    3   40 1
     9    4    5 ar
    10    4   36 1
    11    5    6 ar
    12    5   33 1
    13    6    7 ar
    14    6   32 1
    15    7    8 1
    16    8    9 1
    17    8   41 1
    18    8   42 1
    19    9   10 1
    20   10   18 1
    21   10   11 2
    22   11   12 1
    23   12   17 ar
    24   12   13 ar
    25   13   14 ar
    26   13   43 1
    27   14   15 ar
    28   14   44 1
    29   15   16 ar
    30   15   19 1
    31   16   17 ar
    32   16   45 1
    33   17   18 1
    34   19   20 am
    35   19   46 1
    36   20   21 2
    37   20   22 1
    38   22   27 ar
    39   22   23 ar
    40   23   24 ar
    41   23   47 1
    42   24   25 ar
    43   24   48 1
    44   25   26 ar
    45   25   49 1
    46   26   31 ar
    47   26   27 ar
    48   27   28 ar
    49   28   29 ar
    50   28   50 1
    51   29   30 ar
    52   29   51 1
    53   30   31 ar
    54   30   52 1
    55   31   53 1
    56   32   54 1
    57   32   55 1
    58   32   56 1
    59   33   34 2
    60   33   35 1
    61   35   57 1
    62   35   58 1
    63   35   59 1
    64   36   60 1
    65   36   61 1
    66   36   62 1
@<TRIPOS>MOLECULE
ZINC02190601
   54    58     0     0     0
SMALL
USER_CHARGES
2-(4-methoxyphenyl)-3-(4-phenoxyphenyl)-1,2-dihydroquinazolin-4-one
@<TRIPOS>ATOM
      1 C1          7.4996    5.5755    6.3674 C.3       1 <0>         0.0253
      2 O1          8.0118    6.5008    5.4064 O.3       1 <0>        -0.3154
      3 C2          7.8258    6.1951    4.0954 C.ar      1 <0>         0.1413
      4 C3          8.2976    7.0490    3.1091 C.ar      1 <0>        -0.1540
      5 C4          8.1076    6.7358    1.7771 C.ar      1 <0>        -0.0463
      6 C5          7.4479    5.5723    1.4266 C.ar      1 <0>        -0.1743
      7 C6          6.9718    4.7223    2.4078 C.ar      1 <0>        -0.0539
      8 C7          7.1642    5.0283    3.7411 C.ar      1 <0>        -0.2078
      9 C8          7.2421    5.2330   -0.0272 C.3       1 <0>         0.4260
     10 H1          6.2941    5.6519   -0.3647 H         1 <0>         0.1207
     11 N1          8.3339    5.8099   -0.8199 N.pl3     1 <0>        -0.7452
     12 C9          9.5739    5.1807   -0.8093 C.ar      1 <0>         0.2383
     13 C10        10.7506    5.8855   -0.9986 C.ar      1 <0>        -0.1814
     14 C11        11.9586    5.2149   -0.9897 C.ar      1 <0>        -0.0477
     15 C12        12.0015    3.8433   -0.7945 C.ar      1 <0>        -0.1698
     16 C13        10.8388    3.1268   -0.6003 C.ar      1 <0>        -0.0176
     17 C14         9.6142    3.7911   -0.6013 C.ar      1 <0>        -0.2011
     18 C15         8.3475    3.0740   -0.3679 C.2       1 <0>         0.5768
     19 O2          8.3251    1.8583   -0.3442 O.2       1 <0>        -0.5064
     20 N2          7.2129    3.7789   -0.1858 N.am      1 <0>        -0.5567
     21 C16         5.9853    3.1067   -0.1420 C.ar      1 <0>         0.1536
     22 C17         4.8256    3.7988    0.1815 C.ar      1 <0>        -0.1481
     23 C18         3.6155    3.1353    0.2250 C.ar      1 <0>        -0.1129
     24 C19         3.5580    1.7774   -0.0539 C.ar      1 <0>         0.0626
     25 C20         4.7172    1.0842   -0.3717 C.ar      1 <0>        -0.0918
     26 C21         5.9271    1.7477   -0.4215 C.ar      1 <0>        -0.1421
     27 O3          2.3663    1.1246   -0.0105 O.3       1 <0>        -0.2552
     28 C22         1.4292    1.4450   -0.9408 C.ar      1 <0>         0.1204
     29 C23         0.2655    0.6960   -1.0417 C.ar      1 <0>        -0.1458
     30 C24        -0.6828    1.0200   -1.9925 C.ar      1 <0>        -0.0827
     31 C25        -0.4784    2.0968   -2.8356 C.ar      1 <0>        -0.1533
     32 C26         0.6803    2.8448   -2.7371 C.ar      1 <0>        -0.0824
     33 C27         1.6344    2.5216   -1.7919 C.ar      1 <0>        -0.1999
     34 H2          7.7149    5.9387    7.3723 H         1 <0>         0.1031
     35 H3          6.4215    5.4783    6.2394 H         1 <0>         0.0575
     36 H4          7.9716    4.6036    6.2235 H         1 <0>         0.0571
     37 H5          8.8126    7.9581    3.3824 H         1 <0>         0.1342
     38 H6          8.4744    7.4004    1.0089 H         1 <0>         0.1318
     39 H7          6.4527    3.8165    2.1315 H         1 <0>         0.1270
     40 H8          6.7961    4.3618    4.5071 H         1 <0>         0.1308
     41 H9          8.1934    6.6155   -1.3416 H         1 <0>         0.4178
     42 H10        10.7243    6.9542   -1.1521 H         1 <0>         0.1319
     43 H11        12.8769    5.7639   -1.1368 H         1 <0>         0.1307
     44 H12        12.9526    3.3316   -0.7941 H         1 <0>         0.1305
     45 H13        10.8777    2.0583   -0.4481 H         1 <0>         0.1370
     46 H14         4.8702    4.8558    0.3987 H         1 <0>         0.1332
     47 H15         2.7135    3.6734    0.4766 H         1 <0>         0.1354
     48 H16         4.6725    0.0263   -0.5844 H         1 <0>         0.1373
     49 H17         6.8287    1.2088   -0.6728 H         1 <0>         0.1857
     50 H18         0.1033   -0.1424   -0.3805 H         1 <0>         0.1323
     51 H19        -1.5865    0.4344   -2.0747 H         1 <0>         0.1313
     52 H20        -1.2232    2.3514   -3.5750 H         1 <0>         0.1251
     53 H21         0.8398    3.6824   -3.4000 H         1 <0>         0.1252
     54 H22         2.5394    3.1060   -1.7157 H         1 <0>         0.1318
@<TRIPOS>BOND
     1    1    2 1
     2    1   34 1
     3    1   35 1
     4    1   36 1
     5    2    3 1
     6    3    8 ar
     7    3    4 ar
     8    4    5 ar
     9    4   37 1
    10    5    6 ar
    11    5   38 1
    12    6    7 ar
    13    6    9 1
    14    7    8 ar
    15    7   39 1
    16    8   40 1
    17    9   10 1
    18    9   20 1
    19    9   11 1
    20   11   12 1
    21   11   41 1
    22   12   17 ar
    23   12   13 ar
    24   13   14 ar
    25   13   42 1
    26   14   15 ar
    27   14   43 1
    28   15   16 ar
    29   15   44 1
    30   16   17 ar
    31   16   45 1
    32   17   18 1
    33   18   19 2
    34   18   20 am
    35   20   21 1
    36   21   26 ar
    37   21   22 ar
    38   22   23 ar
    39   22   46 1
    40   23   24 ar
    41   23   47 1
    42   24   25 ar
    43   24   27 1
    44   25   26 ar
    45   25   48 1
    46   26   49 1
    47   27   28 1
    48   28   33 ar
    49   28   29 ar
    50   29   30 ar
    51   29   50 1
    52   30   31 ar
    53   30   51 1
    54   31   32 ar
    55   31   52 1
    56   32   33 ar
    57   32   53 1
    58   33   54 1
@<TRIPOS>MOLECULE
ZINC02190602
   54    58     0     0     0
SMALL
USER_CHARGES
2-(4-methoxyphenyl)-3-(4-phenoxyphenyl)-1,2-dihydroquinazolin-4-one
@<TRIPOS>ATOM
      1 C1          2.4419    4.5091    1.3279 C.3       1 <0>         0.0255
      2 O1          2.3954    3.0977    1.1092 O.3       1 <0>        -0.3157
      3 C2          1.1779    2.5536    0.8475 C.ar      1 <0>         0.1404
      4 C3          1.0597    1.1893    0.6253 C.ar      1 <0>        -0.1543
      5 C4         -0.1790    0.6388    0.3590 C.ar      1 <0>        -0.0469
      6 C5         -1.2996    1.4471    0.3083 C.ar      1 <0>        -0.1730
      7 C6         -1.1854    2.8063    0.5350 C.ar      1 <0>        -0.0537
      8 C7          0.0511    3.3617    0.8017 C.ar      1 <0>        -0.2081
      9 C8         -2.6487    0.8449    0.0110 C.3       1 <0>         0.4262
     10 H1         -3.1285    0.5552    0.9458 H         1 <0>         0.1203
     11 N1         -2.4751   -0.3443   -0.8313 N.pl3     1 <0>        -0.7453
     12 C9         -2.2065   -0.1719   -2.1845 C.ar      1 <0>         0.2383
     13 C10        -1.4882   -1.1068   -2.9104 C.ar      1 <0>        -0.1824
     14 C11        -1.2706   -0.9052   -4.2599 C.ar      1 <0>        -0.0484
     15 C12        -1.7686    0.2230   -4.8928 C.ar      1 <0>        -0.1707
     16 C13        -2.4826    1.1661   -4.1832 C.ar      1 <0>        -0.0180
     17 C14        -2.6982    0.9823   -2.8195 C.ar      1 <0>        -0.2004
     18 C15        -3.4501    1.9620   -2.0160 C.2       1 <0>         0.5752
     19 O2         -4.0379    2.8782   -2.5584 O.2       1 <0>        -0.5108
     20 N2         -3.4806    1.8344   -0.6743 N.am      1 <0>        -0.5542
     21 C16        -4.3235    2.6630    0.0766 C.ar      1 <0>         0.1203
     22 C17        -5.2284    3.4981   -0.5654 C.ar      1 <0>        -0.1181
     23 C18        -6.0633    4.3106    0.1757 C.ar      1 <0>        -0.1662
     24 C19        -5.9905    4.3009    1.5613 C.ar      1 <0>         0.1010
     25 C20        -5.0823    3.4713    2.2031 C.ar      1 <0>        -0.1182
     26 C21        -4.2508    2.6541    1.4633 C.ar      1 <0>        -0.1248
     27 O3         -6.8092    5.1050    2.2903 O.3       1 <0>        -0.2599
     28 C22        -7.7585    5.8172    1.6284 C.ar      1 <0>         0.0843
     29 C23        -7.5841    7.1771    1.4146 C.ar      1 <0>        -0.1229
     30 C24        -8.5485    7.8977    0.7372 C.ar      1 <0>        -0.1048
     31 C25        -9.6919    7.2673    0.2821 C.ar      1 <0>        -0.1186
     32 C26        -9.8704    5.9133    0.4981 C.ar      1 <0>        -0.1049
     33 C27        -8.9067    5.1869    1.1702 C.ar      1 <0>        -0.1332
     34 H2          2.0743    5.0263    0.4417 H         1 <0>         0.0568
     35 H3          1.8167    4.7649    2.1834 H         1 <0>         0.0574
     36 H4          3.4700    4.8125    1.5255 H         1 <0>         0.1028
     37 H5          1.9353    0.5581    0.6608 H         1 <0>         0.1338
     38 H6         -0.2715   -0.4232    0.1860 H         1 <0>         0.1315
     39 H7         -2.0628    3.4349    0.4989 H         1 <0>         0.1281
     40 H8          0.1405    4.4241    0.9740 H         1 <0>         0.1303
     41 H9         -2.5462   -1.2338   -0.4511 H         1 <0>         0.4175
     42 H10        -1.0996   -1.9894   -2.4241 H         1 <0>         0.1315
     43 H11        -0.7082   -1.6327   -4.8263 H         1 <0>         0.1302
     44 H12        -1.5960    0.3649   -5.9494 H         1 <0>         0.1299
     45 H13        -2.8723    2.0412   -4.6819 H         1 <0>         0.1362
     46 H14        -5.2823    3.5087   -1.6440 H         1 <0>         0.1804
     47 H15        -6.7702    4.9569   -0.3233 H         1 <0>         0.1316
     48 H16        -5.0259    3.4645    3.2816 H         1 <0>         0.1374
     49 H17        -3.5439    2.0084    1.9630 H         1 <0>         0.1339
     50 H18        -6.6933    7.6708    1.7738 H         1 <0>         0.1317
     51 H19        -8.4114    8.9553    0.5669 H         1 <0>         0.1316
     52 H20       -10.4467    7.8335   -0.2433 H         1 <0>         0.1289
     53 H21       -10.7642    5.4232    0.1412 H         1 <0>         0.1305
     54 H22        -9.0469    4.1295    1.3393 H         1 <0>         0.1297
@<TRIPOS>BOND
     1    1    2 1
     2    1   34 1
     3    1   35 1
     4    1   36 1
     5    2    3 1
     6    3    8 ar
     7    3    4 ar
     8    4    5 ar
     9    4   37 1
    10    5    6 ar
    11    5   38 1
    12    6    7 ar
    13    6    9 1
    14    7    8 ar
    15    7   39 1
    16    8   40 1
    17    9   10 1
    18    9   20 1
    19    9   11 1
    20   11   12 1
    21   11   41 1
    22   12   17 ar
    23   12   13 ar
    24   13   14 ar
    25   13   42 1
    26   14   15 ar
    27   14   43 1
    28   15   16 ar
    29   15   44 1
    30   16   17 ar
    31   16   45 1
    32   17   18 1
    33   18   19 2
    34   18   20 am
    35   20   21 1
    36   21   26 ar
    37   21   22 ar
    38   22   23 ar
    39   22   46 1
    40   23   24 ar
    41   23   47 1
    42   24   25 ar
    43   24   27 1
    44   25   26 ar
    45   25   48 1
    46   26   49 1
    47   27   28 1
    48   28   33 ar
    49   28   29 ar
    50   29   30 ar
    51   29   50 1
    52   30   31 ar
    53   30   51 1
    54   31   32 ar
    55   31   52 1
    56   32   33 ar
    57   32   53 1
    58   33   54 1
@<TRIPOS>MOLECULE
ZINC08438450
   62    65     0     0     0
SMALL
USER_CHARGES
N-[2-[(3-acetyl-2,4,6-trimethyl-phenyl)methylsulfanyl]benzothiazol-6-yl]-3-phenyl-propanamide
@<TRIPOS>ATOM
      1 C1          8.4730    5.0495   -2.5851 C.3       1 <0>        -0.1283
      2 C2          9.1534    5.5787   -1.3490 C.ar      1 <0>        -0.0379
      3 C3         10.4017    6.1685   -1.4492 C.ar      1 <0>        -0.1264
      4 C4         11.0309    6.6546   -0.3229 C.ar      1 <0>        -0.0328
      5 C5         10.4044    6.5509    0.9233 C.ar      1 <0>        -0.1640
      6 C6          9.1407    5.9592    1.0154 C.ar      1 <0>        -0.0221
      7 C7          8.5269    5.4727   -0.1197 C.ar      1 <0>        -0.0967
      8 C8          7.1675    4.8296   -0.0220 C.3       1 <0>        -0.0743
      9 S1          7.3598    3.0524    0.2616 S.3       1 <0>         0.0535
     10 C9          5.6669    2.5689    0.3327 C.2       1 <0>         0.1096
     11 N1          4.5915    3.3138    0.2109 N.2       1 <0>        -0.4989
     12 C10         3.3421    2.8026    0.2884 C.ar      1 <0>         0.0700
     13 C11         2.1112    3.4895    0.1758 C.ar      1 <0>        -0.0408
     14 C12         0.9211    2.8191    0.2791 C.ar      1 <0>        -0.1293
     15 C13         0.8789    1.4440    0.4972 C.ar      1 <0>         0.1660
     16 C14         2.0705    0.7408    0.6177 C.ar      1 <0>        -0.0677
     17 C15         3.2639    1.4090    0.5098 C.ar      1 <0>        -0.1262
     18 S2          4.9760    0.9408    0.5895 S.3       1 <0>         0.0480
     19 N2         -0.3504    0.7795    0.5995 N.am      1 <0>        -0.6715
     20 C16        -0.4809   -0.4736    0.1208 C.2       1 <0>         0.5132
     21 O1          0.4844   -1.0551   -0.3278 O.2       1 <0>        -0.5139
     22 C17        -1.8263   -1.1523    0.1427 C.3       1 <0>        -0.1323
     23 C18        -1.6994   -2.5555   -0.4537 C.3       1 <0>        -0.0661
     24 C19        -3.0447   -3.2342   -0.4318 C.ar      1 <0>        -0.0864
     25 C20        -3.4196   -3.9905    0.6630 C.ar      1 <0>        -0.1161
     26 C21        -4.6556   -4.6091    0.6852 C.ar      1 <0>        -0.1179
     27 C22        -5.5127   -4.4796   -0.3916 C.ar      1 <0>        -0.1224
     28 C23        -5.1356   -3.7280   -1.4888 C.ar      1 <0>        -0.1179
     29 C24        -3.9017   -3.1051   -1.5087 C.ar      1 <0>        -0.1161
     30 C25         8.4541    5.8480    2.3523 C.3       1 <0>        -0.1328
     31 C26        11.0688    7.0676    2.1305 C.2       1 <0>         0.4080
     32 O2         10.9616    8.2383    2.4275 O.2       1 <0>        -0.4441
     33 C27        11.8825    6.1417    2.9975 C.3       1 <0>        -0.1922
     34 C28        12.3903    7.2955   -0.4341 C.3       1 <0>        -0.1247
     35 H1          7.8651    5.8370   -3.0306 H         1 <0>         0.0779
     36 H2          9.2258    4.7221   -3.3023 H         1 <0>         0.0751
     37 H3          7.8360    4.2067   -2.3167 H         1 <0>         0.0745
     38 H4         10.8842    6.2478   -2.4122 H         1 <0>         0.1330
     39 H5          6.6210    4.9923   -0.9509 H         1 <0>         0.1109
     40 H6          6.6149    5.2721    0.8069 H         1 <0>         0.1119
     41 H7          2.1094    4.5561    0.0065 H         1 <0>         0.1389
     42 H8         -0.0044    3.3685    0.1892 H         1 <0>         0.1395
     43 H9          2.0577   -0.3251    0.7911 H         1 <0>         0.1499
     44 H10        -1.1063    1.2197    1.0186 H         1 <0>         0.4164
     45 H11        -2.1797   -1.2253    1.1712 H         1 <0>         0.1010
     46 H12        -2.5363   -0.5705   -0.4450 H         1 <0>         0.1013
     47 H13        -1.3460   -2.4826   -1.4823 H         1 <0>         0.0822
     48 H14        -0.9893   -3.1373    0.1340 H         1 <0>         0.0821
     49 H15        -2.7483   -4.0950    1.5025 H         1 <0>         0.1219
     50 H16        -4.9501   -5.1966    1.5422 H         1 <0>         0.1225
     51 H17        -6.4769   -4.9660   -0.3759 H         1 <0>         0.1217
     52 H18        -5.8051   -3.6272   -2.3302 H         1 <0>         0.1224
     53 H19        -3.6070   -2.5179   -2.3659 H         1 <0>         0.1219
     54 H20         8.7976    4.9487    2.8634 H         1 <0>         0.0854
     55 H21         8.6923    6.7231    2.9570 H         1 <0>         0.0705
     56 H22         7.3758    5.7919    2.2034 H         1 <0>         0.0777
     57 H23        11.9325    5.2403    2.5673 H         1 <0>         0.0753
     58 H24        12.8885    6.5446    3.1151 H         1 <0>         0.0955
     59 H25        11.4105    6.0517    3.9759 H         1 <0>         0.0983
     60 H26        12.2766    8.3763   -0.5184 H         1 <0>         0.0796
     61 H27        12.9768    7.0599    0.4539 H         1 <0>         0.0671
     62 H28        12.9007    6.9138   -1.3184 H         1 <0>         0.0768
@<TRIPOS>BOND
     1    1    2 1
     2    1   35 1
     3    1   36 1
     4    1   37 1
     5    2    7 ar
     6    2    3 ar
     7    3    4 ar
     8    3   38 1
     9    4    5 ar
    10    4   34 1
    11    5    6 ar
    12    5   31 1
    13    6    7 ar
    14    6   30 1
    15    7    8 1
    16    8    9 1
    17    8   39 1
    18    8   40 1
    19    9   10 1
    20   10   18 1
    21   10   11 2
    22   11   12 1
    23   12   17 ar
    24   12   13 ar
    25   13   14 ar
    26   13   41 1
    27   14   15 ar
    28   14   42 1
    29   15   16 ar
    30   15   19 1
    31   16   17 ar
    32   16   43 1
    33   17   18 1
    34   19   20 am
    35   19   44 1
    36   20   21 2
    37   20   22 1
    38   22   23 1
    39   22   45 1
    40   22   46 1
    41   23   24 1
    42   23   47 1
    43   23   48 1
    44   24   29 ar
    45   24   25 ar
    46   25   26 ar
    47   25   49 1
    48   26   27 ar
    49   26   50 1
    50   27   28 ar
    51   27   51 1
    52   28   29 ar
    53   28   52 1
    54   29   53 1
    55   30   54 1
    56   30   55 1
    57   30   56 1
    58   31   32 2
    59   31   33 1
    60   33   57 1
    61   33   58 1
    62   33   59 1
    63   34   60 1
    64   34   61 1
    65   34   62 1
@<TRIPOS>MOLECULE
ZINC00985584
   49    52     0     0     0
SMALL
USER_CHARGES

@<TRIPOS>ATOM
      1 C1         -0.0184    1.5028    0.0103 C.3       1 <0>        -0.1185
      2 C2          0.0021   -0.0041    0.0020 C.ar      1 <0>        -0.0720
      3 C3          0.0057   -0.6865   -1.2011 C.ar      1 <0>        -0.1221
      4 C4          0.0249   -2.0666   -1.2145 C.ar      1 <0>        -0.0817
      5 C5          0.0405   -2.7722   -0.0132 C.ar      1 <0>        -0.0233
      6 C6          0.0368   -2.0797    1.1957 C.ar      1 <0>        -0.0856
      7 C7          0.0229   -0.6995    1.1975 C.ar      1 <0>        -0.1207
      8 C8          0.0607   -4.2562   -0.0214 C.2       1 <0>         0.1630
      9 C9          0.7203   -5.0750    0.9001 C.2       1 <0>        -0.2444
     10 C10         0.4944   -6.3742    0.5484 C.2       1 <0>         0.2720
     11 N1         -0.2794   -6.3716   -0.5569 N.pl3     1 <0>        -0.4467
     12 H1         -0.5988   -7.1551   -1.0313 H         1 <0>         0.4476
     13 N2         -0.5456   -5.0360   -0.8963 N.2       1 <0>        -0.2521
     14 O1          0.9987   -7.4207    1.2488 O.3       1 <0>        -0.2305
     15 C11         1.5100   -7.1664    2.4704 C.2       1 <0>         0.4337
     16 C12         1.7879   -5.9245    2.9257 C.2       1 <0>        -0.2524
     17 C13         1.5532   -4.6877    2.0946 C.3       1 <0>         0.1256
     18 H2          1.0226   -3.9422    2.6868 H         1 <0>         0.0935
     19 C14         2.8735   -4.1263    1.6335 C.ar      1 <0>        -0.1284
     20 C15         3.7240   -4.9032    0.8685 C.ar      1 <0>        -0.0509
     21 C16         4.9347   -4.3919    0.4442 C.ar      1 <0>        -0.1946
     22 C17         5.2977   -3.0955    0.7868 C.ar      1 <0>         0.2140
     23 C18         4.4409   -2.3178    1.5554 C.ar      1 <0>        -0.1938
     24 C19         3.2292   -2.8335    1.9716 C.ar      1 <0>        -0.0562
     25 N3          6.5216   -2.5753    0.3598 N.pl3     1 <0>        -0.6397
     26 C20         7.4242   -3.3971   -0.4503 C.3       1 <0>         0.0967
     27 C21         6.9028   -1.2080    0.7221 C.3       1 <0>         0.0932
     28 C22         2.3246   -5.7775    4.2451 C.1       1 <0>         0.2725
     29 N4          2.7504   -5.6608    5.2918 N.1       1 <0>        -0.4393
     30 N5          1.7626   -8.2306    3.2999 N.pl3     1 <0>        -0.8325
     31 H3          1.0042    1.8801    0.0026 H         1 <0>         0.0721
     32 H4         -0.5455    1.8639   -0.8728 H         1 <0>         0.0671
     33 H5         -0.5286    1.8543    0.9071 H         1 <0>         0.0677
     34 H6         -0.0068   -0.1386   -2.1317 H         1 <0>         0.1246
     35 H7          0.0274   -2.5985   -2.1544 H         1 <0>         0.1261
     36 H8          0.0485   -2.6218    2.1297 H         1 <0>         0.1281
     37 H9          0.0244   -0.1616    2.1340 H         1 <0>         0.1264
     38 H10         3.4414   -5.9112    0.6028 H         1 <0>         0.1093
     39 H11         5.5987   -4.9993   -0.1529 H         1 <0>         0.1169
     40 H12         4.7203   -1.3097    1.8238 H         1 <0>         0.1203
     41 H13         2.5607   -2.2279    2.5655 H         1 <0>         0.1188
     42 H14         6.9230   -3.6839   -1.3748 H         1 <0>         0.0527
     43 H15         8.3223   -2.8262   -0.6859 H         1 <0>         0.0718
     44 H16         7.6988   -4.2927    0.1070 H         1 <0>         0.0526
     45 H17         7.4452   -1.2203    1.6674 H         1 <0>         0.0469
     46 H18         7.5402   -0.7900   -0.0571 H         1 <0>         0.0652
     47 H19         6.0066   -0.5962    0.8254 H         1 <0>         0.0688
     48 H20         1.5733   -9.1339    3.0013 H         1 <0>         0.4107
     49 H21         2.1304   -8.0793    4.1846 H         1 <0>         0.4276
@<TRIPOS>BOND
     1    1    2 1
     2    1   31 1
     3    1   32 1
     4    1   33 1
     5    2    7 ar
     6    2    3 ar
     7    3    4 ar
     8    3   34 1
     9    4    5 ar
    10    4   35 1
    11    5    6 ar
    12    5    8 1
    13    6    7 ar
    14    6   36 1
    15    7   37 1
    16    8   13 2
    17    8    9 1
    18    9   17 1
    19    9   10 2
    20   10   11 1
    21   10   14 1
    22   11   12 1
    23   11   13 1
    24   14   15 1
    25   15   16 2
    26   15   30 1
    27   16   17 1
    28   16   28 1
    29   17   18 1
    30   17   19 1
    31   19   24 ar
    32   19   20 ar
    33   20   21 ar
    34   20   38 1
    35   21   22 ar
    36   21   39 1
    37   22   23 ar
    38   22   25 1
    39   23   24 ar
    40   23   40 1
    41   24   41 1
    42   25   26 1
    43   25   27 1
    44   26   42 1
    45   26   43 1
    46   26   44 1
    47   27   45 1
    48   27   46 1
    49   27   47 1
    50   28   29 3
    51   30   48 1
    52   30   49 1
@<TRIPOS>MOLECULE
ZINC00985585
   49    52     0     0     0
SMALL
USER_CHARGES

@<TRIPOS>ATOM
      1 C1         -0.8819    1.0477   -0.3772 C.3       1 <0>        -0.1184
      2 C2         -0.6715   -0.4403   -0.2641 C.ar      1 <0>        -0.0726
      3 C3          0.6078   -0.9466   -0.1223 C.ar      1 <0>        -0.1202
      4 C4          0.8061   -2.3085   -0.0178 C.ar      1 <0>        -0.0852
      5 C5         -0.2853   -3.1737   -0.0553 C.ar      1 <0>        -0.0223
      6 C6         -1.5718   -2.6583   -0.1982 C.ar      1 <0>        -0.0815
      7 C7         -1.7591   -1.2944   -0.2966 C.ar      1 <0>        -0.1213
      8 C8         -0.0781   -4.6391    0.0561 C.2       1 <0>         0.1629
      9 C9          0.7998   -5.2813    0.9345 C.2       1 <0>        -0.2438
     10 C10         0.6963   -6.6263    0.7270 C.2       1 <0>         0.2714
     11 N1         -0.2164   -6.8223   -0.2472 N.pl3     1 <0>        -0.4470
     12 H1         -0.4961   -7.6805   -0.6023 H         1 <0>         0.4476
     13 N2         -0.6942   -5.5663   -0.6523 N.2       1 <0>        -0.2512
     14 O1          1.4253   -7.5330    1.4245 O.3       1 <0>        -0.2305
     15 C11         2.4662   -7.0738    2.1483 C.2       1 <0>         0.4336
     16 C12         2.6679   -5.7675    2.4305 C.2       1 <0>        -0.2522
     17 C13         1.7295   -4.6846    1.9592 C.3       1 <0>         0.1266
     18 H2          2.3013   -3.8733    1.5088 H         1 <0>         0.0930
     19 C14         0.9318   -4.1595    3.1249 C.ar      1 <0>        -0.1275
     20 C15         0.0741   -5.0013    3.8090 C.ar      1 <0>        -0.0512
     21 C16        -0.6584   -4.5233    4.8777 C.ar      1 <0>        -0.1944
     22 C17        -0.5329   -3.1953    5.2653 C.ar      1 <0>         0.2138
     23 C18         0.3296   -2.3524    4.5759 C.ar      1 <0>        -0.1936
     24 C19         1.0634   -2.8383    3.5116 C.ar      1 <0>        -0.0565
     25 N3         -1.2726   -2.7085    6.3455 N.pl3     1 <0>        -0.6398
     26 C20        -2.1821   -3.5987    7.0711 C.3       1 <0>         0.0968
     27 C21        -1.1389   -1.3076    6.7528 C.3       1 <0>         0.0933
     28 C22         3.8136   -5.3981    3.2061 C.1       1 <0>         0.2726
     29 N4          4.7225   -5.1051    3.8213 N.1       1 <0>        -0.4397
     30 N5          3.3741   -7.9860    2.6259 N.pl3     1 <0>        -0.8326
     31 H3         -1.0150    1.4725    0.6178 H         1 <0>         0.0721
     32 H4         -0.0130    1.5023   -0.8530 H         1 <0>         0.0676
     33 H5         -1.7697    1.2445   -0.9781 H         1 <0>         0.0670
     34 H6          1.4532   -0.2750   -0.0937 H         1 <0>         0.1263
     35 H7          1.8055   -2.7027    0.0925 H         1 <0>         0.1269
     36 H8         -2.4212   -3.3246   -0.2283 H         1 <0>         0.1250
     37 H9         -2.7563   -0.8935   -0.4029 H         1 <0>         0.1244
     38 H10        -0.0233   -6.0336    3.5069 H         1 <0>         0.1091
     39 H11        -1.3284   -5.1812    5.4114 H         1 <0>         0.1168
     40 H12         0.4293   -1.3193    4.8745 H         1 <0>         0.1202
     41 H13         1.7375   -2.1847    2.9780 H         1 <0>         0.1185
     42 H14        -1.6173   -4.4304    7.4922 H         1 <0>         0.0523
     43 H15        -2.6677   -3.0454    7.8748 H         1 <0>         0.0718
     44 H16        -2.9379   -3.9827    6.3860 H         1 <0>         0.0529
     45 H17        -1.8682   -0.7017    6.2152 H         1 <0>         0.0474
     46 H18        -1.3156   -1.2226    7.8251 H         1 <0>         0.0650
     47 H19        -0.1334   -0.9563    6.5213 H         1 <0>         0.0683
     48 H20         3.2563   -8.9306    2.4396 H         1 <0>         0.4106
     49 H21         4.1333   -7.6860    3.1498 H         1 <0>         0.4275
@<TRIPOS>BOND
     1    1    2 1
     2    1   31 1
     3    1   32 1
     4    1   33 1
     5    2    7 ar
     6    2    3 ar
     7    3    4 ar
     8    3   34 1
     9    4    5 ar
    10    4   35 1
    11    5    6 ar
    12    5    8 1
    13    6    7 ar
    14    6   36 1
    15    7   37 1
    16    8   13 2
    17    8    9 1
    18    9   17 1
    19    9   10 2
    20   10   11 1
    21   10   14 1
    22   11   12 1
    23   11   13 1
    24   14   15 1
    25   15   16 2
    26   15   30 1
    27   16   17 1
    28   16   28 1
    29   17   18 1
    30   17   19 1
    31   19   24 ar
    32   19   20 ar
    33   20   21 ar
    34   20   38 1
    35   21   22 ar
    36   21   39 1
    37   22   23 ar
    38   22   25 1
    39   23   24 ar
    40   23   40 1
    41   24   41 1
    42   25   26 1
    43   25   27 1
    44   26   42 1
    45   26   43 1
    46   26   44 1
    47   27   45 1
    48   27   46 1
    49   27   47 1
    50   28   29 3
    51   30   48 1
    52   30   49 1
@<TRIPOS>MOLECULE
ZINC02701385
   57    59     0     0     0
SMALL
USER_CHARGES
1-[2-[3-(4-benzyl-1-piperidyl)-2-hydroxy-propoxy]phenyl]ethanone
@<TRIPOS>ATOM
      1 C1          4.3387   -0.4015   -4.5382 C.3       1 <0>        -0.1937
      2 C2          3.5312    0.1124   -3.3742 C.2       1 <0>         0.3929
      3 O1          2.3811   -0.2449   -3.2291 O.2       1 <0>        -0.4437
      4 C3          4.1363    1.0453   -2.4161 C.ar      1 <0>        -0.2002
      5 C4          5.4633    1.4612   -2.5794 C.ar      1 <0>        -0.0333
      6 C5          6.0237    2.3368   -1.6768 C.ar      1 <0>        -0.1617
      7 C6          5.2808    2.8094   -0.6060 C.ar      1 <0>        -0.0447
      8 C7          3.9696    2.4130   -0.4349 C.ar      1 <0>        -0.2254
      9 C8          3.3881    1.5271   -1.3296 C.ar      1 <0>         0.1741
     10 O2          2.1020    1.1326   -1.1595 O.3       1 <0>        -0.2716
     11 C9          1.4040    1.6644   -0.0316 C.3       1 <0>         0.0230
     12 C10        -0.0216    1.1096   -0.0060 C.3       1 <0>         0.0859
     13 H1          0.0121    0.0203   -0.0221 H         1 <0>         0.1364
     14 C11        -0.7288    1.5792    1.2668 C.3       1 <0>        -0.0379
     15 C12        -2.1345   -0.3798    1.0503 C.3       1 <0>        -0.0104
     16 C13        -3.5852   -0.8501    0.9226 C.3       1 <0>        -0.1443
     17 C14        -4.3446   -0.5009    2.2056 C.3       1 <0>        -0.0943
     18 C15        -4.2596    1.0091    2.4447 C.3       1 <0>        -0.1439
     19 C16        -2.7894    1.4255    2.5282 C.3       1 <0>        -0.0004
     20 C17        -5.8107   -0.9142    2.0620 C.3       1 <0>        -0.0743
     21 C18        -5.9011   -2.4143    1.9497 C.ar      1 <0>        -0.0955
     22 C19        -5.8552   -3.0183    0.7071 C.ar      1 <0>        -0.1206
     23 C20        -5.9337   -4.3946    0.6043 C.ar      1 <0>        -0.1158
     24 C21        -6.0677   -5.1662    1.7434 C.ar      1 <0>        -0.1160
     25 C22        -6.1184   -4.5618    2.9856 C.ar      1 <0>        -0.1143
     26 C23        -6.0356   -3.1858    3.0887 C.ar      1 <0>        -0.1163
     27 O3         -0.7368    1.5809   -1.1499 O.3       1 <0>        -0.5389
     28 H2          4.8094   -1.2426   -4.2718 H         1 <0>         0.0885
     29 H3          3.6751   -0.6069   -5.3783 H         1 <0>         0.0906
     30 H4          5.0732    0.3490   -4.8304 H         1 <0>         0.0865
     31 H5          6.0461    1.0961   -3.4122 H         1 <0>         0.1450
     32 H6          7.0472    2.6573   -1.8037 H         1 <0>         0.1369
     33 H7          5.7295    3.4963    0.0963 H         1 <0>         0.1342
     34 H8          3.3969    2.7902    0.3995 H         1 <0>         0.1305
     35 H9          1.3696    2.7514   -0.1052 H         1 <0>         0.0774
     36 H10         1.9217    1.3784    0.8840 H         1 <0>         0.0819
     37 H11        -0.1956    1.2015    2.1392 H         1 <0>         0.1444
     38 H12        -0.7434    2.6688    1.2935 H         1 <0>         0.1358
     39 H13        -1.5947   -0.6141    0.1328 H         1 <0>         0.1347
     40 H14        -1.6606   -0.8878    1.8902 H         1 <0>         0.1296
     41 H15        -3.6058   -1.9291    0.7698 H         1 <0>         0.1157
     42 H16        -4.0557   -0.3527    0.0745 H         1 <0>         0.0899
     43 H17        -3.8981   -1.0288    3.0482 H         1 <0>         0.0903
     44 H18        -4.7621    1.2584    3.3793 H         1 <0>         0.1141
     45 H19        -4.7407    1.5357    1.6205 H         1 <0>         0.0900
     46 H20        -2.3124    0.9090    3.3612 H         1 <0>         0.1305
     47 H21        -2.7253    2.5024    2.6841 H         1 <0>         0.1287
     48 H22        -6.3694   -0.5810    2.9367 H         1 <0>         0.0828
     49 H23        -6.2311   -0.4567    1.1664 H         1 <0>         0.0787
     50 H24        -5.7546   -2.4152   -0.1831 H         1 <0>         0.1201
     51 H25        -5.8938   -4.8668   -0.3661 H         1 <0>         0.1248
     52 H26        -6.1325   -6.2412    1.6629 H         1 <0>         0.1253
     53 H27        -6.2231   -5.1647    3.8756 H         1 <0>         0.1251
     54 H28        -6.0755   -2.7136    4.0592 H         1 <0>         0.1212
     55 H29        -0.8063    2.5441   -1.2009 H         1 <0>         0.3873
     56 N1         -2.1209    1.0843    1.2543 N.4       1 <0>        -0.3866
     57 H30        -2.6273    1.5328    0.4819 H         1 <0>         0.4311
@<TRIPOS>BOND
     1    1    2 1
     2    1   28 1
     3    1   29 1
     4    1   30 1
     5    2    3 2
     6    2    4 1
     7    4    9 ar
     8    4    5 ar
     9    5    6 ar
    10    5   31 1
    11    6    7 ar
    12    6   32 1
    13    7    8 ar
    14    7   33 1
    15    8    9 ar
    16    8   34 1
    17    9   10 1
    18   10   11 1
    19   11   12 1
    20   11   35 1
    21   11   36 1
    22   12   13 1
    23   12   14 1
    24   12   27 1
    25   14   37 1
    26   14   38 1
    27   14   56 1
    28   15   16 1
    29   15   39 1
    30   15   40 1
    31   15   56 1
    32   16   17 1
    33   16   41 1
    34   16   42 1
    35   17   18 1
    36   17   20 1
    37   17   43 1
    38   18   19 1
    39   18   44 1
    40   18   45 1
    41   19   46 1
    42   19   47 1
    43   19   56 1
    44   20   21 1
    45   20   48 1
    46   20   49 1
    47   21   26 ar
    48   21   22 ar
    49   22   23 ar
    50   22   50 1
    51   23   24 ar
    52   23   51 1
    53   24   25 ar
    54   24   52 1
    55   25   26 ar
    56   25   53 1
    57   26   54 1
    58   27   55 1
    59   56   57 1
@<TRIPOS>MOLECULE
ZINC02701387
   57    59     0     0     0
SMALL
USER_CHARGES
1-[2-[3-(4-benzyl-1-piperidyl)-2-hydroxy-propoxy]phenyl]ethanone
@<TRIPOS>ATOM
      1 C1          9.5264    3.5603   -0.0365 C.3       1 <0>        -0.1940
      2 C2          8.1149    3.0335   -0.0015 C.2       1 <0>         0.3925
      3 O1          7.4273    3.2062    0.9828 O.2       1 <0>        -0.4446
      4 C3          7.5720    2.3115   -1.1585 C.ar      1 <0>        -0.2002
      5 C4          8.3617    2.1092   -2.2969 C.ar      1 <0>        -0.0338
      6 C5          7.8456    1.4307   -3.3779 C.ar      1 <0>        -0.1617
      7 C6          6.5471    0.9461   -3.3457 C.ar      1 <0>        -0.0446
      8 C7          5.7582    1.1327   -2.2282 C.ar      1 <0>        -0.2255
      9 C8          6.2572    1.8186   -1.1309 C.ar      1 <0>         0.1742
     10 O2          5.4815    2.0075   -0.0349 O.3       1 <0>        -0.2715
     11 C9          4.1550    1.4779   -0.0799 C.3       1 <0>         0.0231
     12 C10         3.4377    1.7869    1.2358 C.3       1 <0>         0.0870
     13 H1          4.0288    1.4081    2.0696 H         1 <0>         0.1348
     14 C11         2.0636    1.1140    1.2377 C.3       1 <0>        -0.0386
     15 C12        -0.0379    1.0052    2.4345 C.3       1 <0>        -0.0003
     16 C13        -0.7645    1.4722    3.6978 C.3       1 <0>        -0.1472
     17 C14        -0.0833    0.8641    4.9269 C.3       1 <0>        -0.0936
     18 C15         1.3915    1.2756    4.9391 C.3       1 <0>        -0.1430
     19 C16         2.0557    0.8143    3.6399 C.3       1 <0>        -0.0064
     20 C17        -0.7670    1.3743    6.1969 C.3       1 <0>        -0.0750
     21 C18        -2.1847    0.8653    6.2433 C.ar      1 <0>        -0.0947
     22 C19        -3.2048    1.6087    5.6795 C.ar      1 <0>        -0.1215
     23 C20        -4.5046    1.1397    5.7182 C.ar      1 <0>        -0.1163
     24 C21        -4.7857   -0.0680    6.3291 C.ar      1 <0>        -0.1163
     25 C22        -3.7663   -0.8091    6.8970 C.ar      1 <0>        -0.1138
     26 C23        -2.4659   -0.3422    6.8546 C.ar      1 <0>        -0.1160
     27 O3          3.2760    3.2004    1.3697 O.3       1 <0>        -0.5389
     28 H2          9.9458    3.3316   -0.9150 H         1 <0>         0.0741
     29 H3          9.5134    4.6429    0.0890 H         1 <0>         0.0964
     30 H4         10.1031    3.1079    0.7702 H         1 <0>         0.0961
     31 H5          9.3740    2.4844   -2.3268 H         1 <0>         0.1458
     32 H6          8.4555    1.2747   -4.2555 H         1 <0>         0.1369
     33 H7          6.1517    0.4148   -4.1987 H         1 <0>         0.1343
     34 H8          4.7494    0.7476   -2.2101 H         1 <0>         0.1306
     35 H9          4.1995    0.3985   -0.2247 H         1 <0>         0.0822
     36 H10         3.6098    1.9333   -0.9066 H         1 <0>         0.0776
     37 H11         1.4767    1.4840    0.3970 H         1 <0>         0.1362
     38 H12         2.1874    0.0348    1.1474 H         1 <0>         0.1447
     39 H13        -0.5117    1.4478    1.5584 H         1 <0>         0.1279
     40 H14        -0.0908   -0.0814    2.3658 H         1 <0>         0.1302
     41 H15        -1.8045    1.1479    3.6604 H         1 <0>         0.1163
     42 H16        -0.7239    2.5597    3.7600 H         1 <0>         0.0893
     43 H17        -0.1579   -0.2225    4.8844 H         1 <0>         0.0905
     44 H18         1.8920    0.8109    5.7886 H         1 <0>         0.1142
     45 H19         1.4661    2.3600    5.0208 H         1 <0>         0.0912
     46 H20         1.9929   -0.2714    3.5655 H         1 <0>         0.1308
     47 H21         3.1024    1.1183    3.6392 H         1 <0>         0.1304
     48 H22        -0.2236    1.0160    7.0712 H         1 <0>         0.0835
     49 H23        -0.7722    2.4643    6.1940 H         1 <0>         0.0790
     50 H24        -2.9857    2.5543    5.2059 H         1 <0>         0.1196
     51 H25        -5.3009    1.7186    5.2741 H         1 <0>         0.1244
     52 H26        -5.8017   -0.4328    6.3622 H         1 <0>         0.1253
     53 H27        -3.9860   -1.7527    7.3743 H         1 <0>         0.1253
     54 H28        -1.6696   -0.9210    7.2986 H         1 <0>         0.1216
     55 H29         2.7587    3.6060    0.6605 H         1 <0>         0.3877
     56 N1          1.3694    1.4536    2.4970 N.4       1 <0>        -0.3883
     57 H30         1.3890    2.4722    2.6242 H         1 <0>         0.4321
@<TRIPOS>BOND
     1    1    2 1
     2    1   28 1
     3    1   29 1
     4    1   30 1
     5    2    3 2
     6    2    4 1
     7    4    9 ar
     8    4    5 ar
     9    5    6 ar
    10    5   31 1
    11    6    7 ar
    12    6   32 1
    13    7    8 ar
    14    7   33 1
    15    8    9 ar
    16    8   34 1
    17    9   10 1
    18   10   11 1
    19   11   12 1
    20   11   35 1
    21   11   36 1
    22   12   13 1
    23   12   14 1
    24   12   27 1
    25   14   37 1
    26   14   38 1
    27   14   56 1
    28   15   16 1
    29   15   39 1
    30   15   40 1
    31   15   56 1
    32   16   17 1
    33   16   41 1
    34   16   42 1
    35   17   18 1
    36   17   20 1
    37   17   43 1
    38   18   19 1
    39   18   44 1
    40   18   45 1
    41   19   46 1
    42   19   47 1
    43   19   56 1
    44   20   21 1
    45   20   48 1
    46   20   49 1
    47   21   26 ar
    48   21   22 ar
    49   22   23 ar
    50   22   50 1
    51   23   24 ar
    52   23   51 1
    53   24   25 ar
    54   24   52 1
    55   25   26 ar
    56   25   53 1
    57   26   54 1
    58   27   55 1
    59   56   57 1
@<TRIPOS>MOLECULE
ZINC03666293
   58    61     0     0     0
SMALL
USER_CHARGES
3-(4-ethylphenyl)-2-(4-isobutoxyphenyl)-1,2-dihydroquinazolin-4-one
@<TRIPOS>ATOM
      1 C1          1.2147    6.1908    0.6737 C.3       1 <0>        -0.1483
      2 C2         -0.0731    5.6678    0.0341 C.3       1 <0>        -0.0858
      3 C3         -0.0536    4.1610    0.0254 C.ar      1 <0>        -0.0816
      4 C4         -0.5734    3.4580    1.0967 C.ar      1 <0>        -0.1029
      5 C5         -0.5567    2.0771    1.0921 C.ar      1 <0>        -0.1242
      6 C6         -0.0169    1.3943    0.0097 C.ar      1 <0>         0.1359
      7 C7          0.5092    2.1034   -1.0624 C.ar      1 <0>        -0.1023
      8 C8          0.4846    3.4842   -1.0538 C.ar      1 <0>        -0.1030
      9 N1          0.0021   -0.0041    0.0020 N.am      1 <0>        -0.5743
     10 C9         -1.2565   -0.7405    0.1212 C.3       1 <0>         0.4336
     11 H1         -1.9793   -0.1339    0.6669 H         1 <0>         0.1148
     12 N2         -1.0428   -2.0008    0.8416 N.pl3     1 <0>        -0.7467
     13 C10         0.0739   -2.7687    0.5305 C.ar      1 <0>         0.2383
     14 C11         0.0756   -4.1456    0.6772 C.ar      1 <0>        -0.1827
     15 C12         1.2130   -4.8653    0.3652 C.ar      1 <0>        -0.0504
     16 C13         2.3513   -4.2203   -0.0927 C.ar      1 <0>        -0.1710
     17 C14         2.3649   -2.8498   -0.2484 C.ar      1 <0>        -0.0201
     18 C15         1.2234   -2.1121    0.0577 C.ar      1 <0>        -0.1981
     19 C16         1.1791   -0.6496   -0.1206 C.2       1 <0>         0.5763
     20 O1          2.1951   -0.0304   -0.3722 O.2       1 <0>        -0.5166
     21 C17        -1.7930   -1.0375   -1.2554 C.ar      1 <0>        -0.1692
     22 C18        -1.5291   -0.1717   -2.3006 C.ar      1 <0>        -0.0591
     23 C19        -2.0150   -0.4447   -3.5647 C.ar      1 <0>        -0.2098
     24 C20        -2.7781   -1.5826   -3.7824 C.ar      1 <0>         0.1429
     25 C21        -3.0462   -2.4468   -2.7308 C.ar      1 <0>        -0.1550
     26 C22        -2.5529   -2.1725   -1.4699 C.ar      1 <0>        -0.0486
     27 O2         -3.2626   -1.8500   -5.0236 O.3       1 <0>        -0.3113
     28 C23        -2.9470   -0.9163   -6.0583 C.3       1 <0>         0.0621
     29 C24        -3.5738   -1.3818   -7.3741 C.3       1 <0>        -0.0948
     30 C25        -5.0986   -1.3504   -7.2518 C.3       1 <0>        -0.1478
     31 C26        -3.1336   -0.4514   -8.5061 C.3       1 <0>        -0.1475
     32 H2          2.0731    5.8419    0.0998 H         1 <0>         0.0565
     33 H3          1.2005    7.2807    0.6800 H         1 <0>         0.0590
     34 H4          1.2877    5.8225    1.6970 H         1 <0>         0.0559
     35 H5         -0.1461    6.0362   -0.9892 H         1 <0>         0.0729
     36 H6         -0.9315    6.0167    0.6080 H         1 <0>         0.0728
     37 H7         -0.9934    3.9895    1.9379 H         1 <0>         0.1272
     38 H8         -0.9626    1.5287    1.9293 H         1 <0>         0.1242
     39 H9          0.9334    1.5755   -1.9037 H         1 <0>         0.1258
     40 H10         0.8899    4.0361   -1.8890 H         1 <0>         0.1269
     41 H11        -1.6692   -2.2931    1.5221 H         1 <0>         0.4157
     42 H12        -0.8076   -4.6544    1.0342 H         1 <0>         0.1305
     43 H13         1.2153   -5.9392    0.4791 H         1 <0>         0.1294
     44 H14         3.2343   -4.7953   -0.3296 H         1 <0>         0.1290
     45 H15         3.2544   -2.3520   -0.6056 H         1 <0>         0.1349
     46 H16        -0.9393    0.7167   -2.1295 H         1 <0>         0.1298
     47 H17        -1.8052    0.2299   -4.3816 H         1 <0>         0.1283
     48 H18        -3.6403   -3.3332   -2.8977 H         1 <0>         0.1326
     49 H19        -2.7613   -2.8450   -0.6510 H         1 <0>         0.1305
     50 H20        -3.3417    0.0650   -5.7950 H         1 <0>         0.0634
     51 H21        -1.8649   -0.8537   -6.1735 H         1 <0>         0.0625
     52 H22        -3.2477   -2.3988   -7.5921 H         1 <0>         0.0818
     53 H23        -5.5452   -1.6820   -8.1891 H         1 <0>         0.0582
     54 H24        -5.4122   -2.0132   -6.4453 H         1 <0>         0.0621
     55 H25        -5.4247   -0.3334   -7.0338 H         1 <0>         0.0542
     56 H26        -2.0474   -0.4738   -8.5932 H         1 <0>         0.0582
     57 H27        -3.5802   -0.7831   -9.4434 H         1 <0>         0.0664
     58 H28        -3.4597    0.5656   -8.2881 H         1 <0>         0.0584
@<TRIPOS>BOND
     1    1    2 1
     2    1   32 1
     3    1   33 1
     4    1   34 1
     5    2    3 1
     6    2   35 1
     7    2   36 1
     8    3    8 ar
     9    3    4 ar
    10    4    5 ar
    11    4   37 1
    12    5    6 ar
    13    5   38 1
    14    6    7 ar
    15    6    9 1
    16    7    8 ar
    17    7   39 1
    18    8   40 1
    19    9   19 am
    20    9   10 1
    21   10   11 1
    22   10   12 1
    23   10   21 1
    24   12   13 1
    25   12   41 1
    26   13   18 ar
    27   13   14 ar
    28   14   15 ar
    29   14   42 1
    30   15   16 ar
    31   15   43 1
    32   16   17 ar
    33   16   44 1
    34   17   18 ar
    35   17   45 1
    36   18   19 1
    37   19   20 2
    38   21   26 ar
    39   21   22 ar
    40   22   23 ar
    41   22   46 1
    42   23   24 ar
    43   23   47 1
    44   24   25 ar
    45   24   27 1
    46   25   26 ar
    47   25   48 1
    48   26   49 1
    49   27   28 1
    50   28   29 1
    51   28   50 1
    52   28   51 1
    53   29   30 1
    54   29   31 1
    55   29   52 1
    56   30   53 1
    57   30   54 1
    58   30   55 1
    59   31   56 1
    60   31   57 1
    61   31   58 1
@<TRIPOS>MOLECULE
ZINC03666294
   58    61     0     0     0
SMALL
USER_CHARGES
3-(4-ethylphenyl)-2-(4-isobutoxyphenyl)-1,2-dihydroquinazolin-4-one
@<TRIPOS>ATOM
      1 C1         -1.0155    0.3796   -0.9058 C.3       1 <0>        -0.1482
      2 C2         -0.0124    1.0870    0.0077 C.3       1 <0>        -0.0858
      3 C3         -0.7179    1.5726    1.2477 C.ar      1 <0>        -0.0816
      4 C4         -1.2750    2.8380    1.2737 C.ar      1 <0>        -0.1029
      5 C5         -1.9271    3.2839    2.4065 C.ar      1 <0>        -0.1245
      6 C6         -2.0132    2.4641    3.5244 C.ar      1 <0>         0.1362
      7 C7         -1.4476    1.1959    3.4970 C.ar      1 <0>        -0.1022
      8 C8         -0.8018    0.7539    2.3590 C.ar      1 <0>        -0.1029
      9 N1         -2.6675    2.9150    4.6753 N.am      1 <0>        -0.5741
     10 C9         -2.2096    4.1415    5.3284 C.3       1 <0>         0.4335
     11 H1         -1.7389    4.7898    4.5892 H         1 <0>         0.1147
     12 N2         -3.3426    4.8475    5.9375 N.pl3     1 <0>        -0.7469
     13 C10        -4.2901    4.1117    6.6406 C.ar      1 <0>         0.2382
     14 C11        -5.0095    4.6617    7.6881 C.ar      1 <0>        -0.1827
     15 C12        -5.9480    3.8941    8.3506 C.ar      1 <0>        -0.0503
     16 C13        -6.1758    2.5796    7.9742 C.ar      1 <0>        -0.1710
     17 C14        -5.4649    2.0153    6.9356 C.ar      1 <0>        -0.0198
     18 C15        -4.5115    2.7761    6.2623 C.ar      1 <0>        -0.1982
     19 C16        -3.7123    2.2147    5.1601 C.2       1 <0>         0.5762
     20 O1         -3.9903    1.1261    4.6945 O.2       1 <0>        -0.5169
     21 C17        -1.2061    3.7928    6.3973 C.ar      1 <0>        -0.1689
     22 C18        -0.4092    2.6718    6.2565 C.ar      1 <0>        -0.0588
     23 C19         0.5154    2.3531    7.2322 C.ar      1 <0>        -0.2099
     24 C20         0.6356    3.1525    8.3597 C.ar      1 <0>         0.1430
     25 C21        -0.1691    4.2737    8.5013 C.ar      1 <0>        -0.1551
     26 C22        -1.0879    4.5914    7.5198 C.ar      1 <0>        -0.0486
     27 O2          1.5399    2.8376    9.3240 O.3       1 <0>        -0.3113
     28 C23         2.3347    1.6692    9.1115 C.3       1 <0>         0.0621
     29 C24         3.2868    1.4780   10.2937 C.3       1 <0>        -0.0948
     30 C25         4.0490    0.1618   10.1271 C.3       1 <0>        -0.1475
     31 C26         4.2806    2.6403   10.3414 C.3       1 <0>        -0.1478
     32 H2         -1.8054    1.0762   -1.1864 H         1 <0>         0.0559
     33 H3         -0.5052    0.0284   -1.8026 H         1 <0>         0.0590
     34 H4         -1.4504   -0.4698   -0.3790 H         1 <0>         0.0565
     35 H5          0.7775    0.3904    0.2884 H         1 <0>         0.0729
     36 H6          0.4224    1.9364   -0.5191 H         1 <0>         0.0728
     37 H7         -1.2039    3.4766    0.4056 H         1 <0>         0.1272
     38 H8         -2.3662    4.2704    2.4245 H         1 <0>         0.1241
     39 H9         -1.5125    0.5562    4.3647 H         1 <0>         0.1257
     40 H10        -0.3615   -0.2320    2.3372 H         1 <0>         0.1269
     41 H11        -3.4289    5.8098    5.8515 H         1 <0>         0.4157
     42 H12        -4.8374    5.6853    7.9862 H         1 <0>         0.1305
     43 H13        -6.5088    4.3217    9.1686 H         1 <0>         0.1294
     44 H14        -6.9155    1.9926    8.4985 H         1 <0>         0.1290
     45 H15        -5.6463    0.9908    6.6460 H         1 <0>         0.1349
     46 H16        -0.5068    2.0469    5.3810 H         1 <0>         0.1299
     47 H17         1.1404    1.4796    7.1199 H         1 <0>         0.1283
     48 H18        -0.0771    4.8978    9.3779 H         1 <0>         0.1325
     49 H19        -1.7146    5.4641    7.6295 H         1 <0>         0.1305
     50 H20         1.6846    0.7986    9.0240 H         1 <0>         0.0625
     51 H21         2.9126    1.7847    8.1945 H         1 <0>         0.0634
     52 H22         2.7141    1.4514   11.2208 H         1 <0>         0.0818
     53 H23         4.6216    0.1885    9.2000 H         1 <0>         0.0584
     54 H24         4.7273    0.0256   10.9694 H         1 <0>         0.0664
     55 H25         3.3410   -0.6662   10.0932 H         1 <0>         0.0582
     56 H26         4.8532    2.6669    9.4143 H         1 <0>         0.0542
     57 H27         3.7376    3.5780   10.4601 H         1 <0>         0.0621
     58 H28         4.9589    2.5041   11.1836 H         1 <0>         0.0583
@<TRIPOS>BOND
     1    1    2 1
     2    1   32 1
     3    1   33 1
     4    1   34 1
     5    2    3 1
     6    2   35 1
     7    2   36 1
     8    3    8 ar
     9    3    4 ar
    10    4    5 ar
    11    4   37 1
    12    5    6 ar
    13    5   38 1
    14    6    7 ar
    15    6    9 1
    16    7    8 ar
    17    7   39 1
    18    8   40 1
    19    9   19 am
    20    9   10 1
    21   10   11 1
    22   10   12 1
    23   10   21 1
    24   12   13 1
    25   12   41 1
    26   13   18 ar
    27   13   14 ar
    28   14   15 ar
    29   14   42 1
    30   15   16 ar
    31   15   43 1
    32   16   17 ar
    33   16   44 1
    34   17   18 ar
    35   17   45 1
    36   18   19 1
    37   19   20 2
    38   21   26 ar
    39   21   22 ar
    40   22   23 ar
    41   22   46 1
    42   23   24 ar
    43   23   47 1
    44   24   25 ar
    45   24   27 1
    46   25   26 ar
    47   25   48 1
    48   26   49 1
    49   27   28 1
    50   28   29 1
    51   28   50 1
    52   28   51 1
    53   29   30 1
    54   29   31 1
    55   29   52 1
    56   30   53 1
    57   30   54 1
    58   30   55 1
    59   31   56 1
    60   31   57 1
    61   31   58 1
@<TRIPOS>MOLECULE
ZINC00635350
   54    58     0     0     0
SMALL
USER_CHARGES
2-benzo[1,3]dioxol-5-yl-3-(4-tert-butylphenyl)-1,2-dihydroquinazolin-4-one
@<TRIPOS>ATOM
      1 C1          3.1708    9.0742    2.2802 C.3       1 <0>        -0.1399
      2 C2          2.0464    8.0396    2.3594 C.3       1 <0>        -0.0304
      3 C3          0.7558    8.6455    1.8044 C.3       1 <0>        -0.1466
      4 C4          1.8316    7.6305    3.8180 C.3       1 <0>        -0.1391
      5 C5          2.4217    6.8267    1.5476 C.ar      1 <0>        -0.0677
      6 C6          3.5602    6.1091    1.8653 C.ar      1 <0>        -0.1006
      7 C7          3.9075    4.9976    1.1227 C.ar      1 <0>        -0.1236
      8 C8          3.1115    4.6006    0.0561 C.ar      1 <0>         0.1320
      9 C9          1.9712    5.3264   -0.2634 C.ar      1 <0>        -0.1020
     10 C10         1.6270    6.4341    0.4862 C.ar      1 <0>        -0.1057
     11 N1          3.4605    3.4758   -0.6982 N.am      1 <0>        -0.5729
     12 C11         3.6000    2.1798   -0.0337 C.3       1 <0>         0.4349
     13 H1          3.8769    2.3369    1.0088 H         1 <0>         0.1218
     14 N2          4.6366    1.3803   -0.6965 N.pl3     1 <0>        -0.7469
     15 C12         4.6744    1.3525   -2.0862 C.ar      1 <0>         0.2360
     16 C13         5.1643    0.2591   -2.7803 C.ar      1 <0>        -0.1817
     17 C14         5.1917    0.2820   -4.1615 C.ar      1 <0>        -0.0507
     18 C15         4.7337    1.3902   -4.8569 C.ar      1 <0>        -0.1700
     19 C16         4.2383    2.4857   -4.1809 C.ar      1 <0>        -0.0198
     20 C17         4.2006    2.4744   -2.7882 C.ar      1 <0>        -0.1985
     21 C18         3.6590    3.6098   -2.0213 C.2       1 <0>         0.5765
     22 O1          3.3937    4.6568   -2.5802 O.2       1 <0>        -0.5141
     23 C19         2.2865    1.4436   -0.0954 C.ar      1 <0>        -0.1215
     24 C20         1.0995    2.1519   -0.1241 C.ar      1 <0>        -0.0893
     25 C21        -0.1079    1.4811   -0.1814 C.ar      1 <0>        -0.1000
     26 C22        -0.1310    0.0961   -0.2089 C.ar      1 <0>         0.0426
     27 C23         1.0647   -0.6173   -0.1785 C.ar      1 <0>         0.0301
     28 C24         2.2710    0.0616   -0.1218 C.ar      1 <0>        -0.0701
     29 O2          0.7778   -1.9514   -0.2147 O.3       1 <0>        -0.3069
     30 C25        -0.5823   -2.0396   -0.6791 C.3       1 <0>         0.2128
     31 O3         -1.1670   -0.7909   -0.2641 O.3       1 <0>        -0.3069
     32 H2          3.3238    9.3656    1.2411 H         1 <0>         0.0574
     33 H3          2.8994    9.9514    2.8674 H         1 <0>         0.0597
     34 H4          4.0902    8.6425    2.6757 H         1 <0>         0.0569
     35 H5         -0.0452    7.9084    1.8608 H         1 <0>         0.0595
     36 H6          0.4844    9.5227    2.3916 H         1 <0>         0.0596
     37 H7          0.9088    8.9369    0.7653 H         1 <0>         0.0598
     38 H8          2.7511    7.1988    4.2134 H         1 <0>         0.0570
     39 H9          1.5602    8.5077    4.4052 H         1 <0>         0.0595
     40 H10         1.0306    6.8934    3.8744 H         1 <0>         0.0571
     41 H11         4.1788    6.4183    2.6949 H         1 <0>         0.1267
     42 H12         4.7968    4.4376    1.3714 H         1 <0>         0.1240
     43 H13         1.3525    5.0228   -1.0950 H         1 <0>         0.1267
     44 H14         0.7384    6.9967    0.2406 H         1 <0>         0.1325
     45 H15         5.2834    0.8800   -0.1748 H         1 <0>         0.4171
     46 H16         5.5234   -0.6072   -2.2447 H         1 <0>         0.1307
     47 H17         5.5736   -0.5703   -4.7037 H         1 <0>         0.1295
     48 H18         4.7646    1.3957   -5.9365 H         1 <0>         0.1294
     49 H19         3.8820    3.3464   -4.7274 H         1 <0>         0.1358
     50 H20         1.1156    3.2315   -0.1031 H         1 <0>         0.1429
     51 H21        -1.0334    2.0370   -0.2093 H         1 <0>         0.1387
     52 H22         3.1998   -0.4891   -0.0978 H         1 <0>         0.1374
     53 H23        -0.6110   -2.1340   -1.7646 H         1 <0>         0.0859
     54 H24        -1.0938   -2.8796   -0.2091 H         1 <0>         0.1343
@<TRIPOS>BOND
     1    1    2 1
     2    1   32 1
     3    1   33 1
     4    1   34 1
     5    2    3 1
     6    2    4 1
     7    2    5 1
     8    3   35 1
     9    3   36 1
    10    3   37 1
    11    4   38 1
    12    4   39 1
    13    4   40 1
    14    5   10 ar
    15    5    6 ar
    16    6    7 ar
    17    6   41 1
    18    7    8 ar
    19    7   42 1
    20    8    9 ar
    21    8   11 1
    22    9   10 ar
    23    9   43 1
    24   10   44 1
    25   11   21 am
    26   11   12 1
    27   12   13 1
    28   12   14 1
    29   12   23 1
    30   14   15 1
    31   14   45 1
    32   15   20 ar
    33   15   16 ar
    34   16   17 ar
    35   16   46 1
    36   17   18 ar
    37   17   47 1
    38   18   19 ar
    39   18   48 1
    40   19   20 ar
    41   19   49 1
    42   20   21 1
    43   21   22 2
    44   23   28 ar
    45   23   24 ar
    46   24   25 ar
    47   24   50 1
    48   25   26 ar
    49   25   51 1
    50   26   31 1
    51   26   27 ar
    52   27   28 ar
    53   27   29 1
    54   28   52 1
    55   29   30 1
    56   30   31 1
    57   30   53 1
    58   30   54 1
@<TRIPOS>MOLECULE
ZINC00635352
   54    58     0     0     0
SMALL
USER_CHARGES
2-benzo[1,3]dioxol-5-yl-3-(4-tert-butylphenyl)-1,2-dihydroquinazolin-4-one
@<TRIPOS>ATOM
      1 C1          8.2797   -2.2751    0.5811 C.3       1 <0>        -0.1402
      2 C2          7.0829   -3.1884    0.3083 C.3       1 <0>        -0.0304
      3 C3          6.9083   -4.1624    1.4753 C.3       1 <0>        -0.1458
      4 C4          7.3255   -3.9756   -0.9810 C.3       1 <0>        -0.1394
      5 C5          5.8372   -2.3533    0.1602 C.ar      1 <0>        -0.0679
      6 C6          5.7623   -1.3966   -0.8354 C.ar      1 <0>        -0.0998
      7 C7          4.6218   -0.6303   -0.9744 C.ar      1 <0>        -0.1024
      8 C8          3.5495   -0.8210   -0.1125 C.ar      1 <0>         0.1331
      9 C9          3.6302   -1.7788    0.8901 C.ar      1 <0>        -0.1240
     10 C10         4.7714   -2.5457    1.0200 C.ar      1 <0>        -0.1062
     11 N1          2.3933   -0.0463   -0.2502 N.am      1 <0>        -0.5742
     12 C11         1.1071   -0.7074   -0.4729 C.3       1 <0>         0.4345
     13 H1          1.1391   -1.7081   -0.0421 H         1 <0>         0.1215
     14 N2          0.0255    0.0584    0.1570 N.pl3     1 <0>        -0.7465
     15 C12         0.0192    1.4425    0.0241 C.ar      1 <0>         0.2367
     16 C13        -1.1575    2.1719    0.0522 C.ar      1 <0>        -0.1822
     17 C14        -1.1134    3.5466   -0.0792 C.ar      1 <0>        -0.0503
     18 C15         0.0989    4.2014   -0.2299 C.ar      1 <0>        -0.1704
     19 C16         1.2802    3.4898   -0.2595 C.ar      1 <0>        -0.0195
     20 C17         1.2499    2.1024   -0.1363 C.ar      1 <0>        -0.1986
     21 C18         2.4829    1.2967   -0.1759 C.2       1 <0>         0.5765
     22 O1          3.5713    1.8383   -0.1420 O.2       1 <0>        -0.5134
     23 C19         0.8488   -0.8100   -1.9541 C.ar      1 <0>        -0.1211
     24 C20         1.9106   -0.8993   -2.8349 C.ar      1 <0>        -0.0894
     25 C21         1.6787   -0.9940   -4.1944 C.ar      1 <0>        -0.0999
     26 C22         0.3803   -0.9992   -4.6776 C.ar      1 <0>         0.0424
     27 C23        -0.6894   -0.9092   -3.7903 C.ar      1 <0>         0.0302
     28 C24        -0.4496   -0.8203   -2.4286 C.ar      1 <0>        -0.0703
     29 O2         -1.8522   -0.9345   -4.5047 O.3       1 <0>        -0.3069
     30 C25        -1.4769   -0.6293   -5.8609 C.3       1 <0>         0.2129
     31 O3         -0.1124   -1.0809   -5.9480 O.3       1 <0>        -0.3071
     32 H2          8.1069   -1.7143    1.4996 H         1 <0>         0.0571
     33 H3          9.1807   -2.8791    0.6882 H         1 <0>         0.0596
     34 H4          8.4042   -1.5812   -0.2503 H         1 <0>         0.0577
     35 H5          6.0556   -4.8131    1.2810 H         1 <0>         0.0592
     36 H6          7.8093   -4.7664    1.5824 H         1 <0>         0.0596
     37 H7          6.7354   -3.6016    2.3938 H         1 <0>         0.0590
     38 H8          7.4499   -3.2817   -1.8124 H         1 <0>         0.0576
     39 H9          8.2265   -4.5796   -0.8739 H         1 <0>         0.0596
     40 H10         6.4729   -4.6262   -1.1753 H         1 <0>         0.0570
     41 H11         6.5965   -1.2488   -1.5053 H         1 <0>         0.1270
     42 H12         4.5637    0.1162   -1.7527 H         1 <0>         0.1267
     43 H13         2.7999   -1.9265    1.5647 H         1 <0>         0.1239
     44 H14         4.8331   -3.2937    1.7966 H         1 <0>         0.1322
     45 H15        -0.6724   -0.3928    0.6573 H         1 <0>         0.4170
     46 H16        -2.1053    1.6684    0.1730 H         1 <0>         0.1307
     47 H17        -2.0310    4.1160   -0.0610 H         1 <0>         0.1296
     48 H18         0.1188    5.2770   -0.3252 H         1 <0>         0.1294
     49 H19         2.2223    4.0047   -0.3769 H         1 <0>         0.1358
     50 H20         2.9235   -0.8954   -2.4601 H         1 <0>         0.1428
     51 H21         2.5101   -1.0637   -4.8802 H         1 <0>         0.1387
     52 H22        -1.2772   -0.7548   -1.7379 H         1 <0>         0.1373
     53 H23        -1.5375    0.4437   -6.0429 H         1 <0>         0.0862
     54 H24        -2.1063   -1.1743   -6.5644 H         1 <0>         0.1343
@<TRIPOS>BOND
     1    1    2 1
     2    1   32 1
     3    1   33 1
     4    1   34 1
     5    2    3 1
     6    2    4 1
     7    2    5 1
     8    3   35 1
     9    3   36 1
    10    3   37 1
    11    4   38 1
    12    4   39 1
    13    4   40 1
    14    5   10 ar
    15    5    6 ar
    16    6    7 ar
    17    6   41 1
    18    7    8 ar
    19    7   42 1
    20    8    9 ar
    21    8   11 1
    22    9   10 ar
    23    9   43 1
    24   10   44 1
    25   11   21 am
    26   11   12 1
    27   12   13 1
    28   12   14 1
    29   12   23 1
    30   14   15 1
    31   14   45 1
    32   15   20 ar
    33   15   16 ar
    34   16   17 ar
    35   16   46 1
    36   17   18 ar
    37   17   47 1
    38   18   19 ar
    39   18   48 1
    40   19   20 ar
    41   19   49 1
    42   20   21 1
    43   21   22 2
    44   23   28 ar
    45   23   24 ar
    46   24   25 ar
    47   24   50 1
    48   25   26 ar
    49   25   51 1
    50   26   31 1
    51   26   27 ar
    52   27   28 ar
    53   27   29 1
    54   28   52 1
    55   29   30 1
    56   30   31 1
    57   30   53 1
    58   30   54 1
@<TRIPOS>MOLECULE
ZINC03781952
   75    78     0     0     0
SMALL
USER_CHARGES

@<TRIPOS>ATOM
      1 C1         -0.0187    1.5258    0.0104 C.3       1 <0>        -0.1407
      2 C2          0.0021   -0.0041    0.0020 C.3       1 <0>        -0.0385
      3 C3          0.7421   -0.5109    1.2415 C.3       1 <0>        -0.1408
      4 C4         -1.4333   -0.5336    0.0129 C.3       1 <0>        -0.1494
      5 C5          0.7074   -0.4901   -1.2379 C.ar      1 <0>        -0.0242
      6 C6          0.0318   -1.2851   -2.1472 C.ar      1 <0>        -0.1330
      7 C7          0.6704   -1.7342   -3.2838 C.ar      1 <0>        -0.0521
      8 C8          2.0042   -1.3838   -3.5167 C.ar      1 <0>        -0.1900
      9 C9          2.6798   -0.5797   -2.5932 C.ar      1 <0>        -0.0705
     10 C10         2.0257   -0.1343   -1.4640 C.ar      1 <0>        -0.1293
     11 C11         2.6933   -1.8592   -4.7271 C.2       1 <0>         0.4019
     12 O1          2.1046   -2.5566   -5.5255 O.2       1 <0>        -0.4523
     13 C12         4.1305   -1.4793   -4.9741 C.3       1 <0>        -0.1645
     14 C13         4.6026   -2.0988   -6.2911 C.3       1 <0>        -0.1428
     15 C14         6.0618   -1.7131   -6.5419 C.3       1 <0>        -0.0098
     16 N1          6.5150   -2.3078   -7.8064 N.4       1 <0>        -0.3848
     17 C15         5.7542   -1.7268   -8.9191 C.3       1 <0>        -0.0081
     18 C16         6.1653   -2.4008  -10.2299 C.3       1 <0>        -0.1447
     19 C17         7.6627   -2.1804  -10.4632 C.3       1 <0>         0.0798
     20 C18         8.4419   -2.7237   -9.2620 C.3       1 <0>        -0.1729
     21 C19         7.9464   -2.0378   -7.9870 C.3       1 <0>        -0.0020
     22 O2          8.0684   -2.8698  -11.6473 O.3       1 <0>        -0.3517
     23 C20         9.1590   -2.2528  -12.3343 C.3       1 <0>         0.1820
     24 C21         9.9653   -3.3078  -13.0469 C.ar      1 <0>        -0.0932
     25 C22         9.3246   -4.3510  -13.6889 C.ar      1 <0>        -0.0892
     26 C23        10.0641   -5.3188  -14.3426 C.ar      1 <0>        -0.1204
     27 C24        11.4443   -5.2432  -14.3547 C.ar      1 <0>        -0.1095
     28 C25        12.0850   -4.1995  -13.7134 C.ar      1 <0>        -0.1178
     29 C26        11.3453   -3.2294  -13.0634 C.ar      1 <0>        -0.1086
     30 C27         8.6252   -1.2645  -13.3391 C.ar      1 <0>        -0.1192
     31 C28         7.4409   -1.5250  -14.0028 C.ar      1 <0>        -0.0948
     32 C29         6.9513   -0.6186  -14.9244 C.ar      1 <0>        -0.1204
     33 C30         7.6457    0.5486  -15.1820 C.ar      1 <0>        -0.1107
     34 C31         8.8295    0.8095  -14.5177 C.ar      1 <0>        -0.1173
     35 C32         9.3169   -0.0949  -13.5929 C.ar      1 <0>        -0.1097
     36 H1          1.0039    1.9031    0.0027 H         1 <0>         0.0582
     37 H2         -0.5459    1.8868   -0.8726 H         1 <0>         0.0580
     38 H3         -0.5289    1.8773    0.9072 H         1 <0>         0.0652
     39 H4          0.2319   -0.1594    2.1383 H         1 <0>         0.0652
     40 H5          0.7568   -1.6008    1.2356 H         1 <0>         0.0581
     41 H6          1.7647   -0.1336    1.2338 H         1 <0>         0.0583
     42 H7         -1.9605   -0.1726   -0.8702 H         1 <0>         0.0608
     43 H8         -1.4185   -1.6235    0.0069 H         1 <0>         0.0608
     44 H9         -1.9435   -0.1821    0.9097 H         1 <0>         0.0648
     45 H10        -0.9981   -1.5548   -1.9660 H         1 <0>         0.1374
     46 H11         0.1421   -2.3551   -3.9922 H         1 <0>         0.1339
     47 H12         3.7100   -0.3052   -2.7660 H         1 <0>         0.1290
     48 H13         2.5448    0.4903   -0.7521 H         1 <0>         0.1310
     49 H14         4.2147   -0.3941   -5.0323 H         1 <0>         0.1108
     50 H15         4.7496   -1.8484   -4.1565 H         1 <0>         0.1112
     51 H16         4.5185   -3.1840   -6.2329 H         1 <0>         0.0947
     52 H17         3.9835   -1.7296   -7.1087 H         1 <0>         0.0945
     53 H18         6.1459   -0.6279   -6.6001 H         1 <0>         0.1318
     54 H19         6.6809   -2.0822   -5.7243 H         1 <0>         0.1338
     55 H20         4.6886   -1.8817   -8.7500 H         1 <0>         0.1392
     56 H21         5.9600   -0.6582   -8.9805 H         1 <0>         0.1309
     57 H22         5.9598   -3.4696  -10.1697 H         1 <0>         0.0986
     58 H23         5.6006   -1.9668  -11.0551 H         1 <0>         0.1191
     59 H24         7.8612   -1.1144  -10.5745 H         1 <0>         0.0798
     60 H25         8.2836   -3.7992   -9.1817 H         1 <0>         0.0990
     61 H26         9.5044   -2.5205   -9.3953 H         1 <0>         0.1130
     62 H27         8.1054   -0.9625   -8.0683 H         1 <0>         0.1296
     63 H28         8.4993   -2.4221   -7.1299 H         1 <0>         0.1347
     64 H29         9.7938   -1.7338  -11.6162 H         1 <0>         0.0781
     65 H30         8.2462   -4.4101  -13.6795 H         1 <0>         0.1238
     66 H31         9.5636   -6.1342  -14.8436 H         1 <0>         0.1255
     67 H32        12.0222   -5.9997  -14.8648 H         1 <0>         0.1260
     68 H33        13.1634   -4.1406  -13.7226 H         1 <0>         0.1268
     69 H34        11.8457   -2.4119  -12.5656 H         1 <0>         0.1207
     70 H35         6.8984   -2.4369  -13.8015 H         1 <0>         0.1247
     71 H36         6.0264   -0.8224  -15.4435 H         1 <0>         0.1249
     72 H37         7.2635    1.2565  -15.9026 H         1 <0>         0.1255
     73 H38         9.3722    1.7213  -14.7192 H         1 <0>         0.1260
     74 H39        10.2399    0.1106  -13.0711 H         1 <0>         0.1206
     75 H40         6.3624   -3.3049   -7.7817 H         1 <0>         0.4252
@<TRIPOS>BOND
     1    1    2 1
     2    1   36 1
     3    1   37 1
     4    1   38 1
     5    2    3 1
     6    2    4 1
     7    2    5 1
     8    3   39 1
     9    3   40 1
    10    3   41 1
    11    4   42 1
    12    4   43 1
    13    4   44 1
    14    5   10 ar
    15    5    6 ar
    16    6    7 ar
    17    6   45 1
    18    7    8 ar
    19    7   46 1
    20    8    9 ar
    21    8   11 1
    22    9   10 ar
    23    9   47 1
    24   10   48 1
    25   11   12 2
    26   11   13 1
    27   13   14 1
    28   13   49 1
    29   13   50 1
    30   14   15 1
    31   14   51 1
    32   14   52 1
    33   15   16 1
    34   15   53 1
    35   15   54 1
    36   16   21 1
    37   16   17 1
    38   16   75 1
    39   17   18 1
    40   17   55 1
    41   17   56 1
    42   18   19 1
    43   18   57 1
    44   18   58 1
    45   19   20 1
    46   19   22 1
    47   19   59 1
    48   20   21 1
    49   20   60 1
    50   20   61 1
    51   21   62 1
    52   21   63 1
    53   22   23 1
    54   23   24 1
    55   23   30 1
    56   23   64 1
    57   24   29 ar
    58   24   25 ar
    59   25   26 ar
    60   25   65 1
    61   26   27 ar
    62   26   66 1
    63   27   28 ar
    64   27   67 1
    65   28   29 ar
    66   28   68 1
    67   29   69 1
    68   30   35 ar
    69   30   31 ar
    70   31   32 ar
    71   31   70 1
    72   32   33 ar
    73   32   71 1
    74   33   34 ar
    75   33   72 1
    76   34   35 ar
    77   34   73 1
    78   35   74 1
@<TRIPOS>MOLECULE
ZINC00602632
   43    45     0     0     0
SMALL
USER_CHARGES
4-[6-amino-5-bromo-2-(4-cyanophenyl)amino-pyrimidin-4-yl]oxy-3,5-dimethyl-benzonitrile
@<TRIPOS>ATOM
      1 C1          2.3134    5.1441   -2.3257 C.3       1 <0>        -0.1194
      2 C2          2.1650    6.0648   -1.1419 C.ar      1 <0>        -0.0679
      3 C3          2.0573    7.4240   -1.3372 C.ar      1 <0>        -0.0684
      4 C4          1.9246    8.2774   -0.2384 C.ar      1 <0>        -0.0083
      5 C5          1.8968    7.7467    1.0542 C.ar      1 <0>        -0.0683
      6 C6          2.0002    6.3859    1.2402 C.ar      1 <0>        -0.0685
      7 C7          2.1316    5.5409    0.1448 C.ar      1 <0>         0.1103
      8 O1          2.2333    4.2001    0.3326 O.3       1 <0>        -0.2193
      9 C8          1.0899    3.4720    0.3545 C.ar      1 <0>         0.4551
     10 C9          1.1354    2.0957    0.5433 C.ar      1 <0>        -0.3292
     11 C10        -0.0649    1.3883    0.5582 C.ar      1 <0>         0.5268
     12 N1         -1.2073    2.0489    0.3872 N.ar      1 <0>        -0.6132
     13 C11        -1.2114    3.3619    0.2149 C.ar      1 <0>         0.6407
     14 N2         -0.0892    4.0653    0.1953 N.ar      1 <0>        -0.6238
     15 N3         -2.4211    4.0165    0.0458 N.pl3     1 <0>        -0.6282
     16 C12        -3.6023    3.2835   -0.0520 C.ar      1 <0>         0.1955
     17 C13        -3.5968    2.0375   -0.6717 C.ar      1 <0>        -0.1163
     18 C14        -4.7608    1.3086   -0.7658 C.ar      1 <0>        -0.0484
     19 C15        -5.9514    1.8260   -0.2470 C.ar      1 <0>        -0.0482
     20 C16        -5.9544    3.0804    0.3702 C.ar      1 <0>        -0.0454
     21 C17        -4.7857    3.8017    0.4651 C.ar      1 <0>        -0.1478
     22 C18        -7.1653    1.0730   -0.3480 C.1       1 <0>         0.2530
     23 N4         -8.1282    0.4756   -0.4280 N.1       1 <0>        -0.4174
     24 N5         -0.0686    0.0142    0.7430 N.pl3     1 <0>        -0.8164
     25 Br1         2.7871    1.2043    0.7739 Br        1 <0>        -0.0126
     26 C19         1.9704    5.8126    2.6336 C.3       1 <0>        -0.1138
     27 C20         1.8169    9.6915   -0.4365 C.1       1 <0>         0.2500
     28 N6          1.7314   10.8133   -0.5936 N.1       1 <0>        -0.4050
     29 H1          1.3270    4.8363   -2.6725 H         1 <0>         0.0752
     30 H2          2.8345    5.6656   -3.1285 H         1 <0>         0.0777
     31 H3          2.8861    4.2643   -2.0321 H         1 <0>         0.0754
     32 H4          2.0796    7.8301   -2.3377 H         1 <0>         0.1414
     33 H5          1.7940    8.4027    1.9060 H         1 <0>         0.1415
     34 H6         -2.4456    4.9849   -0.0044 H         1 <0>         0.4302
     35 H7         -2.6774    1.6403   -1.0759 H         1 <0>         0.1454
     36 H8         -4.7549    0.3397   -1.2429 H         1 <0>         0.1357
     37 H9         -6.8724    3.4832    0.7717 H         1 <0>         0.1377
     38 H10        -4.7872    4.7708    0.9417 H         1 <0>         0.1376
     39 H11         0.7683   -0.4613    0.8630 H         1 <0>         0.4184
     40 H12        -0.9081   -0.4717    0.7522 H         1 <0>         0.4158
     41 H13         2.9857    5.7595    3.0264 H         1 <0>         0.0828
     42 H14         1.3649    6.4515    3.2765 H         1 <0>         0.0752
     43 H15         1.5388    4.8120    2.6055 H         1 <0>         0.0644
@<TRIPOS>BOND
     1    1    2 1
     2    1   29 1
     3    1   30 1
     4    1   31 1
     5    2    7 ar
     6    2    3 ar
     7    3    4 ar
     8    3   32 1
     9    4    5 ar
    10    4   27 1
    11    5    6 ar
    12    5   33 1
    13    6    7 ar
    14    6   26 1
    15    7    8 1
    16    8    9 1
    17    9   14 ar
    18    9   10 ar
    19   10   11 ar
    20   10   25 1
    21   11   12 ar
    22   11   24 1
    23   12   13 ar
    24   13   14 ar
    25   13   15 1
    26   15   16 1
    27   15   34 1
    28   16   21 ar
    29   16   17 ar
    30   17   18 ar
    31   17   35 1
    32   18   19 ar
    33   18   36 1
    34   19   20 ar
    35   19   22 1
    36   20   21 ar
    37   20   37 1
    38   21   38 1
    39   22   23 3
    40   24   39 1
    41   24   40 1
    42   26   41 1
    43   26   42 1
    44   26   43 1
    45   27   28 3
@<TRIPOS>MOLECULE
ZINC05009792
   57    59     0     0     0
SMALL
USER_CHARGES
1-[2-[2-hydroxy-3-(1-piperidyl)propoxy]phenyl]-3-phenyl-propan-1-one
@<TRIPOS>ATOM
      1 C1         -7.0459    5.0831   -9.7311 C.ar      1 <0>        -0.1210
      2 C2         -7.2880    3.8538   -9.1471 C.ar      1 <0>        -0.1168
      3 C3         -6.5349    3.4434   -8.0630 C.ar      1 <0>        -0.1173
      4 C4         -5.5402    4.2625   -7.5625 C.ar      1 <0>        -0.0890
      5 C5         -5.3020    5.4943   -8.1430 C.ar      1 <0>        -0.1172
      6 C6         -6.0512    5.9022   -9.2307 C.ar      1 <0>        -0.1167
      7 C7         -4.7196    3.8152   -6.3803 C.3       1 <0>        -0.0693
      8 C8         -3.4887    3.0520   -6.8734 C.3       1 <0>        -0.1518
      9 C9         -2.6680    2.6047   -5.6912 C.2       1 <0>         0.3951
     10 O1         -3.0320    2.8704   -4.5650 O.2       1 <0>        -0.4357
     11 C10        -1.4284    1.8477   -5.9025 C.ar      1 <0>        -0.1985
     12 C11        -1.0037    1.5389   -7.2005 C.ar      1 <0>        -0.0327
     13 C12         0.1604    0.8289   -7.3906 C.ar      1 <0>        -0.1610
     14 C13         0.9152    0.4175   -6.3031 C.ar      1 <0>        -0.0446
     15 C14         0.5125    0.7193   -5.0175 C.ar      1 <0>        -0.2254
     16 C15        -0.6600    1.4286   -4.8042 C.ar      1 <0>         0.1744
     17 O2         -1.0596    1.7207   -3.5418 O.3       1 <0>        -0.2712
     18 C16        -0.2270    1.2615   -2.4751 C.3       1 <0>         0.0235
     19 C17        -0.8352    1.6826   -1.1358 C.3       1 <0>         0.0871
     20 H1         -1.8613    1.3205   -1.0729 H         1 <0>         0.1342
     21 C18        -0.0127    1.0858    0.0080 C.3       1 <0>        -0.0391
     22 C19         0.3726    1.3514    2.3832 C.3       1 <0>        -0.0014
     23 C20        -0.2283    1.9061    3.6767 C.3       1 <0>        -0.1480
     24 C21        -1.5041    1.1300    4.0149 C.3       1 <0>        -0.1390
     25 C22        -2.4848    1.2404    2.8442 C.3       1 <0>        -0.1473
     26 C23        -1.8185    0.7050    1.5748 C.3       1 <0>        -0.0058
     27 O3         -0.8261    3.1081   -1.0357 O.3       1 <0>        -0.5388
     28 H2         -7.6338    5.4035  -10.5786 H         1 <0>         0.1231
     29 H3         -8.0651    3.2138   -9.5381 H         1 <0>         0.1232
     30 H4         -6.7240    2.4829   -7.6067 H         1 <0>         0.1208
     31 H5         -4.5278    6.1361   -7.7492 H         1 <0>         0.1207
     32 H6         -5.8619    6.8625   -9.6872 H         1 <0>         0.1233
     33 H7         -5.3210    3.1640   -5.7461 H         1 <0>         0.0780
     34 H8         -4.4016    4.6868   -5.8082 H         1 <0>         0.0782
     35 H9         -2.9370    3.6495   -7.4553 H         1 <0>         0.0912
     36 H10        -3.8067    2.1804   -7.4455 H         1 <0>         0.1010
     37 H11        -1.5881    1.8575   -8.0511 H         1 <0>         0.1433
     38 H12         0.4874    0.5915   -8.3922 H         1 <0>         0.1368
     39 H13         1.8271   -0.1387   -6.4628 H         1 <0>         0.1342
     40 H14         1.1094    0.3989   -4.1764 H         1 <0>         0.1305
     41 H15         0.7667    1.6980   -2.5761 H         1 <0>         0.0775
     42 H16        -0.1522    0.1748   -2.5145 H         1 <0>         0.0821
     43 H17        -0.0124   -0.0011   -0.0734 H         1 <0>         0.1447
     44 H18         1.0113    1.4548   -0.0498 H         1 <0>         0.1367
     45 H19         0.6254    0.3001    2.5217 H         1 <0>         0.1303
     46 H20         1.2735    1.9112    2.1319 H         1 <0>         0.1275
     47 H21        -0.4685    2.9609    3.5433 H         1 <0>         0.0884
     48 H22         0.4907    1.7958    4.4885 H         1 <0>         0.1129
     49 H23        -1.9590    1.5501    4.9120 H         1 <0>         0.0950
     50 H24        -1.2583    0.0820    4.1866 H         1 <0>         0.0817
     51 H25        -2.7605    2.2847    2.6977 H         1 <0>         0.0892
     52 H26        -3.3780    0.6546    3.0611 H         1 <0>         0.1131
     53 H27        -2.5090    0.7954    0.7363 H         1 <0>         0.1278
     54 H28        -1.5555   -0.3432    1.7171 H         1 <0>         0.1309
     55 H29         0.0566    3.5002   -1.0841 H         1 <0>         0.3881
     56 N1         -0.6111    1.5094    1.2908 N.4       1 <0>        -0.3898
     57 H30        -0.8782    2.4985    1.2236 H         1 <0>         0.4330
@<TRIPOS>BOND
     1    1    6 ar
     2    1    2 ar
     3    1   28 1
     4    2    3 ar
     5    2   29 1
     6    3    4 ar
     7    3   30 1
     8    4    5 ar
     9    4    7 1
    10    5    6 ar
    11    5   31 1
    12    6   32 1
    13    7    8 1
    14    7   33 1
    15    7   34 1
    16    8    9 1
    17    8   35 1
    18    8   36 1
    19    9   10 2
    20    9   11 1
    21   11   16 ar
    22   11   12 ar
    23   12   13 ar
    24   12   37 1
    25   13   14 ar
    26   13   38 1
    27   14   15 ar
    28   14   39 1
    29   15   16 ar
    30   15   40 1
    31   16   17 1
    32   17   18 1
    33   18   19 1
    34   18   41 1
    35   18   42 1
    36   19   20 1
    37   19   21 1
    38   19   27 1
    39   21   43 1
    40   21   44 1
    41   21   56 1
    42   22   23 1
    43   22   45 1
    44   22   46 1
    45   22   56 1
    46   23   24 1
    47   23   47 1
    48   23   48 1
    49   24   25 1
    50   24   49 1
    51   24   50 1
    52   25   26 1
    53   25   51 1
    54   25   52 1
    55   26   53 1
    56   26   54 1
    57   26   56 1
    58   27   55 1
    59   56   57 1
@<TRIPOS>MOLECULE
ZINC05009799
   57    59     0     0     0
SMALL
USER_CHARGES
1-[2-[2-hydroxy-3-(1-piperidyl)propoxy]phenyl]-3-phenyl-propan-1-one
@<TRIPOS>ATOM
      1 C1          5.9866   -3.1024    8.4035 C.ar      1 <0>        -0.1210
      2 C2          5.2700   -1.9338    8.5817 C.ar      1 <0>        -0.1167
      3 C3          4.5037   -1.4285    7.5482 C.ar      1 <0>        -0.1171
      4 C4          4.4535   -2.0920    6.3365 C.ar      1 <0>        -0.0890
      5 C5          5.1656   -3.2636    6.1601 C.ar      1 <0>        -0.1174
      6 C6          5.9365   -3.7659    7.1918 C.ar      1 <0>        -0.1168
      7 C7          3.6177   -1.5414    5.2099 C.3       1 <0>        -0.0693
      8 C8          4.4660   -0.5904    4.3632 C.3       1 <0>        -0.1519
      9 C9          3.6302   -0.0398    3.2366 C.2       1 <0>         0.3952
     10 O1          2.4701   -0.3749    3.1221 O.2       1 <0>        -0.4357
     11 C10         4.2200    0.9022    2.2777 C.ar      1 <0>        -0.1986
     12 C11         5.5588    1.2919    2.4051 C.ar      1 <0>        -0.0327
     13 C12         6.1049    2.1755    1.5015 C.ar      1 <0>        -0.1610
     14 C13         5.3360    2.6820    0.4652 C.ar      1 <0>        -0.0446
     15 C14         4.0162    2.3028    0.3230 C.ar      1 <0>        -0.2254
     16 C15         3.4453    1.4183    1.2260 C.ar      1 <0>         0.1744
     17 O2          2.1475    1.0494    1.0909 O.3       1 <0>        -0.2712
     18 C16         1.4227    1.6154   -0.0028 C.3       1 <0>         0.0233
     19 C17        -0.0127    1.0858    0.0080 C.3       1 <0>         0.0868
     20 H1          0.0021   -0.0041    0.0020 H         1 <0>         0.1347
     21 C18        -0.7527    1.5927   -1.2315 C.3       1 <0>        -0.0386
     22 C19        -2.1539   -0.3768   -1.3670 C.3       1 <0>        -0.0079
     23 C20        -3.5887   -0.8843   -1.2063 C.3       1 <0>        -0.1465
     24 C21        -4.4775   -0.2325   -2.2692 C.3       1 <0>        -0.1391
     25 C22        -4.3978    1.2899   -2.1261 C.3       1 <0>        -0.1477
     26 C23        -2.9396    1.7344   -2.2601 C.3       1 <0>        -0.0014
     27 O3         -0.6816    1.5467    1.1837 O.3       1 <0>        -0.5389
     28 H2          6.5859   -3.4968    9.2107 H         1 <0>         0.1231
     29 H3          5.3092   -1.4154    9.5284 H         1 <0>         0.1233
     30 H4          3.9438   -0.5155    7.6875 H         1 <0>         0.1210
     31 H5          5.1230   -3.7844    5.2149 H         1 <0>         0.1205
     32 H6          6.4966   -4.6787    7.0524 H         1 <0>         0.1232
     33 H7          2.7656   -0.9999    5.6208 H         1 <0>         0.0785
     34 H8          3.2610   -2.3620    4.5875 H         1 <0>         0.0777
     35 H9          5.2478   -1.0871    3.9863 H         1 <0>         0.0911
     36 H10         4.8228    0.2302    4.9856 H         1 <0>         0.1011
     37 H11         6.1621    0.8999    3.2105 H         1 <0>         0.1432
     38 H12         7.1377    2.4753    1.6003 H         1 <0>         0.1368
     39 H13         5.7738    3.3743   -0.2387 H         1 <0>         0.1342
     40 H14         3.4261    2.6987   -0.4902 H         1 <0>         0.1305
     41 H15         1.9050    1.3387   -0.9404 H         1 <0>         0.0820
     42 H16         1.4101    2.7011    0.0927 H         1 <0>         0.0775
     43 H17        -0.7675    2.6825   -1.2255 H         1 <0>         0.1363
     44 H18        -0.2425    1.2411   -2.1283 H         1 <0>         0.1446
     45 H19        -1.7808   -0.6491   -2.3543 H         1 <0>         0.1306
     46 H20        -1.5212   -0.8282   -0.6027 H         1 <0>         0.1295
     47 H21        -3.9576   -0.6245   -0.2141 H         1 <0>         0.0892
     48 H22        -3.6077   -1.9671   -1.3302 H         1 <0>         0.1129
     49 H23        -5.5086   -0.5579   -2.1312 H         1 <0>         0.0949
     50 H24        -4.1323   -0.5237   -3.2612 H         1 <0>         0.0816
     51 H25        -4.7795    1.5840   -1.1484 H         1 <0>         0.0882
     52 H26        -4.9950    1.7606   -2.9071 H         1 <0>         0.1129
     53 H27        -2.8776    2.8165   -2.1445 H         1 <0>         0.1276
     54 H28        -2.5628    1.4522   -3.2432 H         1 <0>         0.1303
     55 H29        -0.7322    2.5097    1.2555 H         1 <0>         0.3878
     56 N1         -2.1420    1.0913   -1.1941 N.4       1 <0>        -0.3885
     57 H30        -2.5556    1.3226   -0.2833 H         1 <0>         0.4323
@<TRIPOS>BOND
     1    1    6 ar
     2    1    2 ar
     3    1   28 1
     4    2    3 ar
     5    2   29 1
     6    3    4 ar
     7    3   30 1
     8    4    5 ar
     9    4    7 1
    10    5    6 ar
    11    5   31 1
    12    6   32 1
    13    7    8 1
    14    7   33 1
    15    7   34 1
    16    8    9 1
    17    8   35 1
    18    8   36 1
    19    9   10 2
    20    9   11 1
    21   11   16 ar
    22   11   12 ar
    23   12   13 ar
    24   12   37 1
    25   13   14 ar
    26   13   38 1
    27   14   15 ar
    28   14   39 1
    29   15   16 ar
    30   15   40 1
    31   16   17 1
    32   17   18 1
    33   18   19 1
    34   18   41 1
    35   18   42 1
    36   19   20 1
    37   19   21 1
    38   19   27 1
    39   21   43 1
    40   21   44 1
    41   21   56 1
    42   22   23 1
    43   22   45 1
    44   22   46 1
    45   22   56 1
    46   23   24 1
    47   23   47 1
    48   23   48 1
    49   24   25 1
    50   24   49 1
    51   24   50 1
    52   25   26 1
    53   25   51 1
    54   25   52 1
    55   26   53 1
    56   26   54 1
    57   26   56 1
    58   27   55 1
    59   56   57 1
@<TRIPOS>MOLECULE
ZINC04099018
   43    46     0     0     0
SMALL
USER_CHARGES

@<TRIPOS>ATOM
      1 C1         -0.0173    1.4248    0.0099 C.3       1 <0>         0.0336
      2 O1          0.0021   -0.0041    0.0020 O.3       1 <0>        -0.3391
      3 C2         -1.1898   -0.6320    0.0100 C.2       1 <0>         0.5010
      4 O2         -2.2174    0.0156    0.0233 O.2       1 <0>        -0.4957
      5 C3         -1.2471   -2.1081    0.0026 C.ar      1 <0>        -0.0982
      6 C4         -0.0718   -2.8551   -0.0068 C.ar      1 <0>        -0.0527
      7 C5         -0.1305   -4.2359   -0.0132 C.ar      1 <0>        -0.0991
      8 C6         -1.3526   -4.8867   -0.0108 C.ar      1 <0>        -0.0736
      9 C7         -2.5297   -4.1646   -0.0015 C.ar      1 <0>        -0.0939
     10 C8         -2.4920   -2.7699    0.0110 C.ar      1 <0>        -0.0633
     11 C9         -3.7456   -1.9934    0.0271 C.2       1 <0>         0.2516
     12 C10        -4.2119   -1.3421   -1.1399 C.ar      1 <0>        -0.2026
     13 C11        -3.4847   -1.4253   -2.3411 C.ar      1 <0>         0.0260
     14 C12        -3.9413   -0.7975   -3.4558 C.ar      1 <0>        -0.2063
     15 C13        -5.1396   -0.0632   -3.4156 C.ar      1 <0>         0.3424
     16 C14        -5.8721    0.0284   -2.2309 C.ar      1 <0>        -0.2571
     17 C15        -5.4177   -0.6061   -1.0900 C.ar      1 <0>         0.2497
     18 O3         -6.1237   -0.5211    0.0575 O.3       1 <0>        -0.1908
     19 C16        -5.7120   -1.1284    1.1906 C.2       1 <0>         0.2504
     20 C17        -6.4621   -1.0191    2.3464 C.2       1 <0>        -0.2583
     21 C18        -6.0326   -1.6486    3.5159 C.2       1 <0>         0.3429
     22 N1         -6.7727   -1.5402    4.6543 N.pl3     1 <0>        -0.8057
     23 C19        -4.8408   -2.3942    3.5255 C.2       1 <0>        -0.2066
     24 C20        -4.0949   -2.5085    2.3961 C.2       1 <0>         0.0250
     25 C21        -4.5176   -1.8843    1.2085 C.2       1 <0>        -0.2223
     26 N2         -5.5881    0.5628   -4.5392 N.pl3     1 <0>        -0.8066
     27 H1          1.0053    1.8021    0.0021 H         1 <0>         0.1122
     28 H2         -0.5445    1.7859   -0.8732 H         1 <0>         0.0651
     29 H3         -0.5275    1.7763    0.9067 H         1 <0>         0.0656
     30 H4          0.8856   -2.3553   -0.0094 H         1 <0>         0.1544
     31 H5          0.7834   -4.8114   -0.0204 H         1 <0>         0.1483
     32 H6         -1.3856   -5.9661   -0.0165 H         1 <0>         0.1488
     33 H7         -3.4792   -4.6794    0.0003 H         1 <0>         0.1460
     34 H8         -2.5635   -1.9878   -2.3770 H         1 <0>         0.1484
     35 H9         -3.3812   -0.8624   -4.3769 H         1 <0>         0.1535
     36 H10        -6.7917    0.5941   -2.2056 H         1 <0>         0.1597
     37 H11        -7.3785   -0.4475    2.3447 H         1 <0>         0.1602
     38 H12        -7.5956   -1.0267    4.6507 H         1 <0>         0.4193
     39 H13        -4.5166   -2.8780    4.4350 H         1 <0>         0.1549
     40 H14        -3.1797   -3.0818    2.4088 H         1 <0>         0.1531
     41 H15        -5.0811    0.5013   -5.3638 H         1 <0>         0.4202
     42 H16        -6.4145    1.0702   -4.5146 H         1 <0>         0.4190
     43 H17        -6.4768   -1.9765    5.4685 H         1 <0>         0.4207
@<TRIPOS>BOND
     1    1    2 1
     2    1   27 1
     3    1   28 1
     4    1   29 1
     5    2    3 1
     6    3    4 2
     7    3    5 1
     8    5   10 ar
     9    5    6 ar
    10    6    7 ar
    11    6   30 1
    12    7    8 ar
    13    7   31 1
    14    8    9 ar
    15    8   32 1
    16    9   10 ar
    17    9   33 1
    18   10   11 1
    19   11   25 2
    20   11   12 1
    21   12   17 ar
    22   12   13 ar
    23   13   14 ar
    24   13   34 1
    25   14   15 ar
    26   14   35 1
    27   15   16 ar
    28   15   26 1
    29   16   17 ar
    30   16   36 1
    31   17   18 1
    32   18   19 1
    33   19   25 1
    34   19   20 2
    35   20   21 1
    36   20   37 1
    37   21   22 2
    38   21   23 1
    39   22   38 1
    40   22   43 1
    41   23   24 2
    42   23   39 1
    43   24   25 1
    44   24   40 1
    45   26   41 1
    46   26   42 1
@<TRIPOS>MOLECULE
ZINC04214704
   87    92     0     0     0
SMALL
USER_CHARGES
N-[2-[[4-[2-(6,7-dimethoxy-3,4-dihydro-1H-isoquinolin-2-yl)ethyl]phenyl]carbamoyl]-4,5-dimethoxy-phenyl]quinoline-3-carboxamide
@<TRIPOS>ATOM
      1 C1          3.5298    2.1860    0.0249 C.3       1 <0>         0.0211
      2 O1          2.3433    1.3901   -0.0012 O.3       1 <0>        -0.2964
      3 C2          1.1554    2.0521    0.0120 C.ar      1 <0>         0.1309
      4 C3          1.1306    3.4351    0.0486 C.ar      1 <0>        -0.1671
      5 C4         -0.0782    4.1148    0.0615 C.ar      1 <0>        -0.0845
      6 C5         -1.2642    3.4118    0.0344 C.ar      1 <0>        -0.1325
      7 C6         -1.2442    2.0251   -0.0061 C.ar      1 <0>        -0.1558
      8 C7         -0.0411    1.3419   -0.0118 C.ar      1 <0>         0.1181
      9 O2         -0.0279   -0.0175   -0.0461 O.3       1 <0>        -0.2967
     10 C8         -1.2948   -0.6783   -0.0690 C.3       1 <0>         0.0218
     11 C9         -2.6004    4.1075    0.0394 C.3       1 <0>         0.0534
     12 C10        -1.4169    6.1803   -0.2939 C.3       1 <0>         0.0018
     13 C11        -0.0530    5.6212    0.1117 C.3       1 <0>        -0.1030
     14 C12        -3.7352    6.2112    0.4114 C.3       1 <0>        -0.0019
     15 C13        -4.7230    5.6043    1.4098 C.3       1 <0>        -0.0974
     16 C14        -6.0359    6.3394    1.3275 C.ar      1 <0>        -0.1288
     17 C15        -6.2621    7.4401    2.1334 C.ar      1 <0>        -0.0836
     18 C16        -7.4621    8.1194    2.0563 C.ar      1 <0>        -0.1254
     19 C17        -8.4465    7.6893    1.1759 C.ar      1 <0>         0.1703
     20 C18        -8.2183    6.5800    0.3719 C.ar      1 <0>        -0.1481
     21 C19        -7.0141    5.9083    0.4501 C.ar      1 <0>        -0.0837
     22 N1         -9.6646    8.3720    1.0988 N.am      1 <0>        -0.6681
     23 C20        -9.7286    9.6760    1.4333 C.2       1 <0>         0.5813
     24 O3         -8.7106   10.2863    1.6995 O.2       1 <0>        -0.5250
     25 C21       -11.0307   10.3620    1.4764 C.ar      1 <0>        -0.1863
     26 C22       -12.2116    9.6410    1.2674 C.ar      1 <0>        -0.1229
     27 C23       -13.4294   10.2867    1.3149 C.ar      1 <0>         0.0843
     28 C24       -13.4865   11.6599    1.5591 C.ar      1 <0>         0.1670
     29 C25       -12.3217   12.3821    1.7609 C.ar      1 <0>        -0.1955
     30 C26       -11.0920   11.7427    1.7216 C.ar      1 <0>         0.2308
     31 N2         -9.9201   12.4689    1.9246 N.am      1 <0>        -0.6551
     32 C27        -9.8249   13.7350    1.4723 C.2       1 <0>         0.5696
     33 O4        -10.7890   14.2724    0.9627 O.2       1 <0>        -0.5142
     34 C28        -8.5493   14.4695    1.5958 C.ar      1 <0>        -0.2033
     35 C29        -8.4449   15.7760    1.1310 C.ar      1 <0>         0.0244
     36 C30        -7.2092   16.4291    1.2734 C.ar      1 <0>        -0.1152
     37 C31        -7.0273   17.7495    0.8273 C.ar      1 <0>        -0.0839
     38 C32        -5.8158   18.3509    0.9816 C.ar      1 <0>        -0.1157
     39 C33        -4.7529   17.6740    1.5766 C.ar      1 <0>        -0.0826
     40 C34        -4.8940   16.3945    2.0196 C.ar      1 <0>        -0.1023
     41 C35        -6.1287   15.7385    1.8787 C.ar      1 <0>         0.1460
     42 N3         -6.2895   14.4808    2.3060 N.ar      1 <0>        -0.4729
     43 C36        -7.4326   13.8555    2.1893 C.ar      1 <0>         0.1644
     44 O5        -14.6886   12.2903    1.5993 O.3       1 <0>        -0.2933
     45 C37       -14.6757   13.6963    1.8541 C.3       1 <0>         0.0200
     46 O6        -14.5778    9.5845    1.1172 O.3       1 <0>        -0.2989
     47 C38       -14.4471    8.1827    0.8725 C.3       1 <0>         0.0222
     48 H1          4.4042    1.5352    0.0108 H         1 <0>         0.1109
     49 H2          3.5487    2.8388   -0.8478 H         1 <0>         0.0603
     50 H3          3.5417    2.7909    0.9315 H         1 <0>         0.0602
     51 H4          2.0579    3.9884    0.0669 H         1 <0>         0.1466
     52 H5         -2.1736    1.4754   -0.0293 H         1 <0>         0.1456
     53 H6         -1.1414   -1.7571   -0.0955 H         1 <0>         0.1104
     54 H7         -1.8589   -0.4133    0.8253 H         1 <0>         0.0588
     55 H8         -1.8503   -0.3684   -0.9541 H         1 <0>         0.0590
     56 H9         -3.0141    4.0993   -0.9690 H         1 <0>         0.1378
     57 H10        -3.2782    3.5799    0.7105 H         1 <0>         0.1360
     58 H11        -1.5842    6.0025   -1.3562 H         1 <0>         0.1332
     59 H12        -1.4519    7.2508   -0.0919 H         1 <0>         0.1369
     60 H13         0.1842    5.9456    1.1249 H         1 <0>         0.1033
     61 H14         0.7088    5.9934   -0.5734 H         1 <0>         0.1216
     62 H15        -3.5781    7.2632    0.6495 H         1 <0>         0.1340
     63 H16        -4.1382    6.1232   -0.5975 H         1 <0>         0.1330
     64 H17        -4.8800    4.5523    1.1718 H         1 <0>         0.0932
     65 H18        -4.3200    5.6923    2.4188 H         1 <0>         0.0948
     66 H19        -5.4980    7.7713    2.8210 H         1 <0>         0.1284
     67 H20        -7.6365    8.9816    2.6829 H         1 <0>         0.1504
     68 H21        -8.9815    6.2433   -0.3140 H         1 <0>         0.1314
     69 H22        -6.8360    5.0457   -0.1748 H         1 <0>         0.1277
     70 H23       -10.4634    7.9070    0.8046 H         1 <0>         0.4144
     71 H24       -12.1698    8.5794    1.0735 H         1 <0>         0.1413
     72 H25       -12.3716   13.4444    1.9494 H         1 <0>         0.1661
     73 H26        -9.1728   12.0633    2.3915 H         1 <0>         0.4242
     74 H27        -9.2880   16.2735    0.6748 H         1 <0>         0.1562
     75 H28        -7.8439   18.2838    0.3647 H         1 <0>         0.1372
     76 H29        -5.6766   19.3655    0.6387 H         1 <0>         0.1348
     77 H30        -3.8014   18.1726    1.6879 H         1 <0>         0.1359
     78 H31        -4.0594   15.8852    2.4783 H         1 <0>         0.1394
     79 H32        -7.5190   12.8422    2.5527 H         1 <0>         0.1620
     80 H33       -14.2131   13.8858    2.8227 H         1 <0>         0.0597
     81 H34       -14.1060   14.2017    1.0743 H         1 <0>         0.0657
     82 H35       -15.6981   14.0740    1.8597 H         1 <0>         0.1085
     83 H36       -13.8491    8.0248   -0.0250 H         1 <0>         0.0551
     84 H37       -13.9573    7.7094    1.7234 H         1 <0>         0.0559
     85 H38       -15.4353    7.7446    0.7324 H         1 <0>         0.1069
     86 N4         -2.4447    5.4928    0.5133 N.4       1 <0>        -0.3935
     87 H39        -2.1464    5.4797    1.4957 H         1 <0>         0.4299
@<TRIPOS>BOND
     1    1    2 1
     2    1   48 1
     3    1   49 1
     4    1   50 1
     5    2    3 1
     6    3    8 ar
     7    3    4 ar
     8    4    5 ar
     9    4   51 1
    10    5   13 1
    11    5    6 ar
    12    6    7 ar
    13    6   11 1
    14    7    8 ar
    15    7   52 1
    16    8    9 1
    17    9   10 1
    18   10   53 1
    19   10   54 1
    20   10   55 1
    21   11   56 1
    22   11   57 1
    23   11   86 1
    24   12   13 1
    25   12   58 1
    26   12   59 1
    27   12   86 1
    28   13   60 1
    29   13   61 1
    30   14   15 1
    31   14   62 1
    32   14   63 1
    33   14   86 1
    34   15   16 1
    35   15   64 1
    36   15   65 1
    37   16   21 ar
    38   16   17 ar
    39   17   18 ar
    40   17   66 1
    41   18   19 ar
    42   18   67 1
    43   19   20 ar
    44   19   22 1
    45   20   21 ar
    46   20   68 1
    47   21   69 1
    48   22   23 am
    49   22   70 1
    50   23   24 2
    51   23   25 1
    52   25   30 ar
    53   25   26 ar
    54   26   27 ar
    55   26   71 1
    56   27   28 ar
    57   27   46 1
    58   28   29 ar
    59   28   44 1
    60   29   30 ar
    61   29   72 1
    62   30   31 1
    63   31   32 am
    64   31   73 1
    65   32   33 2
    66   32   34 1
    67   34   43 ar
    68   34   35 ar
    69   35   36 ar
    70   35   74 1
    71   36   41 ar
    72   36   37 ar
    73   37   38 ar
    74   37   75 1
    75   38   39 ar
    76   38   76 1
    77   39   40 ar
    78   39   77 1
    79   40   41 ar
    80   40   78 1
    81   41   42 ar
    82   42   43 ar
    83   43   79 1
    84   44   45 1
    85   45   80 1
    86   45   81 1
    87   45   82 1
    88   46   47 1
    89   47   83 1
    90   47   84 1
    91   47   85 1
    92   86   87 1
@<TRIPOS>MOLECULE
ZINC03871832
   72    73     0     0     0
SMALL
USER_CHARGES

@<TRIPOS>ATOM
      1 C1          0.9796   -0.7261   -0.7860 C.3       1 <0>        -0.1860
      2 C2         -0.0152    0.0025    0.1197 C.3       1 <0>        -0.0821
      3 C3          0.1403    1.5135   -0.0635 C.3       1 <0>        -0.1739
      4 C4         -1.4406   -0.4121   -0.2508 C.3       1 <0>         0.0999
      5 C5         -2.4297    0.2428    0.7155 C.3       1 <0>        -0.1058
      6 C6         -2.1497   -0.2432    2.1390 C.3       1 <0>        -0.1601
      7 C7         -3.2174    0.3089    3.0856 C.3       1 <0>        -0.0092
      8 N1         -2.9486   -0.1577    4.4523 N.4       1 <0>        -0.3875
      9 C8         -1.6792    0.4121    4.9235 C.3       1 <0>        -0.0584
     10 C9         -4.0376    0.2722    5.3396 C.3       1 <0>        -0.0075
     11 C10        -3.8220   -0.3181    6.7346 C.3       1 <0>        -0.0949
     12 C11        -4.9392    0.1229    7.6448 C.ar      1 <0>        -0.1087
     13 C12        -4.8176    1.2949    8.3681 C.ar      1 <0>        -0.1027
     14 C13        -5.8396    1.7037    9.2044 C.ar      1 <0>        -0.1718
     15 C14        -6.9892    0.9387    9.3188 C.ar      1 <0>         0.1178
     16 C15        -7.1118   -0.2407    8.5904 C.ar      1 <0>         0.1063
     17 C16        -6.0857   -0.6423    7.7503 C.ar      1 <0>        -0.1660
     18 O1         -8.2381   -0.9950    8.6993 O.3       1 <0>        -0.3007
     19 C17        -8.2944   -2.1928    7.9221 C.3       1 <0>         0.0251
     20 O2         -7.9954    1.3392   10.1414 O.3       1 <0>        -0.3014
     21 C18        -7.8001    2.5598   10.8584 C.3       1 <0>         0.0228
     22 C19        -1.5644   -1.8762   -0.1622 C.1       1 <0>         0.2049
     23 N2         -1.6600   -3.0061   -0.0938 N.1       1 <0>        -0.4110
     24 C20        -1.7435    0.0334   -1.6582 C.ar      1 <0>        -0.0959
     25 C21        -0.7344    0.5473   -2.4513 C.ar      1 <0>        -0.1155
     26 C22        -1.0072    0.9574   -3.7430 C.ar      1 <0>        -0.1754
     27 C23        -2.2943    0.8533   -4.2457 C.ar      1 <0>         0.1177
     28 C24        -3.3099    0.3356   -3.4476 C.ar      1 <0>         0.1024
     29 C25        -3.0286   -0.0780   -2.1554 C.ar      1 <0>        -0.1606
     30 O3         -4.5746    0.2315   -3.9364 O.3       1 <0>        -0.3010
     31 C26        -5.5661   -0.3091   -3.0608 C.3       1 <0>         0.0257
     32 O4         -2.5644    1.2567   -5.5160 O.3       1 <0>        -0.3026
     33 C27        -1.4731    1.7782   -6.2770 C.3       1 <0>         0.0230
     34 H1          1.9192   -0.1742   -0.8118 H         1 <0>         0.0735
     35 H2          1.1578   -1.7288   -0.3974 H         1 <0>         0.0573
     36 H3          0.5706   -0.7945   -1.7940 H         1 <0>         0.0847
     37 H4          0.1807   -0.2595    1.1595 H         1 <0>         0.0819
     38 H5          1.1980    1.7758   -0.0365 H         1 <0>         0.0699
     39 H6         -0.2827    1.8085   -1.0238 H         1 <0>         0.0860
     40 H7         -0.3834    2.0327    0.7392 H         1 <0>         0.0583
     41 H8         -2.3165    1.3261    0.6725 H         1 <0>         0.1048
     42 H9         -3.4470   -0.0277    0.4327 H         1 <0>         0.0851
     43 H10        -2.1722   -1.3327    2.1619 H         1 <0>         0.0863
     44 H11        -1.1672    0.1067    2.4557 H         1 <0>         0.0987
     45 H12        -3.1950    1.3985    3.0627 H         1 <0>         0.1352
     46 H13        -4.1999   -0.0410    2.7689 H         1 <0>         0.1315
     47 H14        -1.7449    1.5001    4.9174 H         1 <0>         0.1255
     48 H15        -1.4798    0.0659    5.9377 H         1 <0>         0.1262
     49 H16        -0.8712    0.0931    4.2652 H         1 <0>         0.1253
     50 H17        -4.0466    1.3603    5.4029 H         1 <0>         0.1334
     51 H18        -4.9902   -0.0764    4.9408 H         1 <0>         0.1311
     52 H19        -3.8131   -1.4062    6.6713 H         1 <0>         0.0933
     53 H20        -2.8694    0.0305    7.1334 H         1 <0>         0.0969
     54 H21        -3.9221    1.8921    8.2799 H         1 <0>         0.1289
     55 H22        -5.7419    2.6193    9.7689 H         1 <0>         0.1421
     56 H23        -6.1798   -1.5552    7.1810 H         1 <0>         0.1365
     57 H24        -9.2433   -2.6982    8.1016 H         1 <0>         0.1072
     58 H25        -8.2097   -1.9439    6.8643 H         1 <0>         0.0540
     59 H26        -7.4730   -2.8501    8.2075 H         1 <0>         0.0565
     60 H27        -6.9196    2.4706   11.4946 H         1 <0>         0.0592
     61 H28        -7.6565    3.3773   10.1518 H         1 <0>         0.0584
     62 H29        -8.6753    2.7626   11.4756 H         1 <0>         0.1079
     63 H30         0.2692    0.6290   -2.0607 H         1 <0>         0.1622
     64 H31        -0.2172    1.3591   -4.3602 H         1 <0>         0.1426
     65 H32        -3.8143   -0.4836   -1.5352 H         1 <0>         0.1332
     66 H33        -6.5276   -0.3368   -3.5736 H         1 <0>         0.1053
     67 H34        -5.2809   -1.3198   -2.7688 H         1 <0>         0.0536
     68 H35        -5.6462    0.3169   -2.1721 H         1 <0>         0.0535
     69 H36        -1.0639    2.6536   -5.7725 H         1 <0>         0.0586
     70 H37        -0.6983    1.0171   -6.3698 H         1 <0>         0.0583
     71 H38        -1.8246    2.0618   -7.2690 H         1 <0>         0.1059
     72 H39        -2.8878   -1.1648    4.4580 H         1 <0>         0.4246
@<TRIPOS>BOND
     1    1    2 1
     2    1   34 1
     3    1   35 1
     4    1   36 1
     5    2    3 1
     6    2    4 1
     7    2   37 1
     8    3   38 1
     9    3   39 1
    10    3   40 1
    11    4    5 1
    12    4   22 1
    13    4   24 1
    14    5    6 1
    15    5   41 1
    16    5   42 1
    17    6    7 1
    18    6   43 1
    19    6   44 1
    20    7    8 1
    21    7   45 1
    22    7   46 1
    23    8    9 1
    24    8   10 1
    25    8   72 1
    26    9   47 1
    27    9   48 1
    28    9   49 1
    29   10   11 1
    30   10   50 1
    31   10   51 1
    32   11   12 1
    33   11   52 1
    34   11   53 1
    35   12   17 ar
    36   12   13 ar
    37   13   14 ar
    38   13   54 1
    39   14   15 ar
    40   14   55 1
    41   15   16 ar
    42   15   20 1
    43   16   17 ar
    44   16   18 1
    45   17   56 1
    46   18   19 1
    47   19   57 1
    48   19   58 1
    49   19   59 1
    50   20   21 1
    51   21   60 1
    52   21   61 1
    53   21   62 1
    54   22   23 3
    55   24   29 ar
    56   24   25 ar
    57   25   26 ar
    58   25   63 1
    59   26   27 ar
    60   26   64 1
    61   27   28 ar
    62   27   32 1
    63   28   29 ar
    64   28   30 1
    65   29   65 1
    66   30   31 1
    67   31   66 1
    68   31   67 1
    69   31   68 1
    70   32   33 1
    71   33   69 1
    72   33   70 1
    73   33   71 1
@<TRIPOS>MOLECULE
ZINC02059636
   60    63     0     0     0
SMALL
USER_CHARGES
2-(4-isopropylphenyl)-3-(4-sec-butylphenyl)-1,2-dihydroquinazolin-4-one
@<TRIPOS>ATOM
      1 C1         -9.9092    2.7066    6.0440 C.3       1 <0>        -0.1549
      2 C2         -9.0648    1.6070    5.3969 C.3       1 <0>        -0.1170
      3 C3         -8.5992    2.0684    4.0145 C.3       1 <0>        -0.0528
      4 H1         -9.4640    2.3598    3.4184 H         1 <0>         0.0785
      5 C4         -7.6579    3.2649    4.1664 C.3       1 <0>        -0.1462
      6 C5         -7.8721    0.9414    3.3272 C.ar      1 <0>        -0.0752
      7 C6         -8.3434    0.4484    2.1243 C.ar      1 <0>        -0.1028
      8 C7         -7.6794   -0.5844    1.4919 C.ar      1 <0>        -0.1252
      9 C8         -6.5369   -1.1276    2.0652 C.ar      1 <0>         0.1365
     10 C9         -6.0690   -0.6334    3.2760 C.ar      1 <0>        -0.1014
     11 C10        -6.7349    0.4028    3.9008 C.ar      1 <0>        -0.0992
     12 N1         -5.8625   -2.1738    1.4277 N.am      1 <0>        -0.5735
     13 C11        -5.3584   -1.9810    0.0677 C.3       1 <0>         0.4295
     14 H2         -5.9718   -1.2384   -0.4426 H         1 <0>         0.1155
     15 N2         -5.4094   -3.2462   -0.6741 N.pl3     1 <0>        -0.7454
     16 C12        -4.9941   -4.4108   -0.0456 C.ar      1 <0>         0.2392
     17 C13        -4.4672   -5.4765   -0.7553 C.ar      1 <0>        -0.1840
     18 C14        -4.0940   -6.6264   -0.0863 C.ar      1 <0>        -0.0500
     19 C15        -4.2456   -6.7223    1.2882 C.ar      1 <0>        -0.1717
     20 C16        -4.7650   -5.6681    2.0106 C.ar      1 <0>        -0.0191
     21 C17        -5.1335   -4.4981    1.3508 C.ar      1 <0>        -0.1991
     22 C18        -5.6884   -3.3424    2.0768 C.2       1 <0>         0.5762
     23 O1         -5.9865   -3.4417    3.2517 O.2       1 <0>        -0.5164
     24 C19        -3.9333   -1.4949    0.1279 C.ar      1 <0>        -0.1339
     25 C20        -3.0535   -1.8052   -0.8922 C.ar      1 <0>        -0.0861
     26 C21        -1.7461   -1.3598   -0.8367 C.ar      1 <0>        -0.1208
     27 C22        -1.3187   -0.6032    0.2384 C.ar      1 <0>        -0.0640
     28 C23        -2.1972   -0.2969    1.2608 C.ar      1 <0>        -0.1151
     29 C24        -3.5056   -0.7391    1.2035 C.ar      1 <0>        -0.0976
     30 C25         0.1066   -0.1175    0.2988 C.3       1 <0>        -0.0593
     31 C26         0.1227    1.4117    0.3473 C.3       1 <0>        -0.1446
     32 C27         0.7826   -0.6747    1.5532 C.3       1 <0>        -0.1452
     33 H3        -10.2409    2.3779    7.0289 H         1 <0>         0.0548
     34 H4         -9.3107    3.6119    6.1456 H         1 <0>         0.0574
     35 H5        -10.7776    2.9134    5.4185 H         1 <0>         0.0540
     36 H6         -9.6633    0.7017    5.2953 H         1 <0>         0.0633
     37 H7         -8.1964    1.4002    6.0225 H         1 <0>         0.0641
     38 H8         -6.7931    2.9735    4.7625 H         1 <0>         0.0568
     39 H9         -7.3262    3.5937    3.1815 H         1 <0>         0.0556
     40 H10        -8.1838    4.0801    4.6634 H         1 <0>         0.0617
     41 H11        -9.2318    0.8712    1.6789 H         1 <0>         0.1267
     42 H12        -8.0483   -0.9694    0.5527 H         1 <0>         0.1233
     43 H13        -5.1832   -1.0563    3.7264 H         1 <0>         0.1255
     44 H14        -6.3693    0.7903    4.8402 H         1 <0>         0.1265
     45 H15        -5.7270   -3.2694   -1.5903 H         1 <0>         0.4152
     46 H16        -4.3481   -5.4092   -1.8266 H         1 <0>         0.1299
     47 H17        -3.6812   -7.4574   -0.6388 H         1 <0>         0.1292
     48 H18        -3.9545   -7.6291    1.7975 H         1 <0>         0.1290
     49 H19        -4.8848   -5.7494    3.0808 H         1 <0>         0.1350
     50 H20        -3.3875   -2.3960   -1.7323 H         1 <0>         0.1228
     51 H21        -1.0586   -1.6025   -1.6335 H         1 <0>         0.1227
     52 H22        -1.8621    0.2905    2.1029 H         1 <0>         0.1220
     53 H23        -4.1929   -0.4970    2.0006 H         1 <0>         0.1272
     54 H24         0.6445   -0.4586   -0.5858 H         1 <0>         0.0779
     55 H25         1.1536    1.7630    0.3910 H         1 <0>         0.0595
     56 H26        -0.3588    1.8086   -0.5464 H         1 <0>         0.0560
     57 H27        -0.4152    1.7528    1.2318 H         1 <0>         0.0569
     58 H28         0.2447   -0.3335    2.4377 H         1 <0>         0.0568
     59 H29         0.7711   -1.7641    1.5186 H         1 <0>         0.0559
     60 H30         1.8135   -0.3234    1.5969 H         1 <0>         0.0597
@<TRIPOS>BOND
     1    1    2 1
     2    1   33 1
     3    1   34 1
     4    1   35 1
     5    2    3 1
     6    2   36 1
     7    2   37 1
     8    3    4 1
     9    3    5 1
    10    3    6 1
    11    5   38 1
    12    5   39 1
    13    5   40 1
    14    6   11 ar
    15    6    7 ar
    16    7    8 ar
    17    7   41 1
    18    8    9 ar
    19    8   42 1
    20    9   10 ar
    21    9   12 1
    22   10   11 ar
    23   10   43 1
    24   11   44 1
    25   12   22 am
    26   12   13 1
    27   13   14 1
    28   13   15 1
    29   13   24 1
    30   15   16 1
    31   15   45 1
    32   16   21 ar
    33   16   17 ar
    34   17   18 ar
    35   17   46 1
    36   18   19 ar
    37   18   47 1
    38   19   20 ar
    39   19   48 1
    40   20   21 ar
    41   20   49 1
    42   21   22 1
    43   22   23 2
    44   24   29 ar
    45   24   25 ar
    46   25   26 ar
    47   25   50 1
    48   26   27 ar
    49   26   51 1
    50   27   28 ar
    51   27   30 1
    52   28   29 ar
    53   28   52 1
    54   29   53 1
    55   30   31 1
    56   30   32 1
    57   30   54 1
    58   31   55 1
    59   31   56 1
    60   31   57 1
    61   32   58 1
    62   32   59 1
    63   32   60 1
@<TRIPOS>MOLECULE
ZINC02059637
   60    63     0     0     0
SMALL
USER_CHARGES
2-(4-isopropylphenyl)-3-(4-sec-butylphenyl)-1,2-dihydroquinazolin-4-one
@<TRIPOS>ATOM
      1 C1          4.6624    4.2107    1.1282 C.3       1 <0>        -0.1551
      2 C2          3.2999    3.5186    1.2019 C.3       1 <0>        -0.1165
      3 C3          2.4465    3.9436    0.0052 C.3       1 <0>        -0.0533
      4 H1          2.9884    3.7393   -0.9182 H         1 <0>         0.0789
      5 C4          2.1457    5.4408    0.0994 C.3       1 <0>        -0.1458
      6 C5          1.1532    3.1701    0.0105 C.ar      1 <0>        -0.0749
      7 C6          0.8294    2.3602   -1.0626 C.ar      1 <0>        -0.1026
      8 C7         -0.3553    1.6503   -1.0611 C.ar      1 <0>        -0.1011
      9 C8         -1.2243    1.7546    0.0174 C.ar      1 <0>         0.1361
     10 C9         -0.8933    2.5645    1.0961 C.ar      1 <0>        -0.1250
     11 C10         0.2927    3.2721    1.0881 C.ar      1 <0>        -0.0998
     12 N1         -2.4272    1.0412    0.0197 N.am      1 <0>        -0.5736
     13 C11        -3.6926    1.7657    0.1406 C.3       1 <0>         0.4295
     14 H2         -3.5233    2.7011    0.6740 H         1 <0>         0.1154
     15 N2         -4.6732    0.9582    0.8751 N.pl3     1 <0>        -0.7462
     16 C12        -4.7835   -0.3956    0.5778 C.ar      1 <0>         0.2388
     17 C13        -5.9730   -1.0842    0.7464 C.ar      1 <0>        -0.1832
     18 C14        -6.0319   -2.4315    0.4457 C.ar      1 <0>        -0.0504
     19 C15        -4.9107   -3.0985   -0.0227 C.ar      1 <0>        -0.1712
     20 C16        -3.7191   -2.4266   -0.1996 C.ar      1 <0>        -0.0197
     21 C17        -3.6465   -1.0670    0.0959 C.ar      1 <0>        -0.1984
     22 C18        -2.4012   -0.3017   -0.0951 C.2       1 <0>         0.5763
     23 O1         -1.3598   -0.8759   -0.3498 O.2       1 <0>        -0.5160
     24 C19        -4.2290    2.0661   -1.2353 C.ar      1 <0>        -0.1340
     25 C20        -3.3568    2.2575   -2.2905 C.ar      1 <0>        -0.0978
     26 C21        -3.8490    2.5282   -3.5536 C.ar      1 <0>        -0.1152
     27 C22        -5.2131    2.6175   -3.7594 C.ar      1 <0>        -0.0641
     28 C23        -6.0850    2.4318   -2.7029 C.ar      1 <0>        -0.1209
     29 C24        -5.5930    2.1558   -1.4409 C.ar      1 <0>        -0.0860
     30 C25        -5.7495    2.9178   -5.1353 C.3       1 <0>        -0.0592
     31 C26        -5.2147    4.2716   -5.6069 C.3       1 <0>        -0.1446
     32 C27        -5.3002    1.8253   -6.1075 C.3       1 <0>        -0.1452
     33 H3          4.5225    5.2915    1.1473 H         1 <0>         0.0574
     34 H4          5.2703    3.9079    1.9807 H         1 <0>         0.0547
     35 H5          5.1651    3.9257    0.2040 H         1 <0>         0.0543
     36 H6          2.7971    3.8036    2.1261 H         1 <0>         0.0634
     37 H7          3.4398    2.4378    1.1828 H         1 <0>         0.0635
     38 H8          1.6039    5.6451    1.0229 H         1 <0>         0.0564
     39 H9          3.0811    6.0003    0.0956 H         1 <0>         0.0616
     40 H10         1.5378    5.7436   -0.7531 H         1 <0>         0.0557
     41 H11         1.5038    2.2824   -1.9025 H         1 <0>         0.1267
     42 H12        -0.6078    1.0182   -1.8996 H         1 <0>         0.1258
     43 H13        -1.5650    2.6446    1.9380 H         1 <0>         0.1231
     44 H14         0.5485    3.9055    1.9247 H         1 <0>         0.1264
     45 H15        -5.2346    1.3616    1.5555 H         1 <0>         0.4153
     46 H16        -6.8502   -0.5708    1.1114 H         1 <0>         0.1300
     47 H17        -6.9592   -2.9694    0.5769 H         1 <0>         0.1292
     48 H18        -4.9707   -4.1523   -0.2512 H         1 <0>         0.1290
     49 H19        -2.8484   -2.9509   -0.5649 H         1 <0>         0.1351
     50 H20        -2.2910    2.1918   -2.1289 H         1 <0>         0.1270
     51 H21        -3.1678    2.6737   -4.3789 H         1 <0>         0.1220
     52 H22        -7.1507    2.5019   -2.8636 H         1 <0>         0.1226
     53 H23        -6.2743    2.0107   -0.6156 H         1 <0>         0.1229
     54 H24        -6.8385    2.9490   -5.1018 H         1 <0>         0.0779
     55 H25        -5.5348    5.0500   -4.9142 H         1 <0>         0.0560
     56 H26        -4.1257    4.2404   -5.6403 H         1 <0>         0.0569
     57 H27        -5.6027    4.4888   -6.6020 H         1 <0>         0.0595
     58 H28        -5.6811    0.8608   -5.7716 H         1 <0>         0.0559
     59 H29        -5.6881    2.0425   -7.1027 H         1 <0>         0.0596
     60 H30        -4.2111    1.7941   -6.1410 H         1 <0>         0.0568
@<TRIPOS>BOND
     1    1    2 1
     2    1   33 1
     3    1   34 1
     4    1   35 1
     5    2    3 1
     6    2   36 1
     7    2   37 1
     8    3    4 1
     9    3    5 1
    10    3    6 1
    11    5   38 1
    12    5   39 1
    13    5   40 1
    14    6   11 ar
    15    6    7 ar
    16    7    8 ar
    17    7   41 1
    18    8    9 ar
    19    8   42 1
    20    9   10 ar
    21    9   12 1
    22   10   11 ar
    23   10   43 1
    24   11   44 1
    25   12   22 am
    26   12   13 1
    27   13   14 1
    28   13   15 1
    29   13   24 1
    30   15   16 1
    31   15   45 1
    32   16   21 ar
    33   16   17 ar
    34   17   18 ar
    35   17   46 1
    36   18   19 ar
    37   18   47 1
    38   19   20 ar
    39   19   48 1
    40   20   21 ar
    41   20   49 1
    42   21   22 1
    43   22   23 2
    44   24   29 ar
    45   24   25 ar
    46   25   26 ar
    47   25   50 1
    48   26   27 ar
    49   26   51 1
    50   27   28 ar
    51   27   30 1
    52   28   29 ar
    53   28   52 1
    54   29   53 1
    55   30   31 1
    56   30   32 1
    57   30   54 1
    58   31   55 1
    59   31   56 1
    60   31   57 1
    61   32   58 1
    62   32   59 1
    63   32   60 1
@<TRIPOS>MOLECULE
ZINC02059638
   60    63     0     0     0
SMALL
USER_CHARGES
2-(4-isopropylphenyl)-3-(4-sec-butylphenyl)-1,2-dihydroquinazolin-4-one
@<TRIPOS>ATOM
      1 C1          1.3372   12.2205   -2.6903 C.3       1 <0>        -0.1551
      2 C2          1.8006   10.9402   -1.9923 C.3       1 <0>        -0.1165
      3 C3          0.7932    9.8202   -2.2600 C.3       1 <0>        -0.0533
      4 H1         -0.2014   10.1457   -1.9554 H         1 <0>         0.0789
      5 C4          0.7858    9.4871   -3.7533 C.3       1 <0>        -0.1458
      6 C5          1.1835    8.5951   -1.4740 C.ar      1 <0>        -0.0750
      7 C6          0.3119    8.0694   -0.5379 C.ar      1 <0>        -0.1025
      8 C7          0.6664    6.9465    0.1838 C.ar      1 <0>        -0.1011
      9 C8          1.8999    6.3455   -0.0311 C.ar      1 <0>         0.1365
     10 C9          2.7755    6.8796   -0.9676 C.ar      1 <0>        -0.1252
     11 C10         2.4123    7.9988   -1.6907 C.ar      1 <0>        -0.0997
     12 N1          2.2619    5.2082    0.6980 N.am      1 <0>        -0.5733
     13 C11         2.6021    3.9761   -0.0140 C.3       1 <0>         0.4292
     14 H2          2.9864    4.2252   -1.0031 H         1 <0>         0.1150
     15 N2          3.6238    3.2267    0.7263 N.pl3     1 <0>        -0.7463
     16 C12         3.4954    3.1042    2.1052 C.ar      1 <0>         0.2385
     17 C13         4.0096    2.0174    2.7919 C.ar      1 <0>        -0.1834
     18 C14         3.8817    1.9536    4.1662 C.ar      1 <0>        -0.0504
     19 C15         3.2465    2.9700    4.8625 C.ar      1 <0>        -0.1711
     20 C16         2.7255    4.0577    4.1931 C.ar      1 <0>        -0.0194
     21 C17         2.8355    4.1288    2.8064 C.ar      1 <0>        -0.1982
     22 C18         2.2918    5.2666    2.0444 C.2       1 <0>         0.5761
     23 O1          1.8731    6.2496    2.6251 O.2       1 <0>        -0.5163
     24 C19         1.3663    3.1258   -0.1585 C.ar      1 <0>        -0.1337
     25 C20         1.4763    1.7486   -0.2032 C.ar      1 <0>        -0.0861
     26 C21         0.3427    0.9686   -0.3357 C.ar      1 <0>        -0.1209
     27 C22        -0.9004    1.5661   -0.4287 C.ar      1 <0>        -0.0641
     28 C23        -1.0109    2.9431   -0.3787 C.ar      1 <0>        -0.1152
     29 C24         0.1227    3.7231   -0.2457 C.ar      1 <0>        -0.0977
     30 C25        -2.1356    0.7160   -0.5794 C.3       1 <0>        -0.0593
     31 C26        -3.0783    0.9731    0.5980 C.3       1 <0>        -0.1452
     32 C27        -2.8441    1.0733   -1.8875 C.3       1 <0>        -0.1446
     33 H3          1.2668   12.0440   -3.7636 H         1 <0>         0.0574
     34 H4          0.3599   12.5111   -2.3050 H         1 <0>         0.0544
     35 H5          2.0549   13.0184   -2.4996 H         1 <0>         0.0547
     36 H6          1.8710   11.1167   -0.9190 H         1 <0>         0.0635
     37 H7          2.7779   10.6496   -2.3777 H         1 <0>         0.0634
     38 H8          1.7805    9.1616   -4.0579 H         1 <0>         0.0564
     39 H9          0.0681    8.6892   -3.9440 H         1 <0>         0.0557
     40 H10         0.5035   10.3732   -4.3218 H         1 <0>         0.0616
     41 H11        -0.6471    8.5372   -0.3713 H         1 <0>         0.1268
     42 H12        -0.0148    6.5364    0.9147 H         1 <0>         0.1257
     43 H13         3.7374    6.4175   -1.1336 H         1 <0>         0.1231
     44 H14         3.0904    8.4115   -2.4230 H         1 <0>         0.1264
     45 H15         4.3744    2.8240    0.2623 H         1 <0>         0.4156
     46 H16         4.5076    1.2230    2.2558 H         1 <0>         0.1300
     47 H17         4.2802    1.1049    4.7023 H         1 <0>         0.1293
     48 H18         3.1586    2.9096    5.9372 H         1 <0>         0.1291
     49 H19         2.2357    4.8493    4.7407 H         1 <0>         0.1351
     50 H20         2.4479    1.2819   -0.1350 H         1 <0>         0.1228
     51 H21         0.4287   -0.1074   -0.3710 H         1 <0>         0.1226
     52 H22        -1.9824    3.4098   -0.4472 H         1 <0>         0.1220
     53 H23         0.0367    4.7991   -0.2104 H         1 <0>         0.1272
     54 H24        -1.8526   -0.3365   -0.5951 H         1 <0>         0.0779
     55 H25        -3.3613    2.0256    0.6137 H         1 <0>         0.0568
     56 H26        -3.9717    0.3583    0.4890 H         1 <0>         0.0596
     57 H27        -2.5735    0.7186    1.5299 H         1 <0>         0.0559
     58 H28        -3.1271    2.1258   -1.8717 H         1 <0>         0.0569
     59 H29        -2.1725    0.8901   -2.7262 H         1 <0>         0.0560
     60 H30        -3.7376    0.4585   -1.9965 H         1 <0>         0.0595
@<TRIPOS>BOND
     1    1    2 1
     2    1   33 1
     3    1   34 1
     4    1   35 1
     5    2    3 1
     6    2   36 1
     7    2   37 1
     8    3    4 1
     9    3    5 1
    10    3    6 1
    11    5   38 1
    12    5   39 1
    13    5   40 1
    14    6   11 ar
    15    6    7 ar
    16    7    8 ar
    17    7   41 1
    18    8    9 ar
    19    8   42 1
    20    9   10 ar
    21    9   12 1
    22   10   11 ar
    23   10   43 1
    24   11   44 1
    25   12   22 am
    26   12   13 1
    27   13   14 1
    28   13   15 1
    29   13   24 1
    30   15   16 1
    31   15   45 1
    32   16   21 ar
    33   16   17 ar
    34   17   18 ar
    35   17   46 1
    36   18   19 ar
    37   18   47 1
    38   19   20 ar
    39   19   48 1
    40   20   21 ar
    41   20   49 1
    42   21   22 1
    43   22   23 2
    44   24   29 ar
    45   24   25 ar
    46   25   26 ar
    47   25   50 1
    48   26   27 ar
    49   26   51 1
    50   27   28 ar
    51   27   30 1
    52   28   29 ar
    53   28   52 1
    54   29   53 1
    55   30   31 1
    56   30   32 1
    57   30   54 1
    58   31   55 1
    59   31   56 1
    60   31   57 1
    61   32   58 1
    62   32   59 1
    63   32   60 1
@<TRIPOS>MOLECULE
ZINC02059639
   60    63     0     0     0
SMALL
USER_CHARGES
2-(4-isopropylphenyl)-3-(4-sec-butylphenyl)-1,2-dihydroquinazolin-4-one
@<TRIPOS>ATOM
      1 C1          0.2718   10.6951   -4.5404 C.3       1 <0>        -0.1555
      2 C2          0.7870    9.4892   -3.7522 C.3       1 <0>        -0.1154
      3 C3          0.7940    9.8213   -2.2587 C.3       1 <0>        -0.0534
      4 H1         -0.2007   10.1467   -1.9542 H         1 <0>         0.0789
      5 C4          1.8014   10.9410   -1.9899 C.3       1 <0>        -0.1467
      6 C5          1.1839    8.5956   -1.4734 C.ar      1 <0>        -0.0750
      7 C6          0.3119    8.0694   -0.5379 C.ar      1 <0>        -0.1024
      8 C7          0.6664    6.9465    0.1838 C.ar      1 <0>        -0.1012
      9 C8          1.8999    6.3455   -0.0311 C.ar      1 <0>         0.1365
     10 C9          2.7755    6.8796   -0.9676 C.ar      1 <0>        -0.1253
     11 C10         2.4130    7.9999   -1.6894 C.ar      1 <0>        -0.0997
     12 N1          2.2619    5.2082    0.6980 N.am      1 <0>        -0.5734
     13 C11         2.6021    3.9761   -0.0140 C.3       1 <0>         0.4292
     14 H2          2.9864    4.2252   -1.0031 H         1 <0>         0.1150
     15 N2          3.6238    3.2267    0.7263 N.pl3     1 <0>        -0.7463
     16 C12         3.4954    3.1042    2.1052 C.ar      1 <0>         0.2385
     17 C13         4.0096    2.0174    2.7919 C.ar      1 <0>        -0.1834
     18 C14         3.8817    1.9536    4.1662 C.ar      1 <0>        -0.0504
     19 C15         3.2465    2.9700    4.8625 C.ar      1 <0>        -0.1712
     20 C16         2.7255    4.0577    4.1931 C.ar      1 <0>        -0.0194
     21 C17         2.8355    4.1288    2.8064 C.ar      1 <0>        -0.1983
     22 C18         2.2918    5.2666    2.0444 C.2       1 <0>         0.5762
     23 O1          1.8731    6.2496    2.6251 O.2       1 <0>        -0.5164
     24 C19         1.3663    3.1258   -0.1585 C.ar      1 <0>        -0.1338
     25 C20         1.4763    1.7486   -0.2032 C.ar      1 <0>        -0.0861
     26 C21         0.3427    0.9686   -0.3357 C.ar      1 <0>        -0.1209
     27 C22        -0.9004    1.5661   -0.4287 C.ar      1 <0>        -0.0641
     28 C23        -1.0109    2.9431   -0.3787 C.ar      1 <0>        -0.1152
     29 C24         0.1227    3.7231   -0.2457 C.ar      1 <0>        -0.0978
     30 C25        -2.1356    0.7160   -0.5794 C.3       1 <0>        -0.0593
     31 C26        -3.0783    0.9731    0.5980 C.3       1 <0>        -0.1452
     32 C27        -2.8441    1.0733   -1.8875 C.3       1 <0>        -0.1446
     33 H3          0.2668   10.4585   -5.6044 H         1 <0>         0.0546
     34 H4         -0.7411   10.9348   -4.2167 H         1 <0>         0.0543
     35 H5          0.9225   11.5511   -4.3615 H         1 <0>         0.0576
     36 H6          1.7999    9.2495   -4.0758 H         1 <0>         0.0634
     37 H7          0.1363    8.6333   -3.9310 H         1 <0>         0.0630
     38 H8          1.5194   11.8276   -2.5579 H         1 <0>         0.0618
     39 H9          1.8064   11.1776   -0.9259 H         1 <0>         0.0562
     40 H10         2.7961   10.6156   -2.2944 H         1 <0>         0.0563
     41 H11        -0.6471    8.5372   -0.3713 H         1 <0>         0.1268
     42 H12        -0.0148    6.5364    0.9147 H         1 <0>         0.1257
     43 H13         3.7374    6.4175   -1.1336 H         1 <0>         0.1231
     44 H14         3.0920    8.4138   -2.4202 H         1 <0>         0.1264
     45 H15         4.3744    2.8240    0.2623 H         1 <0>         0.4156
     46 H16         4.5076    1.2230    2.2558 H         1 <0>         0.1300
     47 H17         4.2802    1.1049    4.7023 H         1 <0>         0.1293
     48 H18         3.1586    2.9096    5.9372 H         1 <0>         0.1291
     49 H19         2.2357    4.8493    4.7407 H         1 <0>         0.1351
     50 H20         2.4479    1.2819   -0.1350 H         1 <0>         0.1228
     51 H21         0.4287   -0.1074   -0.3710 H         1 <0>         0.1226
     52 H22        -1.9824    3.4098   -0.4472 H         1 <0>         0.1220
     53 H23         0.0367    4.7991   -0.2104 H         1 <0>         0.1272
     54 H24        -1.8526   -0.3365   -0.5951 H         1 <0>         0.0779
     55 H25        -3.9717    0.3583    0.4890 H         1 <0>         0.0596
     56 H26        -2.5735    0.7186    1.5299 H         1 <0>         0.0559
     57 H27        -3.3613    2.0256    0.6137 H         1 <0>         0.0568
     58 H28        -2.1725    0.8901   -2.7262 H         1 <0>         0.0560
     59 H29        -3.7376    0.4585   -1.9965 H         1 <0>         0.0595
     60 H30        -3.1271    2.1258   -1.8717 H         1 <0>         0.0569
@<TRIPOS>BOND
     1    1    2 1
     2    1   33 1
     3    1   34 1
     4    1   35 1
     5    2    3 1
     6    2   36 1
     7    2   37 1
     8    3    4 1
     9    3    5 1
    10    3    6 1
    11    5   38 1
    12    5   39 1
    13    5   40 1
    14    6   11 ar
    15    6    7 ar
    16    7    8 ar
    17    7   41 1
    18    8    9 ar
    19    8   42 1
    20    9   10 ar
    21    9   12 1
    22   10   11 ar
    23   10   43 1
    24   11   44 1
    25   12   22 am
    26   12   13 1
    27   13   14 1
    28   13   15 1
    29   13   24 1
    30   15   16 1
    31   15   45 1
    32   16   21 ar
    33   16   17 ar
    34   17   18 ar
    35   17   46 1
    36   18   19 ar
    37   18   47 1
    38   19   20 ar
    39   19   48 1
    40   20   21 ar
    41   20   49 1
    42   21   22 1
    43   22   23 2
    44   24   29 ar
    45   24   25 ar
    46   25   26 ar
    47   25   50 1
    48   26   27 ar
    49   26   51 1
    50   27   28 ar
    51   27   30 1
    52   28   29 ar
    53   28   52 1
    54   29   53 1
    55   30   31 1
    56   30   32 1
    57   30   54 1
    58   31   55 1
    59   31   56 1
    60   31   57 1
    61   32   58 1
    62   32   59 1
    63   32   60 1
@<TRIPOS>MOLECULE
ZINC08438485
   69    72     0     0     0
SMALL
USER_CHARGES
N-[2-[(3-acetyl-2,4,6-trimethyl-phenyl)methylsulfanyl]benzothiazol-6-yl]-4-butoxy-benzamide
@<TRIPOS>ATOM
      1 C1          0.2091   10.8662  -18.4736 C.3       1 <0>        -0.1535
      2 C2         -0.0688   10.1334  -17.1595 C.3       1 <0>        -0.1215
      3 C3          0.9679    9.0251  -16.9645 C.3       1 <0>        -0.1211
      4 C4          0.6900    8.2923  -15.6505 C.3       1 <0>         0.0554
      5 O1          1.6582    7.2572  -15.4683 O.3       1 <0>        -0.3088
      6 C5          1.5531    6.5063  -14.3428 C.ar      1 <0>         0.1658
      7 C6          2.4632    5.4831  -14.1047 C.ar      1 <0>        -0.1601
      8 C7          2.3602    4.7192  -12.9637 C.ar      1 <0>        -0.0125
      9 C8          1.3389    4.9739  -12.0444 C.ar      1 <0>        -0.1823
     10 C9          0.4225    5.9999  -12.2903 C.ar      1 <0>        -0.0403
     11 C10         0.5359    6.7629  -13.4309 C.ar      1 <0>        -0.2182
     12 C11         1.2249    4.1577  -10.8202 C.2       1 <0>         0.5655
     13 O2          2.0202    3.2621  -10.6103 O.2       1 <0>        -0.5131
     14 N1          0.2393    4.4049   -9.9348 N.am      1 <0>        -0.6685
     15 C12         0.1969    3.7073   -8.7213 C.ar      1 <0>         0.1713
     16 C13        -1.0250    3.3648   -8.1469 C.ar      1 <0>        -0.1291
     17 C14        -1.0931    2.6883   -6.9692 C.ar      1 <0>        -0.0392
     18 C15         0.0815    2.3054   -6.2814 C.ar      1 <0>         0.0699
     19 C16         1.3070    2.6656   -6.8865 C.ar      1 <0>        -0.1250
     20 C17         1.3731    3.3484   -8.0747 C.ar      1 <0>        -0.0663
     21 S1          2.5006    2.0259   -5.7365 S.3       1 <0>         0.0501
     22 C18         1.3389    1.3336   -4.5681 C.2       1 <0>         0.1089
     23 N2          0.1813    1.6343   -5.1119 N.2       1 <0>        -0.4987
     24 S2          1.6635    0.4731   -3.0651 S.3       1 <0>         0.0535
     25 C19        -0.0305    0.1420   -2.5204 C.3       1 <0>        -0.0744
     26 C20        -0.0004   -0.6086   -1.2140 C.ar      1 <0>        -0.0966
     27 C21         0.0023    0.0877   -0.0176 C.ar      1 <0>        -0.0386
     28 C22         0.0241   -0.5925    1.1873 C.ar      1 <0>        -0.1265
     29 C23         0.0490   -1.9713    1.2045 C.ar      1 <0>        -0.0327
     30 C24         0.0518   -2.6819    0.0002 C.ar      1 <0>        -0.1637
     31 C25         0.0292   -1.9870   -1.2135 C.ar      1 <0>        -0.0217
     32 C26         0.0315   -2.7431   -2.5171 C.3       1 <0>        -0.1346
     33 C27         0.0778   -4.1533    0.0097 C.2       1 <0>         0.4087
     34 O3          1.1352   -4.7404    0.0958 O.2       1 <0>        -0.4432
     35 C28        -1.2098   -4.9303   -0.0876 C.3       1 <0>        -0.1922
     36 C29         0.0736   -2.7101    2.5178 C.3       1 <0>        -0.1268
     37 C30        -0.0249    1.5944   -0.0273 C.3       1 <0>        -0.1265
     38 H1         -0.5294   11.6557  -18.6125 H         1 <0>         0.0584
     39 H2          1.2070   11.3036  -18.4416 H         1 <0>         0.0566
     40 H3          0.1478   10.1613  -19.3027 H         1 <0>         0.0566
     41 H4         -1.0666    9.6959  -17.1915 H         1 <0>         0.0653
     42 H5         -0.0074   10.8383  -16.3304 H         1 <0>         0.0653
     43 H6          1.9658    9.4626  -16.9326 H         1 <0>         0.0757
     44 H7          0.9066    8.3202  -17.7936 H         1 <0>         0.0757
     45 H8         -0.3079    7.8549  -15.6824 H         1 <0>         0.0661
     46 H9          0.7513    8.9972  -14.8214 H         1 <0>         0.0661
     47 H10         3.2519    5.2866  -14.8158 H         1 <0>         0.1417
     48 H11         3.0679    3.9245  -12.7792 H         1 <0>         0.1460
     49 H12        -0.3710    6.1967  -11.5846 H         1 <0>         0.1292
     50 H13        -0.1691    7.5591  -13.6194 H         1 <0>         0.1367
     51 H14        -0.4408    5.0660  -10.1382 H         1 <0>         0.4136
     52 H15        -1.9399    3.6436   -8.6485 H         1 <0>         0.1391
     53 H16        -2.0583    2.4395   -6.5534 H         1 <0>         0.1388
     54 H17         2.3307    3.6043   -8.5037 H         1 <0>         0.1453
     55 H18        -0.5433   -0.4578   -3.2723 H         1 <0>         0.1102
     56 H19        -0.5597    1.0853   -2.3853 H         1 <0>         0.1132
     57 H20         0.0219   -0.0422    2.1166 H         1 <0>         0.1329
     58 H21        -0.9898   -3.0199   -2.7784 H         1 <0>         0.0817
     59 H22         0.4492   -2.1126   -3.3020 H         1 <0>         0.0801
     60 H23         0.6369   -3.6436   -2.4137 H         1 <0>         0.0724
     61 H24        -1.3788   -5.1773   -1.0418 H         1 <0>         0.0896
     62 H25        -1.1340   -5.8360    0.5142 H         1 <0>         0.0916
     63 H26        -2.0327   -4.3175    0.2802 H         1 <0>         0.0866
     64 H27        -0.9450   -2.8293    2.8868 H         1 <0>         0.0802
     65 H28         0.5252   -3.6917    2.3740 H         1 <0>         0.0676
     66 H29         0.6586   -2.1436    3.2424 H         1 <0>         0.0776
     67 H30         0.9960    1.9762   -0.0378 H         1 <0>         0.0818
     68 H31        -0.5521    1.9426   -0.9155 H         1 <0>         0.0719
     69 H32        -0.5382    1.9543    0.8643 H         1 <0>         0.0732
@<TRIPOS>BOND
     1    1    2 1
     2    1   38 1
     3    1   39 1
     4    1   40 1
     5    2    3 1
     6    2   41 1
     7    2   42 1
     8    3    4 1
     9    3   43 1
    10    3   44 1
    11    4    5 1
    12    4   45 1
    13    4   46 1
    14    5    6 1
    15    6   11 ar
    16    6    7 ar
    17    7    8 ar
    18    7   47 1
    19    8    9 ar
    20    8   48 1
    21    9   10 ar
    22    9   12 1
    23   10   11 ar
    24   10   49 1
    25   11   50 1
    26   12   13 2
    27   12   14 am
    28   14   15 1
    29   14   51 1
    30   15   20 ar
    31   15   16 ar
    32   16   17 ar
    33   16   52 1
    34   17   18 ar
    35   17   53 1
    36   18   23 1
    37   18   19 ar
    38   19   20 ar
    39   19   21 1
    40   20   54 1
    41   21   22 1
    42   22   23 2
    43   22   24 1
    44   24   25 1
    45   25   26 1
    46   25   55 1
    47   25   56 1
    48   26   31 ar
    49   26   27 ar
    50   27   28 ar
    51   27   37 1
    52   28   29 ar
    53   28   57 1
    54   29   30 ar
    55   29   36 1
    56   30   31 ar
    57   30   33 1
    58   31   32 1
    59   32   58 1
    60   32   59 1
    61   32   60 1
    62   33   34 2
    63   33   35 1
    64   35   61 1
    65   35   62 1
    66   35   63 1
    67   36   64 1
    68   36   65 1
    69   36   66 1
    70   37   67 1
    71   37   68 1
    72   37   69 1
@<TRIPOS>MOLECULE
ZINC03915436
   76    81     0     0     0
SMALL
USER_CHARGES
N-[4-[2-(6,7-dimethoxy-3,4-dihydro-1H-isoquinolin-2-yl)ethyl]phenyl]-5-methoxy-9-oxo-10H-acridine-4-carboxamide
@<TRIPOS>ATOM
      1 C1          7.5241   -2.0177   -3.4537 C.3       1 <0>         0.0286
      2 O1          6.4036   -2.7263   -2.9205 O.3       1 <0>        -0.3184
      3 C2          6.4165   -4.0808   -3.0391 C.ar      1 <0>         0.0747
      4 C3          7.4819   -4.7108   -3.6530 C.ar      1 <0>        -0.1434
      5 C4          7.5085   -6.0920   -3.7804 C.ar      1 <0>        -0.1192
      6 C5          6.4704   -6.8549   -3.2947 C.ar      1 <0>        -0.0584
      7 C6          5.3853   -6.2338   -2.6716 C.ar      1 <0>        -0.1779
      8 C7          5.3522   -4.8368   -2.5394 C.ar      1 <0>         0.1863
      9 N1          4.2868   -4.2096   -1.9262 N.pl3     1 <0>        -0.6109
     10 H1          4.2957   -3.2126   -1.8498 H         1 <0>         0.4414
     11 C8          3.2166   -4.8993   -1.4176 C.ar      1 <0>         0.2927
     12 C9          3.1552   -6.3004   -1.4991 C.ar      1 <0>        -0.2305
     13 C10         4.2620   -7.0304   -2.1442 C.2       1 <0>         0.4400
     14 O2          4.2496   -8.2444   -2.2367 O.2       1 <0>        -0.4555
     15 C11         2.0587   -6.9874   -0.9755 C.ar      1 <0>         0.0246
     16 C12         1.0300   -6.2911   -0.3750 C.ar      1 <0>        -0.1831
     17 C13         1.0766   -4.9124   -0.2823 C.ar      1 <0>        -0.0047
     18 C14         2.1587   -4.2042   -0.8023 C.ar      1 <0>        -0.2308
     19 C15         2.1978   -2.7338   -0.7027 C.2       1 <0>         0.5808
     20 O3          3.0871   -2.1107   -1.2502 O.2       1 <0>        -0.5246
     21 N2          1.2479   -2.0802   -0.0049 N.am      1 <0>        -0.6685
     22 C16         1.2313   -0.6819    0.0132 C.ar      1 <0>         0.1628
     23 C17         0.0213   -0.0006    0.0438 C.ar      1 <0>        -0.1393
     24 C18         0.0085    1.3803    0.0622 C.ar      1 <0>        -0.0876
     25 C19         1.1985    2.0846    0.0502 C.ar      1 <0>        -0.1225
     26 C20         2.4048    1.4093    0.0196 C.ar      1 <0>        -0.0878
     27 C21         2.4247    0.0285    0.0012 C.ar      1 <0>        -0.1157
     28 C22         1.1806    3.5914    0.0698 C.3       1 <0>        -0.0989
     29 C23         1.2001    4.0828    1.5186 C.3       1 <0>        -0.0012
     30 C24         1.4159    6.0641    2.8973 C.3       1 <0>         0.0020
     31 C25         1.7515    7.5527    2.8037 C.3       1 <0>        -0.1032
     32 C26         0.7196    8.2613    1.9639 C.ar      1 <0>        -0.0848
     33 C27         0.6403    9.6440    2.0443 C.ar      1 <0>        -0.1675
     34 C28        -0.2852   10.3371    1.2850 C.ar      1 <0>         0.1313
     35 C29        -1.1410    9.6402    0.4367 C.ar      1 <0>         0.1186
     36 C30        -1.0594    8.2615    0.3621 C.ar      1 <0>        -0.1562
     37 C31        -0.1298    7.5703    1.1263 C.ar      1 <0>        -0.1326
     38 C32        -0.0841    6.0690    1.0109 C.3       1 <0>         0.0533
     39 O4         -2.0537   10.3120   -0.3151 O.3       1 <0>        -0.2966
     40 C33        -2.8984    9.5301   -1.1619 C.3       1 <0>         0.0217
     41 O5         -0.3589   11.6926    1.3671 O.3       1 <0>        -0.2963
     42 C34         0.5515   12.3389    2.2590 C.3       1 <0>         0.0211
     43 H2          8.4342   -2.3469   -2.9523 H         1 <0>         0.0590
     44 H3          7.6054   -2.2174   -4.5222 H         1 <0>         0.0593
     45 H4          7.3875   -0.9482   -3.2934 H         1 <0>         0.1024
     46 H5          8.3017   -4.1224   -4.0377 H         1 <0>         0.1403
     47 H6          8.3477   -6.5711   -4.2626 H         1 <0>         0.1386
     48 H7          6.4950   -7.9300   -3.3951 H         1 <0>         0.1444
     49 H8          2.0155   -8.0646   -1.0407 H         1 <0>         0.1487
     50 H9          0.1838   -6.8272    0.0287 H         1 <0>         0.1428
     51 H10         0.2667   -4.3798    0.1939 H         1 <0>         0.1335
     52 H11         0.5757   -2.5796    0.4847 H         1 <0>         0.4168
     53 H12        -0.9084   -0.5500    0.0536 H         1 <0>         0.1332
     54 H13        -0.9321    1.9108    0.0814 H         1 <0>         0.1289
     55 H14         3.3325    1.9623    0.0106 H         1 <0>         0.1284
     56 H15         3.3672   -0.4983   -0.0222 H         1 <0>         0.1455
     57 H16         2.0570    3.9720   -0.4548 H         1 <0>         0.0951
     58 H17         0.2774    3.9505   -0.4236 H         1 <0>         0.0940
     59 H18         0.3237    3.7022    2.0432 H         1 <0>         0.1336
     60 H19         2.1032    3.7237    2.0120 H         1 <0>         0.1336
     61 H20         0.5172    5.9286    3.4990 H         1 <0>         0.1337
     62 H21         2.2491    5.5287    3.3526 H         1 <0>         0.1366
     63 H22         2.7342    7.6740    2.3481 H         1 <0>         0.1031
     64 H23         1.7612    7.9835    3.8049 H         1 <0>         0.1217
     65 H24         1.3052   10.1825    2.7034 H         1 <0>         0.1466
     66 H25        -1.7231    7.7195   -0.2953 H         1 <0>         0.1456
     67 H26        -0.1802    5.7857   -0.0373 H         1 <0>         0.1360
     68 H27        -0.9110    5.6394    1.5763 H         1 <0>         0.1381
     69 H28        -2.2864    8.9740   -1.8720 H         1 <0>         0.0589
     70 H29        -3.4755    8.8323   -0.5551 H         1 <0>         0.0591
     71 H30        -3.5777   10.1875   -1.7045 H         1 <0>         0.1106
     72 H31         0.3869   11.9746    3.2731 H         1 <0>         0.0604
     73 H32         1.5751   12.1191    1.9557 H         1 <0>         0.0602
     74 H33         0.3869   13.4160    2.2287 H         1 <0>         0.1110
     75 N3          1.1996    5.5633    1.5250 N.4       1 <0>        -0.3938
     76 H34         1.9589    5.9002    0.9215 H         1 <0>         0.4298
@<TRIPOS>BOND
     1    1    2 1
     2    1   43 1
     3    1   44 1
     4    1   45 1
     5    2    3 1
     6    3    8 ar
     7    3    4 ar
     8    4    5 ar
     9    4   46 1
    10    5    6 ar
    11    5   47 1
    12    6    7 ar
    13    6   48 1
    14    7   13 1
    15    7    8 ar
    16    8    9 1
    17    9   10 1
    18    9   11 1
    19   11   18 ar
    20   11   12 ar
    21   12   13 1
    22   12   15 ar
    23   13   14 2
    24   15   16 ar
    25   15   49 1
    26   16   17 ar
    27   16   50 1
    28   17   18 ar
    29   17   51 1
    30   18   19 1
    31   19   20 2
    32   19   21 am
    33   21   22 1
    34   21   52 1
    35   22   27 ar
    36   22   23 ar
    37   23   24 ar
    38   23   53 1
    39   24   25 ar
    40   24   54 1
    41   25   26 ar
    42   25   28 1
    43   26   27 ar
    44   26   55 1
    45   27   56 1
    46   28   29 1
    47   28   57 1
    48   28   58 1
    49   29   59 1
    50   29   60 1
    51   29   75 1
    52   30   31 1
    53   30   61 1
    54   30   62 1
    55   30   75 1
    56   31   32 1
    57   31   63 1
    58   31   64 1
    59   32   37 ar
    60   32   33 ar
    61   33   34 ar
    62   33   65 1
    63   34   35 ar
    64   34   41 1
    65   35   36 ar
    66   35   39 1
    67   36   37 ar
    68   36   66 1
    69   37   38 1
    70   38   67 1
    71   38   68 1
    72   38   75 1
    73   39   40 1
    74   40   69 1
    75   40   70 1
    76   40   71 1
    77   41   42 1
    78   42   72 1
    79   42   73 1
    80   42   74 1
    81   75   76 1
@<TRIPOS>MOLECULE
ZINC02059632
   55    58     0     0     0
SMALL
USER_CHARGES
2-(4-methoxyphenyl)-3-(4-sec-butylphenyl)-1,2-dihydroquinazolin-4-one
@<TRIPOS>ATOM
      1 C1         -2.1485    0.8244   -1.2114 C.3       1 <0>        -0.1549
      2 C2         -2.8219    1.5156   -0.0241 C.3       1 <0>        -0.1170
      3 C3         -2.1662    1.0485    1.2770 C.3       1 <0>        -0.0529
      4 H1         -2.2006   -0.0396    1.3309 H         1 <0>         0.0786
      5 C4         -0.7094    1.5149    1.3100 C.3       1 <0>        -0.1462
      6 C5         -2.9077    1.6333    2.4514 C.ar      1 <0>        -0.0754
      7 C6         -2.9937    3.0056    2.5990 C.ar      1 <0>        -0.0994
      8 C7         -3.6773    3.5448    3.6711 C.ar      1 <0>        -0.1029
      9 C8         -4.2691    2.7071    4.6077 C.ar      1 <0>         0.1364
     10 C9         -4.1760    1.3293    4.4595 C.ar      1 <0>        -0.1246
     11 C10        -3.4958    0.7965    3.3821 C.ar      1 <0>        -0.1025
     12 N1         -4.9576    3.2499    5.6973 N.am      1 <0>        -0.5744
     13 C11        -4.5360    2.9092    7.0563 C.3       1 <0>         0.4335
     14 H2         -4.0561    1.9306    7.0506 H         1 <0>         0.1150
     15 N2         -5.6954    2.8728    7.9549 N.pl3     1 <0>        -0.7466
     16 C12        -6.6500    3.8792    7.8579 C.ar      1 <0>         0.2384
     17 C13        -7.4106    4.2697    8.9471 C.ar      1 <0>        -0.1830
     18 C14        -8.3535    5.2688    8.8001 C.ar      1 <0>        -0.0502
     19 C15        -8.5443    5.8822    7.5718 C.ar      1 <0>        -0.1712
     20 C16        -7.7928    5.5074    6.4775 C.ar      1 <0>        -0.0199
     21 C17        -6.8354    4.5042    6.6125 C.ar      1 <0>        -0.1985
     22 C18        -5.9949    4.0824    5.4775 C.2       1 <0>         0.5763
     23 O1         -6.2370    4.4778    4.3532 O.2       1 <0>        -0.5163
     24 C19        -3.5557    3.9427    7.5483 C.ar      1 <0>        -0.1680
     25 C20        -2.7302    4.5937    6.6502 C.ar      1 <0>        -0.0596
     26 C21        -1.8347    5.5455    7.0981 C.ar      1 <0>        -0.2087
     27 C22        -1.7561    5.8398    8.4515 C.ar      1 <0>         0.1380
     28 C23        -2.5815    5.1811    9.3513 C.ar      1 <0>        -0.1542
     29 C24        -3.4793    4.2342    8.8978 C.ar      1 <0>        -0.0491
     30 O2         -0.8724    6.7720    8.8952 O.3       1 <0>        -0.3161
     31 C25        -0.0545    7.4101    7.9124 C.3       1 <0>         0.0258
     32 H3         -1.0888    1.0790   -1.2267 H         1 <0>         0.0574
     33 H4         -2.6157    1.1572   -2.1382 H         1 <0>         0.0549
     34 H5         -2.2614   -0.2555   -1.1149 H         1 <0>         0.0540
     35 H6         -2.7090    2.5955   -0.1205 H         1 <0>         0.0639
     36 H7         -3.8817    1.2611   -0.0087 H         1 <0>         0.0634
     37 H8         -0.1731    1.0919    0.4606 H         1 <0>         0.0617
     38 H9         -0.6750    2.6030    1.2561 H         1 <0>         0.0566
     39 H10        -0.2423    1.1821    2.2369 H         1 <0>         0.0556
     40 H11        -2.5293    3.6564    1.8729 H         1 <0>         0.1263
     41 H12        -3.7480    4.6166    3.7834 H         1 <0>         0.1253
     42 H13        -4.6348    0.6752    5.1863 H         1 <0>         0.1239
     43 H14        -3.4233   -0.2748    3.2662 H         1 <0>         0.1269
     44 H15        -5.7943    2.1595    8.6047 H         1 <0>         0.4157
     45 H16        -7.2676    3.7955    9.9068 H         1 <0>         0.1306
     46 H17        -8.9469    5.5744    9.6492 H         1 <0>         0.1294
     47 H18        -9.2869    6.6599    7.4708 H         1 <0>         0.1290
     48 H19        -7.9451    5.9886    5.5227 H         1 <0>         0.1349
     49 H20        -2.7887    4.3610    5.5972 H         1 <0>         0.1304
     50 H21        -1.1933    6.0569    6.3957 H         1 <0>         0.1296
     51 H22        -2.5220    5.4082   10.4055 H         1 <0>         0.1331
     52 H23        -4.1218    3.7209    9.5978 H         1 <0>         0.1310
     53 H24         0.6038    8.1297    8.3992 H         1 <0>         0.1024
     54 H25         0.5452    6.6603    7.3964 H         1 <0>         0.0568
     55 H26        -0.6885    7.9270    7.1920 H         1 <0>         0.0565
@<TRIPOS>BOND
     1    1    2 1
     2    1   32 1
     3    1   33 1
     4    1   34 1
     5    2    3 1
     6    2   35 1
     7    2   36 1
     8    3    4 1
     9    3    5 1
    10    3    6 1
    11    5   37 1
    12    5   38 1
    13    5   39 1
    14    6   11 ar
    15    6    7 ar
    16    7    8 ar
    17    7   40 1
    18    8    9 ar
    19    8   41 1
    20    9   10 ar
    21    9   12 1
    22   10   11 ar
    23   10   42 1
    24   11   43 1
    25   12   22 am
    26   12   13 1
    27   13   14 1
    28   13   15 1
    29   13   24 1
    30   15   16 1
    31   15   44 1
    32   16   21 ar
    33   16   17 ar
    34   17   18 ar
    35   17   45 1
    36   18   19 ar
    37   18   46 1
    38   19   20 ar
    39   19   47 1
    40   20   21 ar
    41   20   48 1
    42   21   22 1
    43   22   23 2
    44   24   29 ar
    45   24   25 ar
    46   25   26 ar
    47   25   49 1
    48   26   27 ar
    49   26   50 1
    50   27   28 ar
    51   27   30 1
    52   28   29 ar
    53   28   51 1
    54   29   52 1
    55   30   31 1
    56   31   53 1
    57   31   54 1
    58   31   55 1
@<TRIPOS>MOLECULE
ZINC02059633
   55    58     0     0     0
SMALL
USER_CHARGES
2-(4-methoxyphenyl)-3-(4-sec-butylphenyl)-1,2-dihydroquinazolin-4-one
@<TRIPOS>ATOM
      1 C1          3.9127    2.1338    7.5614 C.3       1 <0>        -0.1554
      2 C2          2.9908    1.8108    6.3838 C.3       1 <0>        -0.1158
      3 C3          2.3537    3.1017    5.8658 C.3       1 <0>        -0.0529
      4 H1          3.1361    3.8202    5.6210 H         1 <0>         0.0786
      5 C4          1.4415    3.6889    6.9446 C.3       1 <0>        -0.1471
      6 C5          1.5431    2.8016    4.6313 C.ar      1 <0>        -0.0754
      7 C6          1.8565    3.4177    3.4336 C.ar      1 <0>        -0.1025
      8 C7          1.1159    3.1446    2.3003 C.ar      1 <0>        -0.1247
      9 C8          0.0551    2.2503    2.3646 C.ar      1 <0>         0.1364
     10 C9         -0.2608    1.6380    3.5706 C.ar      1 <0>        -0.1028
     11 C10         0.4873    1.9112    4.6988 C.ar      1 <0>        -0.0993
     12 N1         -0.6969    1.9715    1.2189 N.am      1 <0>        -0.5743
     13 C11        -0.0277    1.4377    0.0323 C.3       1 <0>         0.4337
     14 H2          1.0115    1.7663    0.0254 H         1 <0>         0.1155
     15 N2         -0.6967    1.9160   -1.1831 N.pl3     1 <0>        -0.7459
     16 C12        -2.0832    1.9159   -1.2313 C.ar      1 <0>         0.2390
     17 C13        -2.7731    1.7833   -2.4245 C.ar      1 <0>        -0.1838
     18 C14        -4.1543    1.8163   -2.4234 C.ar      1 <0>        -0.0498
     19 C15        -4.8540    1.9847   -1.2387 C.ar      1 <0>        -0.1717
     20 C16        -4.1820    2.1145   -0.0411 C.ar      1 <0>        -0.0194
     21 C17        -2.7900    2.0698   -0.0256 C.ar      1 <0>        -0.1993
     22 C18        -2.0256    2.1988    1.2273 C.2       1 <0>         0.5763
     23 O1         -2.5884    2.5080    2.2600 O.2       1 <0>        -0.5167
     24 C19        -0.0746   -0.0682    0.0680 C.ar      1 <0>        -0.1680
     25 C20        -0.0915   -0.7296    1.2820 C.ar      1 <0>        -0.0594
     26 C21        -0.1402   -2.1097    1.3174 C.ar      1 <0>        -0.2087
     27 C22        -0.1607   -2.8325    0.1334 C.ar      1 <0>         0.1381
     28 C23        -0.1380   -2.1667   -1.0835 C.ar      1 <0>        -0.1541
     29 C24        -0.0950   -0.7862   -1.1135 C.ar      1 <0>        -0.0492
     30 O2         -0.2034   -4.1904    0.1656 O.3       1 <0>        -0.3161
     31 C25        -0.2248   -4.8085    1.4538 C.3       1 <0>         0.0258
     32 H3          3.3335    2.5988    8.3593 H         1 <0>         0.0577
     33 H4          4.3665    1.2141    7.9305 H         1 <0>         0.0546
     34 H5          4.6946    2.8187    7.2335 H         1 <0>         0.0542
     35 H6          2.2089    1.1259    6.7118 H         1 <0>         0.0636
     36 H7          3.5700    1.3458    5.5860 H         1 <0>         0.0629
     37 H8          0.9876    4.6086    6.5756 H         1 <0>         0.0561
     38 H9          0.6592    2.9705    7.1894 H         1 <0>         0.0570
     39 H10         2.0278    3.9060    7.8375 H         1 <0>         0.0617
     40 H11         2.6814    4.1130    3.3842 H         1 <0>         0.1269
     41 H12         1.3611    3.6261    1.3652 H         1 <0>         0.1239
     42 H13        -1.0881    0.9458    3.6250 H         1 <0>         0.1253
     43 H14         0.2452    1.4317    5.6358 H         1 <0>         0.1263
     44 H15        -0.1791    2.2266   -1.9424 H         1 <0>         0.4155
     45 H16        -2.2341    1.6548   -3.3515 H         1 <0>         0.1305
     46 H17        -4.6933    1.7104   -3.3533 H         1 <0>         0.1293
     47 H18        -5.9335    2.0142   -1.2535 H         1 <0>         0.1289
     48 H19        -4.7317    2.2502    0.8786 H         1 <0>         0.1348
     49 H20        -0.0710   -0.1666    2.2035 H         1 <0>         0.1304
     50 H21        -0.1577   -2.6258    2.2660 H         1 <0>         0.1296
     51 H22        -0.1536   -2.7271   -2.0065 H         1 <0>         0.1331
     52 H23        -0.0770   -0.2674   -2.0605 H         1 <0>         0.1308
     53 H24        -0.2586   -5.8917    1.3366 H         1 <0>         0.1024
     54 H25         0.6736   -4.5306    2.0050 H         1 <0>         0.0568
     55 H26        -1.1055   -4.4747    2.0025 H         1 <0>         0.0566
@<TRIPOS>BOND
     1    1    2 1
     2    1   32 1
     3    1   33 1
     4    1   34 1
     5    2    3 1
     6    2   35 1
     7    2   36 1
     8    3    4 1
     9    3    5 1
    10    3    6 1
    11    5   37 1
    12    5   38 1
    13    5   39 1
    14    6   11 ar
    15    6    7 ar
    16    7    8 ar
    17    7   40 1
    18    8    9 ar
    19    8   41 1
    20    9   10 ar
    21    9   12 1
    22   10   11 ar
    23   10   42 1
    24   11   43 1
    25   12   22 am
    26   12   13 1
    27   13   14 1
    28   13   15 1
    29   13   24 1
    30   15   16 1
    31   15   44 1
    32   16   21 ar
    33   16   17 ar
    34   17   18 ar
    35   17   45 1
    36   18   19 ar
    37   18   46 1
    38   19   20 ar
    39   19   47 1
    40   20   21 ar
    41   20   48 1
    42   21   22 1
    43   22   23 2
    44   24   29 ar
    45   24   25 ar
    46   25   26 ar
    47   25   49 1
    48   26   27 ar
    49   26   50 1
    50   27   28 ar
    51   27   30 1
    52   28   29 ar
    53   28   51 1
    54   29   52 1
    55   30   31 1
    56   31   53 1
    57   31   54 1
    58   31   55 1
@<TRIPOS>MOLECULE
ZINC02059634
   55    58     0     0     0
SMALL
USER_CHARGES
2-(4-methoxyphenyl)-3-(4-sec-butylphenyl)-1,2-dihydroquinazolin-4-one
@<TRIPOS>ATOM
      1 C1         -9.2620    5.8475    2.8184 C.3       1 <0>        -0.1551
      2 C2         -8.3587    4.8432    2.0997 C.3       1 <0>        -0.1165
      3 C3         -6.8934    5.1929    2.3670 C.3       1 <0>        -0.0534
      4 H1         -6.7084    6.2277    2.0788 H         1 <0>         0.0788
      5 C4         -6.5904    5.0163    3.8563 C.3       1 <0>        -0.1459
      6 C5         -6.0043    4.2806    1.5619 C.ar      1 <0>        -0.0751
      7 C6         -5.1315    4.8132    0.6308 C.ar      1 <0>        -0.1026
      8 C7         -4.3148    3.9799   -0.1081 C.ar      1 <0>        -0.1025
      9 C8         -4.3709    2.6056    0.0846 C.ar      1 <0>         0.1364
     10 C9         -5.2527    2.0735    1.0164 C.ar      1 <0>        -0.1248
     11 C10        -6.0627    2.9127    1.7561 C.ar      1 <0>        -0.0995
     12 N1         -3.5455    1.7589   -0.6623 N.am      1 <0>        -0.5742
     13 C11        -2.6199    0.8625    0.0308 C.3       1 <0>         0.4334
     14 H2         -3.0173    0.6263    1.0179 H         1 <0>         0.1150
     15 N2         -2.4492   -0.3801   -0.7310 N.pl3     1 <0>        -0.7467
     16 C12        -2.2865   -0.3025   -2.1095 C.ar      1 <0>         0.2383
     17 C13        -1.5773   -1.2595   -2.8153 C.ar      1 <0>        -0.1832
     18 C14        -1.4668   -1.1548   -4.1885 C.ar      1 <0>        -0.0502
     19 C15        -2.0624   -0.1016   -4.8648 C.ar      1 <0>        -0.1712
     20 C16        -2.7689    0.8625   -4.1763 C.ar      1 <0>        -0.0196
     21 C17        -2.8776    0.7765   -2.7903 C.ar      1 <0>        -0.1984
     22 C18        -3.6170    1.7827   -2.0083 C.2       1 <0>         0.5762
     23 O1         -4.2856    2.6277   -2.5721 O.2       1 <0>        -0.5167
     24 C19        -1.2839    1.5435    0.1806 C.ar      1 <0>        -0.1679
     25 C20        -0.1246    0.7904    0.2077 C.ar      1 <0>        -0.0493
     26 C21         1.1018    1.4127    0.3388 C.ar      1 <0>        -0.1542
     27 C22         1.1691    2.7940    0.4491 C.ar      1 <0>         0.1380
     28 C23         0.0041    3.5469    0.4274 C.ar      1 <0>        -0.2087
     29 C24        -1.2198    2.9198    0.2961 C.ar      1 <0>        -0.0595
     30 O2          2.3744    3.4085    0.5777 O.3       1 <0>        -0.3161
     31 C25         2.3678    4.8334    0.6863 C.3       1 <0>         0.0259
     32 H3        -10.3059    5.5984    2.6280 H         1 <0>         0.0548
     33 H4         -9.0686    5.8077    3.8904 H         1 <0>         0.0574
     34 H5         -9.0548    6.8518    2.4489 H         1 <0>         0.0543
     35 H6         -8.5520    4.8830    1.0277 H         1 <0>         0.0635
     36 H7         -8.5658    3.8389    2.4693 H         1 <0>         0.0635
     37 H8         -6.7754    3.9815    4.1445 H         1 <0>         0.0566
     38 H9         -5.5465    5.2654    4.0467 H         1 <0>         0.0556
     39 H10        -7.2334    5.6762    4.4386 H         1 <0>         0.0616
     40 H11        -5.0884    5.8819    0.4815 H         1 <0>         0.1266
     41 H12        -3.6334    4.3965   -0.8351 H         1 <0>         0.1254
     42 H13        -5.3017    1.0050    1.1657 H         1 <0>         0.1237
     43 H14        -6.7451    2.4999    2.4843 H         1 <0>         0.1266
     44 H15        -2.4496   -1.2395   -0.2811 H         1 <0>         0.4159
     45 H16        -1.1123   -2.0837   -2.2948 H         1 <0>         0.1306
     46 H17        -0.9115   -1.8995   -4.7395 H         1 <0>         0.1294
     47 H18        -1.9722   -0.0351   -5.9390 H         1 <0>         0.1290
     48 H19        -3.2345    1.6789   -4.7083 H         1 <0>         0.1349
     49 H20        -0.1776   -0.2849    0.1218 H         1 <0>         0.1309
     50 H21         2.0073    0.8243    0.3557 H         1 <0>         0.1331
     51 H22         0.0540    4.6224    0.5127 H         1 <0>         0.1296
     52 H23        -2.1270    3.5055    0.2789 H         1 <0>         0.1304
     53 H24         3.3914    5.1951    0.7832 H         1 <0>         0.1024
     54 H25         1.9134    5.2637   -0.2061 H         1 <0>         0.0565
     55 H26         1.7936    5.1281    1.5646 H         1 <0>         0.0569
@<TRIPOS>BOND
     1    1    2 1
     2    1   32 1
     3    1   33 1
     4    1   34 1
     5    2    3 1
     6    2   35 1
     7    2   36 1
     8    3    4 1
     9    3    5 1
    10    3    6 1
    11    5   37 1
    12    5   38 1
    13    5   39 1
    14    6   11 ar
    15    6    7 ar
    16    7    8 ar
    17    7   40 1
    18    8    9 ar
    19    8   41 1
    20    9   10 ar
    21    9   12 1
    22   10   11 ar
    23   10   42 1
    24   11   43 1
    25   12   22 am
    26   12   13 1
    27   13   14 1
    28   13   15 1
    29   13   24 1
    30   15   16 1
    31   15   44 1
    32   16   21 ar
    33   16   17 ar
    34   17   18 ar
    35   17   45 1
    36   18   19 ar
    37   18   46 1
    38   19   20 ar
    39   19   47 1
    40   20   21 ar
    41   20   48 1
    42   21   22 1
    43   22   23 2
    44   24   29 ar
    45   24   25 ar
    46   25   26 ar
    47   25   49 1
    48   26   27 ar
    49   26   50 1
    50   27   28 ar
    51   27   30 1
    52   28   29 ar
    53   28   51 1
    54   29   52 1
    55   30   31 1
    56   31   53 1
    57   31   54 1
    58   31   55 1
@<TRIPOS>MOLECULE
ZINC02059635
   55    58     0     0     0
SMALL
USER_CHARGES
2-(4-methoxyphenyl)-3-(4-sec-butylphenyl)-1,2-dihydroquinazolin-4-one
@<TRIPOS>ATOM
      1 C1         -7.4043    6.0298    4.6646 C.3       1 <0>        -0.1556
      2 C2         -6.5916    5.0167    3.8559 C.3       1 <0>        -0.1154
      3 C3         -6.8939    5.1928    2.3665 C.3       1 <0>        -0.0534
      4 H1         -6.7091    6.2276    2.0781 H         1 <0>         0.0788
      5 C4         -8.3590    4.8426    2.0986 C.3       1 <0>        -0.1467
      6 C5         -6.0042    4.2806    1.5620 C.ar      1 <0>        -0.0751
      7 C6         -5.1312    4.8132    0.6312 C.ar      1 <0>        -0.1026
      8 C7         -4.3148    3.9799   -0.1081 C.ar      1 <0>        -0.1026
      9 C8         -4.3709    2.6056    0.0846 C.ar      1 <0>         0.1364
     10 C9         -5.2526    2.0735    1.0165 C.ar      1 <0>        -0.1248
     11 C10        -6.0629    2.9126    1.7559 C.ar      1 <0>        -0.0994
     12 N1         -3.5455    1.7589   -0.6623 N.am      1 <0>        -0.5742
     13 C11        -2.6198    0.8626    0.0308 C.3       1 <0>         0.4334
     14 H2         -3.0172    0.6264    1.0179 H         1 <0>         0.1150
     15 N2         -2.4492   -0.3801   -0.7310 N.pl3     1 <0>        -0.7467
     16 C12        -2.2865   -0.3025   -2.1095 C.ar      1 <0>         0.2383
     17 C13        -1.5776   -1.2598   -2.8153 C.ar      1 <0>        -0.1833
     18 C14        -1.4668   -1.1548   -4.1885 C.ar      1 <0>        -0.0501
     19 C15        -2.0624   -0.1016   -4.8648 C.ar      1 <0>        -0.1712
     20 C16        -2.7690    0.8624   -4.1763 C.ar      1 <0>        -0.0196
     21 C17        -2.8777    0.7765   -2.7903 C.ar      1 <0>        -0.1984
     22 C18        -3.6170    1.7827   -2.0083 C.2       1 <0>         0.5762
     23 O1         -4.2857    2.6276   -2.5721 O.2       1 <0>        -0.5167
     24 C19        -1.2838    1.5435    0.1806 C.ar      1 <0>        -0.1678
     25 C20        -0.1246    0.7905    0.2076 C.ar      1 <0>        -0.0492
     26 C21         1.1018    1.4128    0.3387 C.ar      1 <0>        -0.1542
     27 C22         1.1691    2.7941    0.4489 C.ar      1 <0>         0.1380
     28 C23         0.0041    3.5470    0.4273 C.ar      1 <0>        -0.2087
     29 C24        -1.2198    2.9199    0.2960 C.ar      1 <0>        -0.0595
     30 O2          2.3744    3.4087    0.5775 O.3       1 <0>        -0.3162
     31 C25         2.3678    4.8335    0.6861 C.3       1 <0>         0.0258
     32 H3         -7.1889    5.9044    5.7257 H         1 <0>         0.0546
     33 H4         -7.1355    7.0402    4.3563 H         1 <0>         0.0542
     34 H5         -8.4674    5.8668    4.4879 H         1 <0>         0.0577
     35 H6         -6.8603    4.0063    4.1642 H         1 <0>         0.0636
     36 H7         -5.5284    5.1798    4.0326 H         1 <0>         0.0629
     37 H8         -8.5744    4.9681    1.0375 H         1 <0>         0.0562
     38 H9         -8.5439    3.8079    2.3870 H         1 <0>         0.0565
     39 H10        -9.0026    5.5025    2.6805 H         1 <0>         0.0618
     40 H11        -5.0880    5.8819    0.4819 H         1 <0>         0.1266
     41 H12        -3.6336    4.3964   -0.8354 H         1 <0>         0.1254
     42 H13        -5.3022    1.0049    1.1652 H         1 <0>         0.1237
     43 H14        -6.7463    2.4998    2.4831 H         1 <0>         0.1266
     44 H15        -2.4495   -1.2395   -0.2811 H         1 <0>         0.4159
     45 H16        -1.1129   -2.0841   -2.2948 H         1 <0>         0.1306
     46 H17        -0.9118   -1.8997   -4.7395 H         1 <0>         0.1294
     47 H18        -1.9724   -0.0352   -5.9390 H         1 <0>         0.1290
     48 H19        -3.2352    1.6784   -4.7084 H         1 <0>         0.1349
     49 H20        -0.1775   -0.2848    0.1217 H         1 <0>         0.1309
     50 H21         2.0073    0.8245    0.3556 H         1 <0>         0.1331
     51 H22         0.0539    4.6225    0.5126 H         1 <0>         0.1297
     52 H23        -2.1270    3.5056    0.2788 H         1 <0>         0.1304
     53 H24         3.3914    5.1953    0.7830 H         1 <0>         0.1024
     54 H25         1.9133    5.2638   -0.2064 H         1 <0>         0.0565
     55 H26         1.7935    5.1283    1.5644 H         1 <0>         0.0569
@<TRIPOS>BOND
     1    1    2 1
     2    1   32 1
     3    1   33 1
     4    1   34 1
     5    2    3 1
     6    2   35 1
     7    2   36 1
     8    3    4 1
     9    3    5 1
    10    3    6 1
    11    5   37 1
    12    5   38 1
    13    5   39 1
    14    6   11 ar
    15    6    7 ar
    16    7    8 ar
    17    7   40 1
    18    8    9 ar
    19    8   41 1
    20    9   10 ar
    21    9   12 1
    22   10   11 ar
    23   10   42 1
    24   11   43 1
    25   12   22 am
    26   12   13 1
    27   13   14 1
    28   13   15 1
    29   13   24 1
    30   15   16 1
    31   15   44 1
    32   16   21 ar
    33   16   17 ar
    34   17   18 ar
    35   17   45 1
    36   18   19 ar
    37   18   46 1
    38   19   20 ar
    39   19   47 1
    40   20   21 ar
    41   20   48 1
    42   21   22 1
    43   22   23 2
    44   24   29 ar
    45   24   25 ar
    46   25   26 ar
    47   25   49 1
    48   26   27 ar
    49   26   50 1
    50   27   28 ar
    51   27   30 1
    52   28   29 ar
    53   28   51 1
    54   29   52 1
    55   30   31 1
    56   31   53 1
    57   31   54 1
    58   31   55 1
@<TRIPOS>MOLECULE
ZINC19418959
   53    56     0     0     0
SMALL
USER_CHARGES

@<TRIPOS>ATOM
      1 C1          0.4204    1.5427   -0.3194 C.3       1 <0>        -0.0460
      2 N1          0.3487    0.0771   -0.2504 N.4       1 <0>        -0.3881
      3 C2          0.9699   -0.5001   -1.4498 C.3       1 <0>        -0.0029
      4 C3          0.8787   -2.0264   -1.3873 C.3       1 <0>         0.0253
      5 N2          1.5653   -2.5063   -0.1797 N.3       1 <0>        -0.5381
      6 C4          0.9701   -1.9172    1.0281 C.3       1 <0>         0.0200
      7 C5          1.0605   -0.3919    0.9458 C.3       1 <0>        -0.0028
      8 C6          1.5488   -3.9737   -0.1128 C.3       1 <0>         0.0563
      9 C7          2.4763   -4.4435    1.0097 C.3       1 <0>        -0.1490
     10 C8          2.4590   -5.9719    1.0794 C.3       1 <0>         0.1115
     11 N3          3.3471   -6.4217    2.1542 N.pl3     1 <0>        -0.5624
     12 C9          2.7947   -6.5759    3.4230 C.ar      1 <0>         0.1921
     13 C10         1.6439   -5.8634    3.7445 C.ar      1 <0>        -0.1625
     14 C11         1.0657   -5.9970    4.9923 C.ar      1 <0>        -0.0785
     15 C12         1.6269   -6.8403    5.9324 C.ar      1 <0>        -0.1323
     16 C13         2.7718   -7.5521    5.6246 C.ar      1 <0>        -0.0529
     17 C14         3.3588   -7.4215    4.3741 C.ar      1 <0>        -0.1573
     18 S1          4.8225   -8.3286    4.0036 S.3       1 <0>         0.0431
     19 C15         5.4784   -7.5174    2.5843 C.ar      1 <0>        -0.1233
     20 C16         4.6781   -6.6680    1.8281 C.ar      1 <0>         0.1899
     21 C17         5.2223   -6.0407    0.7125 C.ar      1 <0>        -0.1146
     22 C18         6.5389   -6.2664    0.3573 C.ar      1 <0>        -0.1463
     23 C19         7.3258   -7.1180    1.1085 C.ar      1 <0>        -0.0830
     24 C20         6.7996   -7.7356    2.2221 C.ar      1 <0>        -0.0588
     25 C21         7.1179   -5.5814   -0.8538 C.3       1 <0>         0.5109
     26 F1          7.6743   -4.3552   -0.4745 F         1 <0>        -0.1740
     27 F2          8.1112   -6.3901   -1.4165 F         1 <0>        -0.1704
     28 F3          6.1057   -5.3632   -1.7946 F         1 <0>        -0.1785
     29 H1          1.4638    1.8534   -0.3722 H         1 <0>         0.1234
     30 H2         -0.1078    1.8910   -1.2070 H         1 <0>         0.1248
     31 H3         -0.0417    1.9713    0.5699 H         1 <0>         0.1244
     32 H4          0.4490   -0.1411   -2.3374 H         1 <0>         0.1368
     33 H5          2.0168   -0.2004   -1.4968 H         1 <0>         0.1381
     34 H6         -0.1685   -2.3271   -1.3541 H         1 <0>         0.0616
     35 H7          1.3528   -2.4555   -2.2701 H         1 <0>         0.1249
     36 H8         -0.0756   -2.2162    1.1011 H         1 <0>         0.0619
     37 H9          1.5109   -2.2667    1.9076 H         1 <0>         0.1238
     38 H10         2.1070   -0.0926    0.8865 H         1 <0>         0.1379
     39 H11         0.6068    0.0475    1.8341 H         1 <0>         0.1360
     40 H12         0.5337   -4.3169    0.0871 H         1 <0>         0.0515
     41 H13         1.8908   -4.3847   -1.0626 H         1 <0>         0.0934
     42 H14         3.4913   -4.1004    0.8098 H         1 <0>         0.0856
     43 H15         2.1342   -4.0326    1.9596 H         1 <0>         0.0755
     44 H16         1.4439   -6.3150    1.2793 H         1 <0>         0.0895
     45 H17         2.8011   -6.3828    0.1296 H         1 <0>         0.0899
     46 H18         1.2002   -5.2020    3.0150 H         1 <0>         0.1272
     47 H19         0.1723   -5.4402    5.2339 H         1 <0>         0.1308
     48 H20         1.1719   -6.9431    6.9065 H         1 <0>         0.1354
     49 H21         3.2102   -8.2112    6.3594 H         1 <0>         0.1375
     50 H22         4.6131   -5.3736    0.1208 H         1 <0>         0.1431
     51 H23         8.3536   -7.2935    0.8271 H         1 <0>         0.1481
     52 H24         7.4163   -8.4005    2.8086 H         1 <0>         0.1492
     53 H25        -0.6172   -0.2102   -0.2010 H         1 <0>         0.4223
@<TRIPOS>BOND
     1    1    2 1
     2    1   29 1
     3    1   30 1
     4    1   31 1
     5    2    7 1
     6    2    3 1
     7    2   53 1
     8    3    4 1
     9    3   32 1
    10    3   33 1
    11    4    5 1
    12    4   34 1
    13    4   35 1
    14    5    6 1
    15    5    8 1
    16    6    7 1
    17    6   36 1
    18    6   37 1
    19    7   38 1
    20    7   39 1
    21    8    9 1
    22    8   40 1
    23    8   41 1
    24    9   10 1
    25    9   42 1
    26    9   43 1
    27   10   11 1
    28   10   44 1
    29   10   45 1
    30   11   20 1
    31   11   12 1
    32   12   17 ar
    33   12   13 ar
    34   13   14 ar
    35   13   46 1
    36   14   15 ar
    37   14   47 1
    38   15   16 ar
    39   15   48 1
    40   16   17 ar
    41   16   49 1
    42   17   18 1
    43   18   19 1
    44   19   24 ar
    45   19   20 ar
    46   20   21 ar
    47   21   22 ar
    48   21   50 1
    49   22   23 ar
    50   22   25 1
    51   23   24 ar
    52   23   51 1
    53   24   52 1
    54   25   26 1
    55   25   27 1
    56   25   28 1
@<TRIPOS>MOLECULE
ZINC19418959
   53    56     0     0     0
SMALL
USER_CHARGES

@<TRIPOS>ATOM
      1 C1          0.4328    1.5258   -0.3011 C.3       1 <0>         0.0191
      2 N1          0.3593    0.0600   -0.2373 N.3       1 <0>        -0.5429
      3 C2          0.8896   -0.5479   -1.4659 C.3       1 <0>         0.0236
      4 C3          0.7405   -2.0687   -1.3844 C.3       1 <0>        -0.0021
      5 N2          1.4724   -2.5705   -0.2140 N.4       1 <0>        -0.3864
      6 C4          0.9155   -1.9734    1.0070 C.3       1 <0>        -0.0074
      7 C5          1.0660   -0.4518    0.9454 C.3       1 <0>         0.0248
      8 C6          1.3441   -4.0323   -0.1464 C.3       1 <0>        -0.0072
      9 C7          2.2069   -4.5677    0.9981 C.3       1 <0>        -0.1860
     10 C8          2.0732   -6.0902    1.0685 C.3       1 <0>         0.1181
     11 N3          2.8994   -6.6028    2.1644 N.pl3     1 <0>        -0.5624
     12 C9          2.3073   -6.7118    3.4198 C.ar      1 <0>         0.1854
     13 C10         1.2060   -5.9141    3.7135 C.ar      1 <0>        -0.1634
     14 C11         0.5902   -6.0007    4.9473 C.ar      1 <0>        -0.0766
     15 C12         1.0642   -6.8815    5.9011 C.ar      1 <0>        -0.1271
     16 C13         2.1593   -7.6780    5.6210 C.ar      1 <0>        -0.0512
     17 C14         2.7837   -7.5950    4.3846 C.ar      1 <0>        -0.1555
     18 S1          4.1834   -8.6105    4.0495 S.3       1 <0>         0.0508
     19 C15         4.9317   -7.8544    2.6456 C.ar      1 <0>        -0.1201
     20 C16         4.2155   -6.9492    1.8701 C.ar      1 <0>         0.1860
     21 C17         4.8314   -6.3674    0.7671 C.ar      1 <0>        -0.1187
     22 C18         6.1353   -6.6922    0.4434 C.ar      1 <0>        -0.1465
     23 C19         6.8381   -7.5986    1.2136 C.ar      1 <0>        -0.0782
     24 C20         6.2409   -8.1721    2.3149 C.ar      1 <0>        -0.0564
     25 C21         6.7925   -6.0557   -0.7542 C.3       1 <0>         0.5107
     26 F1          7.4304   -4.8737   -0.3627 F         1 <0>        -0.1734
     27 F2          7.7352   -6.9381   -1.2927 F         1 <0>        -0.1677
     28 F3          5.8220   -5.7644   -1.7188 F         1 <0>        -0.1812
     29 H1          1.4765    1.8352   -0.3565 H         1 <0>         0.0399
     30 H2         -0.0981    1.8781   -1.1855 H         1 <0>         0.0846
     31 H3         -0.0256    1.9517    0.5914 H         1 <0>         0.0847
     32 H4          0.3342   -0.1736   -2.3259 H         1 <0>         0.1251
     33 H5          1.9434   -0.2910   -1.5732 H         1 <0>         0.0609
     34 H6         -0.3146   -2.3258   -1.2908 H         1 <0>         0.1393
     35 H7          1.1462   -2.5225   -2.2886 H         1 <0>         0.1373
     36 H8         -0.1405   -2.2310    1.0883 H         1 <0>         0.1397
     37 H9          1.4508   -2.3566    1.8757 H         1 <0>         0.1346
     38 H10         2.1227   -0.1933    0.8778 H         1 <0>         0.0606
     39 H11         0.6393   -0.0074    1.8446 H         1 <0>         0.1243
     40 H12         0.3016   -4.2978    0.0297 H         1 <0>         0.1367
     41 H13         1.6765   -4.4702   -1.0876 H         1 <0>         0.1368
     42 H14         3.2494   -4.3022    0.8220 H         1 <0>         0.0947
     43 H15         1.8745   -4.1298    1.9393 H         1 <0>         0.0988
     44 H16         1.0308   -6.3556    1.2446 H         1 <0>         0.1004
     45 H17         2.4057   -6.5280    0.1273 H         1 <0>         0.0974
     46 H18         0.8307   -5.2231    2.9732 H         1 <0>         0.1250
     47 H19        -0.2642   -5.3778    5.1674 H         1 <0>         0.1340
     48 H20         0.5800   -6.9473    6.8642 H         1 <0>         0.1380
     49 H21         2.5295   -8.3664    6.3664 H         1 <0>         0.1394
     50 H22         4.2881   -5.6578    0.1607 H         1 <0>         0.1365
     51 H23         7.8561   -7.8515    0.9568 H         1 <0>         0.1503
     52 H24         6.7918   -8.8800    2.9163 H         1 <0>         0.1515
     53 H25         2.4470   -2.3223   -0.2952 H         1 <0>         0.4212
@<TRIPOS>BOND
     1    1    2 1
     2    1   29 1
     3    1   30 1
     4    1   31 1
     5    2    7 1
     6    2    3 1
     7    3    4 1
     8    3   32 1
     9    3   33 1
    10    4    5 1
    11    4   34 1
    12    4   35 1
    13    5    6 1
    14    5    8 1
    15    5   53 1
    16    6    7 1
    17    6   36 1
    18    6   37 1
    19    7   38 1
    20    7   39 1
    21    8    9 1
    22    8   40 1
    23    8   41 1
    24    9   10 1
    25    9   42 1
    26    9   43 1
    27   10   11 1
    28   10   44 1
    29   10   45 1
    30   11   20 1
    31   11   12 1
    32   12   17 ar
    33   12   13 ar
    34   13   14 ar
    35   13   46 1
    36   14   15 ar
    37   14   47 1
    38   15   16 ar
    39   15   48 1
    40   16   17 ar
    41   16   49 1
    42   17   18 1
    43   18   19 1
    44   19   24 ar
    45   19   20 ar
    46   20   21 ar
    47   21   22 ar
    48   21   50 1
    49   22   23 ar
    50   22   25 1
    51   23   24 ar
    52   23   51 1
    53   24   52 1
    54   25   26 1
    55   25   27 1
    56   25   28 1
@<TRIPOS>MOLECULE
ZINC22931094
   66    69     0     0     0
SMALL
USER_CHARGES

@<TRIPOS>ATOM
      1 C1         -2.1863   -5.5479   -2.4920 C.3       1 <0>         0.0258
      2 O1         -0.9501   -5.2637   -1.8340 O.3       1 <0>        -0.3143
      3 C2         -1.0155   -4.9134   -0.5225 C.ar      1 <0>         0.1285
      4 C3         -2.2445   -4.8521    0.1126 C.ar      1 <0>        -0.2102
      5 C4         -2.3093   -4.4952    1.4455 C.ar      1 <0>        -0.0819
      6 C5         -1.1505   -4.1996    2.1341 C.ar      1 <0>        -0.1604
      7 C6          0.0845   -4.2583    1.5008 C.ar      1 <0>        -0.0408
      8 C7          0.1551   -4.6239    0.1760 C.ar      1 <0>        -0.1031
      9 C8          1.4605   -4.7296   -0.5680 C.3       1 <0>        -0.0727
     10 C9          2.5657   -3.9845    0.1776 C.3       1 <0>        -0.1215
     11 C10         2.5680   -4.4560    1.6365 C.3       1 <0>        -0.1142
     12 C11         1.3058   -3.9147    2.3129 C.3       1 <0>        -0.0420
     13 H1          1.3760   -2.8318    2.4158 H         1 <0>         0.0836
     14 C12         1.1824   -4.5455    3.7013 C.3       1 <0>        -0.1148
     15 C13         2.3561   -4.0941    4.5728 C.3       1 <0>        -0.1180
     16 C14         2.1657   -4.6199    5.9970 C.3       1 <0>         0.0539
     17 N1          3.2926   -4.1864    6.8337 N.3       1 <0>        -0.5383
     18 C15         3.2922   -2.7264    7.0027 C.3       1 <0>         0.0228
     19 C16         4.5118   -2.3111    7.8283 C.3       1 <0>        -0.0060
     20 N2          4.4647   -2.9729    9.1387 N.4       1 <0>        -0.3844
     21 C17         4.4906   -4.4299    8.9546 C.3       1 <0>        -0.0056
     22 C18         3.2707   -4.8628    8.1384 C.3       1 <0>         0.0267
     23 C19         5.6262   -2.5599    9.9377 C.3       1 <0>         0.0266
     24 C20         5.5985   -1.0424   10.1312 C.3       1 <0>        -0.1406
     25 C21         6.8082   -0.6122   10.9633 C.3       1 <0>        -0.1173
     26 C22         6.7593   -1.3015   12.3284 C.3       1 <0>        -0.1316
     27 C23         6.7870   -2.8189   12.1349 C.3       1 <0>        -0.1173
     28 C24         5.5773   -3.2491   11.3028 C.3       1 <0>        -0.1406
     29 H2         -2.8280   -4.6676   -2.4557 H         1 <0>         0.0565
     30 H3         -1.9921   -5.8133   -3.5313 H         1 <0>         0.1030
     31 H4         -2.6817   -6.3796   -1.9911 H         1 <0>         0.0564
     32 H5         -3.1485   -5.0819   -0.4318 H         1 <0>         0.1289
     33 H6         -3.2644   -4.4474    1.9473 H         1 <0>         0.1243
     34 H7         -1.2043   -3.9194    3.1757 H         1 <0>         0.1212
     35 H8          1.7360   -5.7799   -0.6630 H         1 <0>         0.0744
     36 H9          1.3436   -4.2981   -1.5621 H         1 <0>         0.0775
     37 H10         3.5301   -4.2041   -0.2806 H         1 <0>         0.0697
     38 H11         2.3761   -2.9118    0.1388 H         1 <0>         0.0649
     39 H12         2.5730   -5.5454    1.6702 H         1 <0>         0.0682
     40 H13         3.4501   -4.0684    2.1462 H         1 <0>         0.0673
     41 H14         0.2459   -4.2306    4.1616 H         1 <0>         0.0680
     42 H15         1.1948   -5.6316    3.6094 H         1 <0>         0.0698
     43 H16         3.2860   -4.4869    4.1618 H         1 <0>         0.0795
     44 H17         2.3979   -3.0050    4.5902 H         1 <0>         0.0632
     45 H18         1.2358   -4.2270    6.4080 H         1 <0>         0.0460
     46 H19         2.1239   -5.7089    5.9797 H         1 <0>         0.0885
     47 H20         3.3347   -2.2471    6.0247 H         1 <0>         0.1255
     48 H21         2.3822   -2.4203    7.5189 H         1 <0>         0.0593
     49 H22         5.4218   -2.6052    7.3053 H         1 <0>         0.1371
     50 H23         4.5057   -1.2299    7.9669 H         1 <0>         0.1359
     51 H24         5.4007   -4.7132    8.4258 H         1 <0>         0.1372
     52 H25         4.4687   -4.9196    9.9281 H         1 <0>         0.1361
     53 H26         2.3604   -4.5920    8.6732 H         1 <0>         0.0592
     54 H27         3.2976   -5.9422    7.9889 H         1 <0>         0.1231
     55 H28         6.5426   -2.8434    9.4201 H         1 <0>         0.1370
     56 H29         5.6333   -0.5514    9.1587 H         1 <0>         0.0873
     57 H30         4.6821   -0.7588   10.6488 H         1 <0>         0.0853
     58 H31         7.7246   -0.8958   10.4457 H         1 <0>         0.0746
     59 H32         6.7885    0.4688   11.1012 H         1 <0>         0.0846
     60 H33         7.6212   -0.9950   12.9212 H         1 <0>         0.0795
     61 H34         5.8430   -1.0179   12.8460 H         1 <0>         0.0698
     62 H35         7.7034   -3.1025   11.6173 H         1 <0>         0.0746
     63 H36         6.7522   -3.3099   13.1074 H         1 <0>         0.0846
     64 H37         4.6609   -2.9655   11.8204 H         1 <0>         0.0853
     65 H38         5.5971   -4.3301   11.1649 H         1 <0>         0.0873
     66 H39         3.6166   -2.7097    9.6179 H         1 <0>         0.4173
@<TRIPOS>BOND
     1    1    2 1
     2    1   29 1
     3    1   30 1
     4    1   31 1
     5    2    3 1
     6    3    8 ar
     7    3    4 ar
     8    4    5 ar
     9    4   32 1
    10    5    6 ar
    11    5   33 1
    12    6    7 ar
    13    6   34 1
    14    7   12 1
    15    7    8 ar
    16    8    9 1
    17    9   10 1
    18    9   35 1
    19    9   36 1
    20   10   11 1
    21   10   37 1
    22   10   38 1
    23   11   12 1
    24   11   39 1
    25   11   40 1
    26   12   13 1
    27   12   14 1
    28   14   15 1
    29   14   41 1
    30   14   42 1
    31   15   16 1
    32   15   43 1
    33   15   44 1
    34   16   17 1
    35   16   45 1
    36   16   46 1
    37   17   22 1
    38   17   18 1
    39   18   19 1
    40   18   47 1
    41   18   48 1
    42   19   20 1
    43   19   49 1
    44   19   50 1
    45   20   21 1
    46   20   23 1
    47   20   66 1
    48   21   22 1
    49   21   51 1
    50   21   52 1
    51   22   53 1
    52   22   54 1
    53   23   28 1
    54   23   24 1
    55   23   55 1
    56   24   25 1
    57   24   56 1
    58   24   57 1
    59   25   26 1
    60   25   58 1
    61   25   59 1
    62   26   27 1
    63   26   60 1
    64   26   61 1
    65   27   28 1
    66   27   62 1
    67   27   63 1
    68   28   64 1
    69   28   65 1
@<TRIPOS>MOLECULE
ZINC22931097
   66    69     0     0     0
SMALL
USER_CHARGES

@<TRIPOS>ATOM
      1 C1         -1.3529   -6.7248   -2.5894 C.3       1 <0>         0.0258
      2 O1         -1.2856   -6.2669   -1.2374 O.3       1 <0>        -0.3143
      3 C2         -0.1182   -5.6987   -0.8358 C.ar      1 <0>         0.1286
      4 C3          0.9333   -5.5820   -1.7294 C.ar      1 <0>        -0.2102
      5 C4          2.1186   -5.0028   -1.3200 C.ar      1 <0>        -0.0819
      6 C5          2.2463   -4.5419   -0.0255 C.ar      1 <0>        -0.1604
      7 C6          1.1941   -4.6562    0.8742 C.ar      1 <0>        -0.0405
      8 C7          0.0111   -5.2319    0.4709 C.ar      1 <0>        -0.1032
      9 C8         -1.1668   -5.3976    1.3949 C.3       1 <0>        -0.0728
     10 C9         -1.0324   -4.4781    2.6070 C.3       1 <0>        -0.1206
     11 C10         0.3563   -4.6880    3.2220 C.3       1 <0>        -0.1147
     12 C11         1.4030   -4.1247    2.2682 C.3       1 <0>        -0.0421
     13 H1          1.3142   -3.0384    2.2558 H         1 <0>         0.0815
     14 C12         2.8028   -4.5103    2.7507 C.3       1 <0>        -0.1136
     15 C13         3.0678   -3.8666    4.1132 C.3       1 <0>        -0.1180
     16 C14         4.5113   -4.1454    4.5368 C.3       1 <0>         0.0539
     17 N1          4.7658   -3.5275    5.8450 N.3       1 <0>        -0.5383
     18 C15         4.7104   -2.0615    5.7547 C.3       1 <0>         0.0227
     19 C16         4.9209   -1.4595    7.1458 C.3       1 <0>        -0.0060
     20 N2          6.2243   -1.8859    7.6719 N.4       1 <0>        -0.3844
     21 C17         6.2555   -3.3505    7.7794 C.3       1 <0>        -0.0057
     22 C18         6.0561   -3.9683    6.3936 C.3       1 <0>         0.0267
     23 C19         6.4337   -1.2932    8.9996 C.3       1 <0>         0.0266
     24 C20         6.4031    0.2324    8.8876 C.3       1 <0>        -0.1406
     25 C21         6.6213    0.8497   10.2704 C.3       1 <0>        -0.1173
     26 C22         7.9789    0.4057   10.8188 C.3       1 <0>        -0.1316
     27 C23         8.0095   -1.1199   10.9307 C.3       1 <0>        -0.1173
     28 C24         7.7913   -1.7372    9.5479 C.3       1 <0>        -0.1406
     29 H2         -0.5864   -7.4819   -2.7551 H         1 <0>         0.0564
     30 H3         -2.3361   -7.1557   -2.7785 H         1 <0>         0.1030
     31 H4         -1.1875   -5.8861   -3.2657 H         1 <0>         0.0565
     32 H5          0.8271   -5.9427   -2.7418 H         1 <0>         0.1289
     33 H6          2.9434   -4.9112   -2.0112 H         1 <0>         0.1243
     34 H7          3.1737   -4.0881    0.2913 H         1 <0>         0.1212
     35 H8         -2.0826   -5.1521    0.8574 H         1 <0>         0.0776
     36 H9         -1.2156   -6.4328    1.7328 H         1 <0>         0.0743
     37 H10        -1.1420   -3.4398    2.2940 H         1 <0>         0.0649
     38 H11        -1.7998   -4.7237    3.3410 H         1 <0>         0.0702
     39 H12         0.4150   -4.1726    4.1806 H         1 <0>         0.0677
     40 H13         0.5369   -5.7533    3.3657 H         1 <0>         0.0667
     41 H14         2.8699   -5.5944    2.8418 H         1 <0>         0.0698
     42 H15         3.5440   -4.1593    2.0327 H         1 <0>         0.0687
     43 H16         2.9112   -2.7902    4.0432 H         1 <0>         0.0633
     44 H17         2.3849   -4.2859    4.8521 H         1 <0>         0.0794
     45 H18         4.6680   -5.2218    4.6068 H         1 <0>         0.0885
     46 H19         5.1942   -3.7262    3.7979 H         1 <0>         0.0461
     47 H20         5.4933   -1.7086    5.0834 H         1 <0>         0.0594
     48 H21         3.7369   -1.7574    5.3703 H         1 <0>         0.1255
     49 H22         4.8943   -0.3719    7.0787 H         1 <0>         0.1359
     50 H23         4.1300   -1.8018    7.8132 H         1 <0>         0.1371
     51 H24         7.2183   -3.6648    8.1822 H         1 <0>         0.1361
     52 H25         5.4578   -3.6831    8.4436 H         1 <0>         0.1372
     53 H26         6.0643   -5.0552    6.4754 H         1 <0>         0.1231
     54 H27         6.8612   -3.6468    5.7329 H         1 <0>         0.0592
     55 H28         5.6438   -1.6240    9.6739 H         1 <0>         0.1370
     56 H29         7.1931    0.5631    8.2133 H         1 <0>         0.0853
     57 H30         5.4360    0.5487    8.4970 H         1 <0>         0.0873
     58 H31         6.5995    1.9366   10.1907 H         1 <0>         0.0846
     59 H32         5.8313    0.5190   10.9447 H         1 <0>         0.0746
     60 H33         8.7689    0.7365   10.1445 H         1 <0>         0.0698
     61 H34         8.1343    0.8455   11.8039 H         1 <0>         0.0796
     62 H35         8.9767   -1.4362   11.3214 H         1 <0>         0.0846
     63 H36         7.2195   -1.4506   11.6050 H         1 <0>         0.0746
     64 H37         7.8131   -2.8241    9.6277 H         1 <0>         0.0873
     65 H38         8.5813   -1.4065    8.8736 H         1 <0>         0.0853
     66 H39         6.9554   -1.5791    7.0479 H         1 <0>         0.4173
@<TRIPOS>BOND
     1    1    2 1
     2    1   29 1
     3    1   30 1
     4    1   31 1
     5    2    3 1
     6    3    8 ar
     7    3    4 ar
     8    4    5 ar
     9    4   32 1
    10    5    6 ar
    11    5   33 1
    12    6    7 ar
    13    6   34 1
    14    7   12 1
    15    7    8 ar
    16    8    9 1
    17    9   10 1
    18    9   35 1
    19    9   36 1
    20   10   11 1
    21   10   37 1
    22   10   38 1
    23   11   12 1
    24   11   39 1
    25   11   40 1
    26   12   13 1
    27   12   14 1
    28   14   15 1
    29   14   41 1
    30   14   42 1
    31   15   16 1
    32   15   43 1
    33   15   44 1
    34   16   17 1
    35   16   45 1
    36   16   46 1
    37   17   22 1
    38   17   18 1
    39   18   19 1
    40   18   47 1
    41   18   48 1
    42   19   20 1
    43   19   49 1
    44   19   50 1
    45   20   21 1
    46   20   23 1
    47   20   66 1
    48   21   22 1
    49   21   51 1
    50   21   52 1
    51   22   53 1
    52   22   54 1
    53   23   28 1
    54   23   24 1
    55   23   55 1
    56   24   25 1
    57   24   56 1
    58   24   57 1
    59   25   26 1
    60   25   58 1
    61   25   59 1
    62   26   27 1
    63   26   60 1
    64   26   61 1
    65   27   28 1
    66   27   62 1
    67   27   63 1
    68   28   64 1
    69   28   65 1
@<TRIPOS>MOLECULE
ZINC00537822
   50    52     0     0     0
SMALL
USER_CHARGES

@<TRIPOS>ATOM
      1 C1         -0.0169    1.3952    0.0097 C.ar      1 <0>        -0.0260
      2 C2          1.1683    2.0970    0.0022 C.ar      1 <0>        -0.1650
      3 C3          2.3789    1.4198   -0.0130 C.ar      1 <0>         0.1439
      4 C4          2.4047    0.0329   -0.0212 C.ar      1 <0>        -0.1670
      5 C5          1.2267   -0.6810   -0.0142 C.ar      1 <0>        -0.0432
      6 C6          0.0021   -0.0041    0.0020 C.ar      1 <0>        -0.1967
      7 C7         -1.2591   -0.7596    0.0105 C.2       1 <0>         0.4038
      8 O1         -2.3189   -0.1702    0.0242 O.2       1 <0>        -0.4483
      9 C8         -1.2348   -2.2664    0.0022 C.3       1 <0>        -0.1653
     10 C9         -2.6689   -2.7996    0.0135 C.3       1 <0>        -0.1429
     11 C10        -2.6443   -4.3293    0.0051 C.3       1 <0>        -0.0092
     12 N1         -4.0211   -4.8413    0.0160 N.4       1 <0>        -0.3830
     13 C11        -4.6726   -4.4620    1.2755 C.3       1 <0>        -0.0093
     14 C12        -6.1318   -4.9225    1.2582 C.3       1 <0>        -0.1330
     15 C13        -6.1791   -6.4445    1.0954 C.3       1 <0>         0.1746
     16 C14        -5.4322   -6.8346   -0.1834 C.3       1 <0>        -0.1706
     17 C15        -3.9990   -6.3033   -0.1127 C.3       1 <0>        -0.0017
     18 C16        -7.6135   -6.8966    0.9991 C.ar      1 <0>        -0.1262
     19 C17        -8.5661   -6.0599    0.4482 C.ar      1 <0>        -0.1006
     20 C18        -9.8818   -6.4740    0.3596 C.ar      1 <0>        -0.1039
     21 C19       -10.2453   -7.7262    0.8224 C.ar      1 <0>        -0.0247
     22 C20        -9.2914   -8.5631    1.3735 C.ar      1 <0>        -0.1016
     23 C21        -7.9750   -8.1501    1.4564 C.ar      1 <0>        -0.0934
     24 Cl1       -11.8977   -8.2468    0.7119 Cl        1 <0>        -0.0500
     25 O2         -5.5554   -7.0652    2.2213 O.3       1 <0>        -0.5474
     26 F1          3.5378    2.1141   -0.0204 F         1 <0>        -0.1258
     27 H1         -0.9587    1.9236    0.0260 H         1 <0>         0.1459
     28 H2          1.1551    3.1769    0.0077 H         1 <0>         0.1477
     29 H3          3.3506   -0.4883   -0.0334 H         1 <0>         0.1469
     30 H4          1.2482   -1.7608   -0.0213 H         1 <0>         0.1412
     31 H5         -0.7241   -2.6166   -0.8948 H         1 <0>         0.1127
     32 H6         -0.7064   -2.6261    0.8850 H         1 <0>         0.1127
     33 H7         -3.1796   -2.4493    0.9105 H         1 <0>         0.0952
     34 H8         -3.1973   -2.4398   -0.8693 H         1 <0>         0.0947
     35 H9         -2.1335   -4.6796   -0.8919 H         1 <0>         0.1333
     36 H10        -2.1158   -4.6891    0.8880 H         1 <0>         0.1327
     37 H11        -4.1530   -4.9339    2.1093 H         1 <0>         0.1388
     38 H12        -4.6353   -3.3788    1.3915 H         1 <0>         0.1356
     39 H13        -6.6132   -4.6415    2.1949 H         1 <0>         0.1238
     40 H14        -6.6524   -4.4509    0.4248 H         1 <0>         0.1045
     41 H15        -5.4137   -7.9204   -0.2771 H         1 <0>         0.1175
     42 H16        -5.9384   -6.4027   -1.0467 H         1 <0>         0.1009
     43 H17        -3.4644   -6.5795   -1.0215 H         1 <0>         0.1329
     44 H18        -3.4937   -6.7360    0.7507 H         1 <0>         0.1354
     45 H19        -8.2824   -5.0823    0.0874 H         1 <0>         0.1334
     46 H20       -10.6260   -5.8201   -0.0704 H         1 <0>         0.1408
     47 H21        -9.5746   -9.5405    1.7352 H         1 <0>         0.1414
     48 H22        -7.2294   -8.8051    1.8823 H         1 <0>         0.1323
     49 H23        -5.5495   -8.0314    2.1846 H         1 <0>         0.3907
     50 H24        -4.5327   -4.4442   -0.7578 H         1 <0>         0.4215
@<TRIPOS>BOND
     1    1    6 ar
     2    1    2 ar
     3    1   27 1
     4    2    3 ar
     5    2   28 1
     6    3    4 ar
     7    3   26 1
     8    4    5 ar
     9    4   29 1
    10    5    6 ar
    11    5   30 1
    12    6    7 1
    13    7    8 2
    14    7    9 1
    15    9   10 1
    16    9   31 1
    17    9   32 1
    18   10   11 1
    19   10   33 1
    20   10   34 1
    21   11   12 1
    22   11   35 1
    23   11   36 1
    24   12   17 1
    25   12   13 1
    26   12   50 1
    27   13   14 1
    28   13   37 1
    29   13   38 1
    30   14   15 1
    31   14   39 1
    32   14   40 1
    33   15   16 1
    34   15   18 1
    35   15   25 1
    36   16   17 1
    37   16   41 1
    38   16   42 1
    39   17   43 1
    40   17   44 1
    41   18   23 ar
    42   18   19 ar
    43   19   20 ar
    44   19   45 1
    45   20   21 ar
    46   20   46 1
    47   21   22 ar
    48   21   24 1
    49   22   23 ar
    50   22   47 1
    51   23   48 1
    52   25   49 1
