@<TRIPOS>MOLECULE
ZINC04175443
   31    32     0     0     0
SMALL
USER_CHARGES

@<TRIPOS>ATOM
      1 C1         -0.0186    1.3779   -0.0138 C.ar      1 <0>        -0.1041
      2 C2          1.1659    2.0938   -0.0101 C.ar      1 <0>        -0.1230
      3 C3          2.3756    1.4323   -0.0190 C.ar      1 <0>        -0.0916
      4 C4          2.4036    0.0340   -0.0312 C.ar      1 <0>        -0.0847
      5 C5          1.2023   -0.6823   -0.0343 C.ar      1 <0>        -0.0976
      6 C6          0.0007   -0.0060   -0.0258 C.ar      1 <0>        -0.1231
      7 C7          3.6904   -0.6800   -0.0411 C.2       1 <0>        -0.0065
      8 C8          3.7134   -2.0288   -0.0529 C.2       1 <0>        -0.2339
      9 C9          4.9939   -2.7393   -0.0628 C.2       1 <0>         0.4487
     10 O1          6.0360   -2.1153   -0.1563 O.2       1 <0>        -0.4446
     11 C10         5.0218   -4.2066    0.0400 C.ar      1 <0>        -0.2115
     12 C11         4.9874   -4.8269    1.2997 C.ar      1 <0>         0.1732
     13 C12         5.0141   -6.2065    1.3875 C.ar      1 <0>        -0.1806
     14 C13         5.0747   -6.9787    0.2344 C.ar      1 <0>         0.1572
     15 C14         5.1091   -6.3732   -1.0153 C.ar      1 <0>        -0.1821
     16 C15         5.0773   -4.9950   -1.1210 C.ar      1 <0>         0.1742
     17 O2          5.1052   -4.4056   -2.3427 O.3       1 <0>        -0.4903
     18 O3          5.1010   -8.3323    0.3294 O.3       1 <0>        -0.4918
     19 O4          4.9286   -4.0745    2.4271 O.3       1 <0>        -0.4869
     20 H1         -0.9630    1.9018   -0.0026 H         1 <0>         0.1260
     21 H2          1.1426    3.1736   -0.0007 H         1 <0>         0.1280
     22 H3          3.2990    1.9923   -0.0168 H         1 <0>         0.1291
     23 H4          1.2158   -1.7622   -0.0441 H         1 <0>         0.1278
     24 H5         -0.9278   -0.5576   -0.0286 H         1 <0>         0.1273
     25 H6          4.6164   -0.1242   -0.0390 H         1 <0>         0.1355
     26 H7          2.7874   -2.5847   -0.0550 H         1 <0>         0.1338
     27 H8          4.9880   -6.6851    2.3553 H         1 <0>         0.1461
     28 H9          5.1562   -6.9808   -1.9069 H         1 <0>         0.1458
     29 H10         5.9960   -4.2158   -2.6676 H         1 <0>         0.4021
     30 H11         4.2261   -8.7440    0.3235 H         1 <0>         0.3994
     31 H12         4.0290   -3.8753    2.7205 H         1 <0>         0.3985
@<TRIPOS>BOND
     1    1    6 ar
     2    1    2 ar
     3    1   20 1
     4    2    3 ar
     5    2   21 1
     6    3    4 ar
     7    3   22 1
     8    4    5 ar
     9    4    7 1
    10    5    6 ar
    11    5   23 1
    12    6   24 1
    13    7    8 2
    14    7   25 1
    15    8    9 1
    16    8   26 1
    17    9   10 2
    18    9   11 1
    19   11   16 ar
    20   11   12 ar
    21   12   13 ar
    22   12   19 1
    23   13   14 ar
    24   13   27 1
    25   14   15 ar
    26   14   18 1
    27   15   16 ar
    28   15   28 1
    29   16   17 1
    30   17   29 1
    31   18   30 1
    32   19   31 1
@<TRIPOS>MOLECULE
ZINC04097193
   32    33     0     0     0
SMALL
USER_CHARGES

@<TRIPOS>ATOM
      1 C1         -0.0150    1.3947    0.0152 C.ar      1 <0>        -0.0732
      2 C2          1.1693    2.0962    0.0143 C.ar      1 <0>        -0.1489
      3 C3          2.3824    1.4169    0.0102 C.ar      1 <0>         0.1228
      4 C4          2.4063    0.0268    0.0070 C.ar      1 <0>        -0.1489
      5 C5          1.2277   -0.6843    0.0073 C.ar      1 <0>        -0.0795
      6 C6          0.0034   -0.0052    0.0119 C.ar      1 <0>        -0.0939
      7 C7         -1.2580   -0.7592    0.0133 C.2       1 <0>        -0.0051
      8 C8         -1.2376   -2.1098    0.0101 C.2       1 <0>        -0.2344
      9 C9         -2.4931   -2.8603    0.0115 C.2       1 <0>         0.4486
     10 O1         -3.5549   -2.2711    0.1113 O.2       1 <0>        -0.4445
     11 C10        -2.4738   -4.3269   -0.1077 C.ar      1 <0>        -0.2117
     12 C11        -2.4191   -4.9317   -1.3739 C.ar      1 <0>         0.1733
     13 C12        -2.4008   -6.3104   -1.4770 C.ar      1 <0>        -0.1807
     14 C13        -2.4363   -7.0969   -0.3327 C.ar      1 <0>         0.1574
     15 C14        -2.4905   -6.5066    0.9235 C.ar      1 <0>        -0.1822
     16 C15        -2.5041   -5.1292    1.0444 C.ar      1 <0>         0.1741
     17 O2         -2.5517   -4.5546    2.2725 O.3       1 <0>        -0.4904
     18 O3         -2.4185   -8.4495   -0.4426 O.3       1 <0>        -0.4918
     19 O4         -2.3847   -4.1652   -2.4929 O.3       1 <0>        -0.4869
     20 O5          3.5475    2.1133    0.0090 O.3       1 <0>        -0.4985
     21 H1         -0.9568    1.9233    0.0228 H         1 <0>         0.1347
     22 H2          1.1563    3.1761    0.0165 H         1 <0>         0.1348
     23 H3          3.3513   -0.4961    0.0038 H         1 <0>         0.1340
     24 H4          1.2473   -1.7641    0.0041 H         1 <0>         0.1331
     25 H5         -2.2014   -0.2334    0.0168 H         1 <0>         0.1366
     26 H6         -0.2942   -2.6355    0.0066 H         1 <0>         0.1338
     27 H7         -2.3591   -6.7771   -2.4501 H         1 <0>         0.1461
     28 H8         -2.5179   -7.1252    1.8084 H         1 <0>         0.1457
     29 H9         -3.4484   -4.3974    2.5988 H         1 <0>         0.4021
     30 H10        -1.5306   -8.8326   -0.4408 H         1 <0>         0.3995
     31 H11        -1.4921   -3.9336   -2.7837 H         1 <0>         0.3986
     32 H12         3.8871    2.3133    0.8920 H         1 <0>         0.3954
@<TRIPOS>BOND
     1    1    6 ar
     2    1    2 ar
     3    1   21 1
     4    2    3 ar
     5    2   22 1
     6    3    4 ar
     7    3   20 1
     8    4    5 ar
     9    4   23 1
    10    5    6 ar
    11    5   24 1
    12    6    7 1
    13    7    8 2
    14    7   25 1
    15    8    9 1
    16    8   26 1
    17    9   10 2
    18    9   11 1
    19   11   16 ar
    20   11   12 ar
    21   12   13 ar
    22   12   19 1
    23   13   14 ar
    24   13   27 1
    25   14   15 ar
    26   14   18 1
    27   15   16 ar
    28   15   28 1
    29   16   17 1
    30   17   29 1
    31   18   30 1
    32   19   31 1
    33   20   32 1
