@<TRIPOS>MOLECULE
ZINC13563629
   25    26     0     0     0
SMALL
USER_CHARGES

@<TRIPOS>ATOM
      1 C1         -0.0173    1.4248    0.0099 C.3       1 <0>         0.0359
      2 O1          0.0021   -0.0041    0.0020 O.3       1 <0>        -0.3563
      3 C2          0.5984   -0.5997   -1.0427 C.2       1 <0>         0.4528
      4 O2          1.0877    0.0699   -1.9214 O.2       1 <0>        -0.4589
      5 C3          0.6575   -2.1036   -1.1196 C.3       1 <0>        -0.0478
      6 C4          1.3739   -2.5142   -2.3803 C.2       1 <0>         0.0717
      7 C5          1.5675   -3.9385   -2.7094 C.2       1 <0>         0.4821
      8 O3          1.5868   -4.7929   -1.8436 O.2       1 <0>        -0.4151
      9 O4          1.7227   -4.2549   -4.0183 O.3       1 <0>        -0.2619
     10 C6          2.4122   -3.3491   -4.7563 C.ar      1 <0>         0.0936
     11 C7          3.0774   -3.7397   -5.9100 C.ar      1 <0>        -0.1271
     12 C8          3.7580   -2.8023   -6.6589 C.ar      1 <0>        -0.0575
     13 C9          3.7821   -1.4708   -6.2671 C.ar      1 <0>        -0.1346
     14 C10         3.1410   -1.0675   -5.1316 C.ar      1 <0>        -0.0264
     15 C11         2.4485   -2.0035   -4.3494 C.ar      1 <0>        -0.0082
     16 N1          1.8341   -1.6168   -3.2117 N.2       1 <0>        -0.3301
     17 H1          1.0053    1.8021    0.0021 H         1 <0>         0.0611
     18 H2         -0.5445    1.7859   -0.8732 H         1 <0>         0.0609
     19 H3         -0.5275    1.7763    0.9067 H         1 <0>         0.1029
     20 H4          1.1948   -2.4908   -0.2539 H         1 <0>         0.1410
     21 H5          3.0625   -4.7740   -6.2202 H         1 <0>         0.1473
     22 H6          4.2762   -3.1065   -7.5564 H         1 <0>         0.1457
     23 H7          4.3138   -0.7467   -6.8666 H         1 <0>         0.1427
     24 H8          3.1668   -0.0292   -4.8357 H         1 <0>         0.1486
     25 H9         -0.3550   -2.5070   -1.1292 H         1 <0>         0.1374
@<TRIPOS>BOND
     1    1    2 1
     2    1   17 1
     3    1   18 1
     4    1   19 1
     5    2    3 1
     6    3    4 2
     7    3    5 1
     8    5    6 1
     9    5   20 1
    10    5   25 1
    11    6   16 2
    12    6    7 1
    13    7    8 2
    14    7    9 1
    15    9   10 1
    16   10   15 ar
    17   10   11 ar
    18   11   12 ar
    19   11   21 1
    20   12   13 ar
    21   12   22 1
    22   13   14 ar
    23   13   23 1
    24   14   15 ar
    25   14   24 1
    26   15   16 1
