@<TRIPOS>MOLECULE
ZINC03814434
   62    69     0     0     0
SMALL
USER_CHARGES

@<TRIPOS>ATOM
      1 C1         -0.1295    1.5952   -0.2973 C.3       1 <0>        -0.1687
      2 C2         -0.0862    0.0696   -0.1900 C.3       1 <0>         0.3342
      3 C3          0.5692   -0.4501   -1.4637 C.3       1 <0>         0.0405
      4 H1          1.4796    0.1159   -1.6612 H         1 <0>         0.1372
      5 C4          0.9167   -1.9328   -1.2889 C.3       1 <0>        -0.0061
      6 H2          1.3963   -2.3075   -2.1932 H         1 <0>         0.1555
      7 C5          1.8785   -2.0596   -0.1021 C.3       1 <0>        -0.1827
      8 C6          1.2061   -1.5198    1.1541 C.3       1 <0>         0.2999
      9 H3          1.9797   -1.4243    1.9161 H         1 <0>         0.1550
     10 O1          0.6555   -0.2442    0.9666 O.3       1 <0>        -0.3234
     11 N1          0.2189   -2.4746    1.6600 N.pl3     1 <0>        -0.5366
     12 C7          0.4705   -3.5508    2.4739 C.ar      1 <0>         0.1469
     13 C8          1.6649   -4.0152    3.0240 C.ar      1 <0>        -0.1522
     14 C9          1.5948   -5.1456    3.8201 C.ar      1 <0>        -0.0582
     15 C10         0.4006   -5.7997    4.0696 C.ar      1 <0>        -0.1457
     16 C11        -0.7984   -5.3597    3.5358 C.ar      1 <0>        -0.0280
     17 C12        -0.7487   -4.2198    2.7307 C.ar      1 <0>        -0.1131
     18 C13        -1.7893   -3.4830    2.0197 C.ar      1 <0>         0.0276
     19 C14        -1.1442   -2.4197    1.3841 C.ar      1 <0>         0.0376
     20 C15        -1.8806   -1.5095    0.6175 C.ar      1 <0>         0.0894
     21 N2         -1.4718   -0.3951   -0.1095 N.pl3     1 <0>        -0.5183
     22 C16        -2.5611    0.1913   -0.7090 C.ar      1 <0>         0.1618
     23 C17        -2.6521    1.3277   -1.5118 C.ar      1 <0>        -0.1305
     24 C18        -3.9109    1.6745   -1.9733 C.ar      1 <0>        -0.0737
     25 C19        -5.0393    0.9368   -1.6616 C.ar      1 <0>        -0.1358
     26 C20        -4.9745   -0.1955   -0.8662 C.ar      1 <0>        -0.0503
     27 C21        -3.7147   -0.5596   -0.3919 C.ar      1 <0>        -0.1042
     28 C22        -3.2693   -1.6660    0.4845 C.ar      1 <0>        -0.0360
     29 C23        -3.9084   -2.7313    1.1102 C.ar      1 <0>        -0.0288
     30 C24        -3.1873   -3.6421    1.8754 C.ar      1 <0>        -0.1255
     31 C25        -4.1221   -4.6480    2.4030 C.2       1 <0>         0.5632
     32 O2         -3.8062   -5.5851    3.1110 O.2       1 <0>        -0.5106
     33 N3         -5.3744   -4.3851    1.9926 N.am      1 <0>        -0.7162
     34 C26        -5.3495   -3.1771    1.1601 C.3       1 <0>         0.1358
     35 N4         -0.3067   -2.7008   -1.0216 N.4       1 <0>        -0.5252
     36 C27         0.0145   -4.1336   -0.9773 C.3       1 <0>        -0.0497
     37 O3         -0.3340   -0.2979   -2.5607 O.3       1 <0>        -0.3614
     38 C28         0.3101   -0.0933   -3.8198 C.3       1 <0>         0.0162
     39 H4          0.8261    2.0094    0.0240 H         1 <0>         0.0984
     40 H5         -0.3202    1.8814   -1.3317 H         1 <0>         0.1036
     41 H6         -0.9255    1.9818    0.3392 H         1 <0>         0.0921
     42 H7          2.1370   -3.1081    0.0458 H         1 <0>         0.1233
     43 H8          2.7835   -1.4869   -0.3048 H         1 <0>         0.1455
     44 H9          2.6036   -3.5149    2.8368 H         1 <0>         0.1365
     45 H10         2.5026   -5.5304    4.2610 H         1 <0>         0.1359
     46 H11         0.4045   -6.6780    4.6980 H         1 <0>         0.1352
     47 H12        -1.7278   -5.8736    3.7323 H         1 <0>         0.1600
     48 H13        -1.7792    1.9122   -1.7624 H         1 <0>         0.1440
     49 H14        -4.0153    2.5500   -2.5970 H         1 <0>         0.1336
     50 H15        -5.9967    1.2527   -2.0488 H         1 <0>         0.1332
     51 H16        -5.8575   -0.7687   -0.6249 H         1 <0>         0.1415
     52 H17        -6.1628   -4.9065    2.2103 H         1 <0>         0.4348
     53 H18        -5.9671   -2.3994    1.6094 H         1 <0>         0.1115
     54 H19        -5.7060   -3.4063    0.1559 H         1 <0>         0.1103
     55 H20        -0.6958   -2.4158   -0.1353 H         1 <0>         0.4186
     56 H21         0.4349   -4.4415   -1.9347 H         1 <0>         0.1256
     57 H22         0.7403   -4.3189   -0.1854 H         1 <0>         0.1191
     58 H23        -0.8932   -4.7035   -0.7789 H         1 <0>         0.1256
     59 H24         0.9168    0.8112   -3.7748 H         1 <0>         0.0633
     60 H25         0.9482   -0.9479   -4.0446 H         1 <0>         0.0514
     61 H26        -0.4433    0.0130   -4.6003 H         1 <0>         0.1100
     62 H27        -0.9785   -2.5293   -1.7546 H         1 <0>         0.4274
@<TRIPOS>BOND
     1    1    2 1
     2    1   39 1
     3    1   40 1
     4    1   41 1
     5    2   10 1
     6    2   21 1
     7    2    3 1
     8    3    4 1
     9    3    5 1
    10    3   37 1
    11    5    6 1
    12    5    7 1
    13    5   35 1
    14    7    8 1
    15    7   42 1
    16    7   43 1
    17    8    9 1
    18    8   10 1
    19    8   11 1
    20   11   19 1
    21   11   12 1
    22   12   17 ar
    23   12   13 ar
    24   13   14 ar
    25   13   44 1
    26   14   15 ar
    27   14   45 1
    28   15   16 ar
    29   15   46 1
    30   16   17 ar
    31   16   47 1
    32   17   18 1
    33   18   30 ar
    34   18   19 ar
    35   19   20 ar
    36   20   28 ar
    37   20   21 1
    38   21   22 1
    39   22   27 ar
    40   22   23 ar
    41   23   24 ar
    42   23   48 1
    43   24   25 ar
    44   24   49 1
    45   25   26 ar
    46   25   50 1
    47   26   27 ar
    48   26   51 1
    49   27   28 1
    50   28   29 ar
    51   29   34 1
    52   29   30 ar
    53   30   31 1
    54   31   32 2
    55   31   33 am
    56   33   34 1
    57   33   52 1
    58   34   53 1
    59   34   54 1
    60   35   36 1
    61   35   55 1
    62   35   62 1
    63   36   56 1
    64   36   57 1
    65   36   58 1
    66   37   38 1
    67   38   59 1
    68   38   60 1
    69   38   61 1
@<TRIPOS>MOLECULE
ZINC05447667
   48    51     0     0     0
SMALL
USER_CHARGES

@<TRIPOS>ATOM
      1 C1         -1.7806   -4.4217   -3.4632 C.3       1 <0>        -0.1182
      2 C2         -1.1293   -3.8287   -2.2404 C.ar      1 <0>        -0.0911
      3 C3         -0.5356   -2.5807   -2.3110 C.ar      1 <0>        -0.0894
      4 C4          0.0645   -2.0290   -1.1933 C.ar      1 <0>        -0.1210
      5 C5          0.0747   -2.7210    0.0004 C.ar      1 <0>        -0.0914
      6 C6         -0.5227   -3.9800    0.0786 C.ar      1 <0>        -0.1364
      7 C7         -1.1312   -4.5286   -1.0519 C.ar      1 <0>        -0.0566
      8 C8         -0.5152   -4.7272    1.3539 C.2       1 <0>         0.5624
      9 O1         -1.0363   -5.8235    1.4191 O.2       1 <0>        -0.5092
     10 N1          0.0694   -4.1930    2.4445 N.am      1 <0>        -0.6700
     11 C9         -0.0063   -4.8530    3.6692 C.ar      1 <0>         0.1805
     12 C10        -0.1118   -4.1198    4.8475 C.ar      1 <0>        -0.1522
     13 C11        -0.1864   -4.7684    6.0592 C.ar      1 <0>        -0.0284
     14 C12        -0.1565   -6.1656    6.1053 C.ar      1 <0>        -0.1554
     15 C13        -0.0509   -6.8989    4.9196 C.ar      1 <0>        -0.0614
     16 C14         0.0179   -6.2439    3.7110 C.ar      1 <0>        -0.1275
     17 C15        -0.2357   -6.8640    7.4017 C.2       1 <0>         0.5817
     18 O2         -0.3270   -6.2250    8.4319 O.2       1 <0>        -0.4898
     19 N2         -0.2068   -8.2108    7.4444 N.am      1 <0>        -0.5694
     20 N3         -0.2820   -8.8743    8.6761 N.2       1 <0>        -0.1120
     21 C16        -0.2539  -10.1847    8.7176 C.2       1 <0>         0.0630
     22 C17        -0.3279  -11.0511    9.9170 C.ar      1 <0>        -0.0967
     23 C18        -0.4417  -10.7864   11.2772 C.ar      1 <0>        -0.0350
     24 C19        -0.4878  -11.8325   12.1769 C.ar      1 <0>        -0.1391
     25 C20        -0.4202  -13.1397   11.7250 C.ar      1 <0>        -0.0667
     26 C21        -0.3067  -13.4126   10.3769 C.ar      1 <0>        -0.1350
     27 C22        -0.2597  -12.3719    9.4556 C.ar      1 <0>         0.1568
     28 N4         -0.1502  -12.3696    8.0694 N.am      1 <0>        -0.6436
     29 C23        -0.1480  -11.1184    7.5788 C.2       1 <0>         0.5451
     30 O3         -0.0690  -10.8097    6.4043 O.2       1 <0>        -0.5009
     31 H1         -2.8279   -4.1217   -3.4986 H         1 <0>         0.0750
     32 H2         -1.2696   -4.0634   -4.3569 H         1 <0>         0.0707
     33 H3         -1.7154   -5.5088   -3.4185 H         1 <0>         0.0707
     34 H4         -0.5404   -2.0350   -3.2430 H         1 <0>         0.1302
     35 H5          0.5264   -1.0548   -1.2552 H         1 <0>         0.1325
     36 H6          0.5441   -2.2896    0.8721 H         1 <0>         0.1259
     37 H7         -1.5985   -5.5007   -0.9970 H         1 <0>         0.1380
     38 H8          0.5428   -3.3492    2.3767 H         1 <0>         0.4144
     39 H9         -0.1348   -3.0407    4.8111 H         1 <0>         0.1389
     40 H10        -0.2675   -4.1989    6.9732 H         1 <0>         0.1462
     41 H11        -0.0273   -7.9782    4.9517 H         1 <0>         0.1317
     42 H12         0.0954   -6.8098    2.7944 H         1 <0>         0.1496
     43 H13        -0.1339   -8.7207    6.6225 H         1 <0>         0.4091
     44 H14        -0.4936   -9.7664   11.6286 H         1 <0>         0.1393
     45 H15        -0.5762  -11.6312   13.2343 H         1 <0>         0.1372
     46 H16        -0.4564  -13.9534   12.4342 H         1 <0>         0.1377
     47 H17        -0.2541  -14.4362   10.0367 H         1 <0>         0.1349
     48 H18        -0.0877  -13.1699    7.5250 H         1 <0>         0.4248
@<TRIPOS>BOND
     1    1    2 1
     2    1   31 1
     3    1   32 1
     4    1   33 1
     5    2    7 ar
     6    2    3 ar
     7    3    4 ar
     8    3   34 1
     9    4    5 ar
    10    4   35 1
    11    5    6 ar
    12    5   36 1
    13    6    7 ar
    14    6    8 1
    15    7   37 1
    16    8    9 2
    17    8   10 am
    18   10   11 1
    19   10   38 1
    20   11   16 ar
    21   11   12 ar
    22   12   13 ar
    23   12   39 1
    24   13   14 ar
    25   13   40 1
    26   14   15 ar
    27   14   17 1
    28   15   16 ar
    29   15   41 1
    30   16   42 1
    31   17   18 2
    32   17   19 am
    33   19   20 1
    34   19   43 1
    35   20   21 2
    36   21   29 1
    37   21   22 1
    38   22   27 ar
    39   22   23 ar
    40   23   24 ar
    41   23   44 1
    42   24   25 ar
    43   24   45 1
    44   25   26 ar
    45   25   46 1
    46   26   27 ar
    47   26   47 1
    48   27   28 1
    49   28   29 am
    50   28   48 1
    51   29   30 2
@<TRIPOS>MOLECULE
ZINC04178287
   53    56     0     0     0
SMALL
USER_CHARGES
[2-(4-methoxyphenyl)-2-oxo-ethyl] 2-(4-acetylphenyl)-1,3-dioxo-isoindoline-5-carboxylate
@<TRIPOS>ATOM
      1 C1          8.1281  -16.4314   -0.1554 C.3       1 <0>        -0.1929
      2 C2          6.6318  -16.2528   -0.1405 C.2       1 <0>         0.3942
      3 O1          5.9051  -17.2240   -0.1388 O.2       1 <0>        -0.4542
      4 C3          6.0534  -14.9028   -0.1282 C.ar      1 <0>        -0.1812
      5 C4          4.6633  -14.7343   -0.1144 C.ar      1 <0>        -0.0374
      6 C5          4.1280  -13.4721   -0.1033 C.ar      1 <0>        -0.1519
      7 C6          4.9638  -12.3594   -0.1063 C.ar      1 <0>         0.1576
      8 C7          6.3458  -12.5218   -0.1258 C.ar      1 <0>        -0.1528
      9 C8          6.8904  -13.7800   -0.1307 C.ar      1 <0>        -0.0486
     10 N1          4.4141  -11.0764   -0.0955 N.am      1 <0>        -0.5185
     11 C9          3.0949  -10.8140   -0.0811 C.2       1 <0>         0.5737
     12 O2          2.2073  -11.6425   -0.0762 O.2       1 <0>        -0.4327
     13 C10         2.9068   -9.3457   -0.0723 C.ar      1 <0>        -0.1012
     14 C11         1.7972   -8.5154   -0.0574 C.ar      1 <0>        -0.0498
     15 C12         1.9636   -7.1411   -0.0472 C.ar      1 <0>        -0.0279
     16 C13         3.2438   -6.5868   -0.0626 C.ar      1 <0>        -0.0999
     17 C14         4.3684   -7.4174   -0.0777 C.ar      1 <0>         0.0224
     18 C15         4.2038   -8.7918   -0.0826 C.ar      1 <0>        -0.1495
     19 C16         5.1341   -9.9403   -0.0973 C.2       1 <0>         0.5800
     20 O3          6.3464   -9.8699   -0.1086 O.2       1 <0>        -0.4363
     21 C17         3.4117   -5.1174   -0.0569 C.2       1 <0>         0.5118
     22 O4          4.5256   -4.6335   -0.0652 O.2       1 <0>        -0.4881
     23 O5          2.3294   -4.3159   -0.0423 O.3       1 <0>        -0.3314
     24 C18         2.5695   -2.8839   -0.0374 C.3       1 <0>         0.0362
     25 C19         1.2514   -2.1535   -0.0209 C.2       1 <0>         0.4020
     26 O6          0.2119   -2.7784   -0.0140 O.2       1 <0>        -0.4286
     27 C20         1.2256   -0.6852   -0.0133 C.ar      1 <0>        -0.2124
     28 C21         0.0021   -0.0041    0.0020 C.ar      1 <0>        -0.0118
     29 C22        -0.0165    1.3670    0.0096 C.ar      1 <0>        -0.1641
     30 C23         1.1769    2.0811    0.0020 C.ar      1 <0>         0.1687
     31 C24         2.3947    1.4095   -0.0132 C.ar      1 <0>        -0.2213
     32 C25         2.4244    0.0387   -0.0208 C.ar      1 <0>        -0.0305
     33 O7          1.1530    3.4375    0.0095 O.3       1 <0>        -0.3096
     34 C26         2.4146    4.1086    0.0010 C.3       1 <0>         0.0223
     35 H1          8.5226  -16.0070    0.6596 H         1 <0>         0.0852
     36 H2          8.3671  -17.4949   -0.1631 H         1 <0>         0.0868
     37 H3          8.5415  -15.9597   -1.0469 H         1 <0>         0.0952
     38 H4          4.0139  -15.5973   -0.1128 H         1 <0>         0.1441
     39 H5          3.0560  -13.3412   -0.0927 H         1 <0>         0.1624
     40 H6          6.9904  -11.6552   -0.1328 H         1 <0>         0.1632
     41 H7          7.9631  -13.9051   -0.1409 H         1 <0>         0.1433
     42 H8          0.8041   -8.9400   -0.0491 H         1 <0>         0.1593
     43 H9          1.0983   -6.4950   -0.0310 H         1 <0>         0.1660
     44 H10         5.3599   -6.9891   -0.0852 H         1 <0>         0.1619
     45 H11         3.0816   -2.6290   -0.8576 H         1 <0>         0.0971
     46 H12         3.1450   -2.6150    0.8484 H         1 <0>         0.1107
     47 H13        -0.9252   -0.5577    0.0082 H         1 <0>         0.1448
     48 H14        -0.9596    1.8932    0.0169 H         1 <0>         0.1418
     49 H15         3.3186    1.9687   -0.0194 H         1 <0>         0.1386
     50 H16         3.3705   -0.4819   -0.0323 H         1 <0>         0.1356
     51 H17         2.9682    3.8304   -0.8958 H         1 <0>         0.0608
     52 H18         2.2528    5.1865    0.0084 H         1 <0>         0.1059
     53 H19         2.9852    3.8208    0.8841 H         1 <0>         0.0608
@<TRIPOS>BOND
     1    1    2 1
     2    1   35 1
     3    1   36 1
     4    1   37 1
     5    2    3 2
     6    2    4 1
     7    4    9 ar
     8    4    5 ar
     9    5    6 ar
    10    5   38 1
    11    6    7 ar
    12    6   39 1
    13    7    8 ar
    14    7   10 1
    15    8    9 ar
    16    8   40 1
    17    9   41 1
    18   10   19 am
    19   10   11 am
    20   11   12 2
    21   11   13 1
    22   13   18 ar
    23   13   14 ar
    24   14   15 ar
    25   14   42 1
    26   15   16 ar
    27   15   43 1
    28   16   17 ar
    29   16   21 1
    30   17   18 ar
    31   17   44 1
    32   18   19 1
    33   19   20 2
    34   21   22 2
    35   21   23 1
    36   23   24 1
    37   24   25 1
    38   24   45 1
    39   24   46 1
    40   25   26 2
    41   25   27 1
    42   27   32 ar
    43   27   28 ar
    44   28   29 ar
    45   28   47 1
    46   29   30 ar
    47   29   48 1
    48   30   31 ar
    49   30   33 1
    50   31   32 ar
    51   31   49 1
    52   32   50 1
    53   33   34 1
    54   34   51 1
    55   34   52 1
    56   34   53 1
@<TRIPOS>MOLECULE
ZINC08399508
   61    64     0     0     0
SMALL
USER_CHARGES

@<TRIPOS>ATOM
      1 C1         -1.6788   -4.5888   -0.9943 C.ar      1 <0>        -0.0739
      2 C2         -0.3930   -4.0865   -1.0628 C.ar      1 <0>         0.0932
      3 C3         -0.1841   -2.7081   -1.1002 C.ar      1 <0>         0.0465
      4 C4         -1.2660   -1.8397   -1.0693 C.ar      1 <0>        -0.0392
      5 C5         -2.5512   -2.3341   -1.0010 C.ar      1 <0>        -0.0268
      6 C6         -2.7676   -3.7139   -0.9625 C.ar      1 <0>         0.0403
      7 C7         -4.1409   -4.2450   -0.8899 C.2       1 <0>         0.0598
      8 N1         -4.3368   -5.5193   -0.7405 N.2       1 <0>        -0.2039
      9 N2         -5.6419   -6.0240   -0.6715 N.am      1 <0>        -0.5789
     10 C8         -5.8453   -7.3473   -0.5163 C.2       1 <0>         0.5285
     11 O1         -4.8983   -8.1013   -0.4365 O.2       1 <0>        -0.4961
     12 C9         -7.2491   -7.8902   -0.4421 C.3       1 <0>        -0.1335
     13 C10        -7.1998   -9.4093   -0.2663 C.3       1 <0>        -0.1069
     14 C11        -8.6251   -9.9605   -0.1909 C.3       1 <0>        -0.1192
     15 C12        -8.5758  -11.4796   -0.0151 C.3       1 <0>        -0.1069
     16 C13       -10.0010  -12.0308    0.0603 C.3       1 <0>        -0.1335
     17 C14        -9.9524  -13.5270    0.2335 C.2       1 <0>         0.5285
     18 O2         -8.8829  -14.0966    0.2909 O.2       1 <0>        -0.4960
     19 N3        -11.0973  -14.2324    0.3245 N.am      1 <0>        -0.5789
     20 N4        -11.0521  -15.6234    0.4855 N.2       1 <0>        -0.2037
     21 C15       -12.1546  -16.3026    0.5732 C.2       1 <0>         0.0598
     22 C16       -12.1070  -17.7663    0.7425 C.ar      1 <0>         0.0403
     23 C17       -13.2866  -18.5144    0.7070 C.ar      1 <0>        -0.0269
     24 C18       -13.2396  -19.8831    0.8656 C.ar      1 <0>        -0.0391
     25 C19       -12.0236  -20.5224    1.0608 C.ar      1 <0>         0.0464
     26 C20       -10.8425  -19.7819    1.0975 C.ar      1 <0>         0.0933
     27 C21       -10.8818  -18.4100    0.9334 C.ar      1 <0>        -0.0739
     28 O3         -9.7979  -20.6375    1.3000 O.3       1 <0>        -0.2914
     29 C22       -10.3880  -21.8541    1.7946 C.3       1 <0>         0.2100
     30 O4        -11.7166  -21.8403    1.2401 O.3       1 <0>        -0.2928
     31 N5        -14.5866  -17.8373    0.4995 N.pl3     1 <0>         0.0460
     32 O5        -15.5928  -18.4919    0.3551 O.2       1 <0>        -0.1337
     33 O6        -14.6421  -16.6299    0.4745 O.3       1 <0>        -0.1654
     34 N6         -3.7016   -1.4031   -0.9677 N.pl3     1 <0>         0.0460
     35 O7         -3.5130   -0.2117   -0.8848 O.2       1 <0>        -0.1337
     36 O8         -4.8298   -1.8340   -1.0233 O.3       1 <0>        -0.1653
     37 O9          1.1589   -2.4733   -1.1660 O.3       1 <0>        -0.2929
     38 C23         1.7853   -3.7030   -0.7559 C.3       1 <0>         0.2100
     39 O10         0.8198   -4.7123   -1.1052 O.3       1 <0>        -0.2915
     40 H1         -1.8419   -5.6561   -0.9698 H         1 <0>         0.1716
     41 H2         -1.1006   -0.7729   -1.0984 H         1 <0>         0.1727
     42 H3         -4.9840   -3.5737   -0.9609 H         1 <0>         0.1763
     43 H4         -6.3991   -5.4211   -0.7353 H         1 <0>         0.3941
     44 H5         -7.7673   -7.4429    0.4062 H         1 <0>         0.1013
     45 H6         -7.7815   -7.6480   -1.3618 H         1 <0>         0.1014
     46 H7         -6.6817   -9.8566   -1.1145 H         1 <0>         0.0745
     47 H8         -6.6674   -9.6515    0.6535 H         1 <0>         0.0744
     48 H9         -9.1432   -9.5132    0.6574 H         1 <0>         0.0670
     49 H10        -9.1575   -9.7183   -1.1106 H         1 <0>         0.0671
     50 H11        -8.0576  -11.9268   -0.8633 H         1 <0>         0.0745
     51 H12        -8.0434  -11.7218    0.9047 H         1 <0>         0.0744
     52 H13       -10.5192  -11.5835    0.9086 H         1 <0>         0.1014
     53 H14       -10.5334  -11.7886   -0.8594 H         1 <0>         0.1014
     54 H15       -11.9525  -13.7770    0.2786 H         1 <0>         0.3941
     55 H16       -13.1068  -15.7956    0.5220 H         1 <0>         0.1763
     56 H17       -14.1524  -20.4596    0.8381 H         1 <0>         0.1727
     57 H18        -9.9672  -17.8361    0.9567 H         1 <0>         0.1716
     58 H19        -9.8330  -22.7216    1.4376 H         1 <0>         0.1458
     59 H20       -10.4276  -21.8453    2.8838 H         1 <0>         0.0983
     60 H21         2.7163   -3.8589   -1.3008 H         1 <0>         0.1458
     61 H22         1.9653   -3.7011    0.3192 H         1 <0>         0.0985
@<TRIPOS>BOND
     1    1    6 ar
     2    1    2 ar
     3    1   40 1
     4    2   39 1
     5    2    3 ar
     6    3    4 ar
     7    3   37 1
     8    4    5 ar
     9    4   41 1
    10    5    6 ar
    11    5   34 1
    12    6    7 1
    13    7    8 2
    14    7   42 1
    15    8    9 1
    16    9   10 am
    17    9   43 1
    18   10   11 2
    19   10   12 1
    20   12   13 1
    21   12   44 1
    22   12   45 1
    23   13   14 1
    24   13   46 1
    25   13   47 1
    26   14   15 1
    27   14   48 1
    28   14   49 1
    29   15   16 1
    30   15   50 1
    31   15   51 1
    32   16   17 1
    33   16   52 1
    34   16   53 1
    35   17   18 2
    36   17   19 am
    37   19   20 1
    38   19   54 1
    39   20   21 2
    40   21   22 1
    41   21   55 1
    42   22   27 ar
    43   22   23 ar
    44   23   24 ar
    45   23   31 1
    46   24   25 ar
    47   24   56 1
    48   25   30 1
    49   25   26 ar
    50   26   27 ar
    51   26   28 1
    52   27   57 1
    53   28   29 1
    54   29   30 1
    55   29   58 1
    56   29   59 1
    57   31   32 2
    58   31   33 1
    59   34   35 2
    60   34   36 1
    61   37   38 1
    62   38   39 1
    63   38   60 1
    64   38   61 1
@<TRIPOS>MOLECULE
ZINC05093953
   38    41     0     0     0
SMALL
USER_CHARGES

@<TRIPOS>ATOM
      1 C1          0.0635    1.3362    0.6963 C.ar      1 <0>        -0.1165
      2 C2          1.2223    2.0764    0.4673 C.ar      1 <0>        -0.0967
      3 C3          2.3979    1.4623    0.1620 C.ar      1 <0>        -0.1129
      4 C4          2.4499    0.0603    0.0749 C.ar      1 <0>        -0.0130
      5 C5          3.6497   -0.6009   -0.2379 C.ar      1 <0>        -0.1372
      6 C6          3.6776   -1.9617   -0.3168 C.ar      1 <0>         0.1660
      7 C7          2.5098   -2.7209   -0.0869 C.ar      1 <0>        -0.1543
      8 C8          1.3140   -2.0923    0.2229 C.ar      1 <0>        -0.0462
      9 C9          1.2706   -0.6934    0.3079 C.ar      1 <0>        -0.0708
     10 C10         0.0742   -0.0223    0.6211 C.ar      1 <0>        -0.0956
     11 C11         2.5624   -4.1918   -0.1774 C.2       1 <0>         0.5732
     12 O1          3.6091   -4.7470   -0.4493 O.2       1 <0>        -0.4613
     13 N1          1.4500   -4.9206    0.0413 N.am      1 <0>        -0.5735
     14 N2          1.4999   -6.3181   -0.0447 N.2       1 <0>        -0.1083
     15 C12         0.3982   -7.0213    0.0609 C.2       1 <0>         0.0640
     16 C13        -0.9947   -6.5174    0.0874 C.ar      1 <0>        -0.1580
     17 C14        -1.5480   -5.2438    0.0164 C.ar      1 <0>        -0.0584
     18 C15        -2.9188   -5.0889    0.0690 C.ar      1 <0>        -0.1354
     19 C16        -3.7382   -6.1983    0.1925 C.ar      1 <0>        -0.0630
     20 C17        -3.1984   -7.4665    0.2642 C.ar      1 <0>        -0.1319
     21 C18        -1.8199   -7.6424    0.2119 C.ar      1 <0>         0.1730
     22 N3         -1.0321   -8.7871    0.2626 N.am      1 <0>        -0.6476
     23 C19         0.2751   -8.4884    0.1727 C.2       1 <0>         0.5919
     24 O2          1.1945   -9.2856    0.1847 O.2       1 <0>        -0.4626
     25 O3          4.8402   -2.5931   -0.6199 O.3       1 <0>        -0.4772
     26 H1         -0.8552    1.8483    0.9413 H         1 <0>         0.1292
     27 H2          1.1866    3.1538    0.5329 H         1 <0>         0.1293
     28 H3          3.2871    2.0498   -0.0130 H         1 <0>         0.1337
     29 H4          4.5496   -0.0311   -0.4163 H         1 <0>         0.1453
     30 H5          0.4221   -2.6757    0.3975 H         1 <0>         0.1303
     31 H6         -0.8312   -0.5829    0.8013 H         1 <0>         0.1321
     32 H7          0.6147   -4.4776    0.2582 H         1 <0>         0.3906
     33 H8         -0.9079   -4.3792   -0.0792 H         1 <0>         0.1172
     34 H9         -3.3525   -4.1013    0.0141 H         1 <0>         0.1383
     35 H10        -4.8098   -6.0700    0.2334 H         1 <0>         0.1402
     36 H11        -3.8478   -8.3240    0.3612 H         1 <0>         0.1378
     37 H12        -1.3821   -9.6878    0.3481 H         1 <0>         0.4300
     38 H13         5.3763   -2.8218    0.1516 H         1 <0>         0.3984
@<TRIPOS>BOND
     1    1   10 ar
     2    1    2 ar
     3    1   26 1
     4    2    3 ar
     5    2   27 1
     6    3    4 ar
     7    3   28 1
     8    4    9 ar
     9    4    5 ar
    10    5    6 ar
    11    5   29 1
    12    6    7 ar
    13    6   25 1
    14    7    8 ar
    15    7   11 1
    16    8    9 ar
    17    8   30 1
    18    9   10 ar
    19   10   31 1
    20   11   12 2
    21   11   13 am
    22   13   14 1
    23   13   32 1
    24   14   15 2
    25   15   23 1
    26   15   16 1
    27   16   21 ar
    28   16   17 ar
    29   17   18 ar
    30   17   33 1
    31   18   19 ar
    32   18   34 1
    33   19   20 ar
    34   19   35 1
    35   20   21 ar
    36   20   36 1
    37   21   22 1
    38   22   23 am
    39   22   37 1
    40   23   24 2
    41   25   38 1
@<TRIPOS>MOLECULE
ZINC12631335
   52    55     0     0     0
SMALL
USER_CHARGES

@<TRIPOS>ATOM
      1 C1          1.5230    0.8129   -0.6697 C.3       1 <0>        -0.1152
      2 C2          1.2477   -0.6656   -0.5734 C.ar      1 <0>        -0.0973
      3 C3          1.9224   -1.4338    0.3577 C.ar      1 <0>        -0.1017
      4 C4          1.6724   -2.7891    0.4484 C.ar      1 <0>        -0.1140
      5 C5          0.7420   -3.3801   -0.3964 C.ar      1 <0>         0.1363
      6 C6          0.0658   -2.6057   -1.3301 C.ar      1 <0>        -0.1376
      7 C7          0.3169   -1.2501   -1.4125 C.ar      1 <0>        -0.1014
      8 N1          0.4868   -4.7530   -0.3073 N.am      1 <0>        -0.6696
      9 C8          0.5336   -5.3709    0.8895 C.2       1 <0>         0.4937
     10 O1          0.7017   -4.7224    1.9006 O.2       1 <0>        -0.4992
     11 C9          0.3769   -6.8674    0.9715 C.3       1 <0>         0.0983
     12 N2          0.4644   -7.2917    2.3710 N.am      1 <0>        -0.5282
     13 C10         1.6489   -7.6381    3.0117 C.ar      1 <0>         0.1816
     14 C11         2.9642   -7.6814    2.5620 C.ar      1 <0>        -0.1310
     15 C12         3.9763   -8.0684    3.4168 C.ar      1 <0>        -0.0608
     16 C13         3.6976   -8.4176    4.7275 C.ar      1 <0>        -0.1336
     17 C14         2.3980   -8.3812    5.1917 C.ar      1 <0>        -0.0559
     18 C15         1.3716   -7.9918    4.3384 C.ar      1 <0>        -0.1542
     19 C16        -0.0926   -7.8479    4.5123 C.2       1 <0>         0.0737
     20 N3         -0.7939   -8.0737    5.5970 N.2       1 <0>        -0.1101
     21 N4         -0.1437   -8.3538    6.8059 N.am      1 <0>        -0.5731
     22 C17        -0.8618   -8.6986    7.8932 C.2       1 <0>         0.5774
     23 O2         -2.0736   -8.7665    7.8248 O.2       1 <0>        -0.4614
     24 C18        -0.1776   -8.9933    9.1653 C.ar      1 <0>        -0.1626
     25 C19         1.2151   -8.9108    9.2500 C.ar      1 <0>        -0.0438
     26 C20         1.8484   -9.1873   10.4427 C.ar      1 <0>        -0.1101
     27 C21         1.1099   -9.5470   11.5596 C.ar      1 <0>        -0.0398
     28 C22        -0.2662   -9.6321   11.4892 C.ar      1 <0>        -0.1443
     29 C23        -0.9205   -9.3523   10.2987 C.ar      1 <0>         0.1976
     30 O3         -2.2731   -9.4303   10.2301 O.3       1 <0>        -0.4729
     31 Br1         3.7327   -9.0760   10.5560 Br        1 <0>        -0.0303
     32 C24        -0.5892   -7.3896    3.1995 C.2       1 <0>         0.5973
     33 O4         -1.7476   -7.1463    2.9170 O.2       1 <0>        -0.4586
     34 H1          0.8514    1.3518   -0.0013 H         1 <0>         0.0709
     35 H2          2.5560    1.0096   -0.3828 H         1 <0>         0.0668
     36 H3          1.3607    1.1468   -1.6945 H         1 <0>         0.0669
     37 H4          2.6458   -0.9736    1.0144 H         1 <0>         0.1258
     38 H5          2.2001   -3.3886    1.1753 H         1 <0>         0.1314
     39 H6         -0.6580   -3.0625   -1.9887 H         1 <0>         0.1269
     40 H7         -0.2116   -0.6466   -2.1356 H         1 <0>         0.1274
     41 H8          0.2761   -5.2600   -1.1070 H         1 <0>         0.4131
     42 H9         -0.5930   -7.1541    0.5650 H         1 <0>         0.1319
     43 H10         1.1684   -7.3477    0.3961 H         1 <0>         0.1294
     44 H11         3.1940   -7.4120    1.5417 H         1 <0>         0.1327
     45 H12         4.9952   -8.0995    3.0600 H         1 <0>         0.1403
     46 H13         4.4978   -8.7192    5.3872 H         1 <0>         0.1395
     47 H14         2.1794   -8.6540    6.2135 H         1 <0>         0.1169
     48 H15         0.8232   -8.2996    6.8605 H         1 <0>         0.3909
     49 H16         1.7942   -8.6313    8.3822 H         1 <0>         0.1342
     50 H17         1.6142   -9.7623   12.4900 H         1 <0>         0.1482
     51 H18        -0.8344   -9.9134   12.3635 H         1 <0>         0.1528
     52 H19        -2.6046  -10.3037    9.9805 H         1 <0>         0.4047
@<TRIPOS>BOND
     1    1    2 1
     2    1   34 1
     3    1   35 1
     4    1   36 1
     5    2    7 ar
     6    2    3 ar
     7    3    4 ar
     8    3   37 1
     9    4    5 ar
    10    4   38 1
    11    5    6 ar
    12    5    8 1
    13    6    7 ar
    14    6   39 1
    15    7   40 1
    16    8    9 am
    17    8   41 1
    18    9   10 2
    19    9   11 1
    20   11   12 1
    21   11   42 1
    22   11   43 1
    23   12   32 am
    24   12   13 1
    25   13   18 ar
    26   13   14 ar
    27   14   15 ar
    28   14   44 1
    29   15   16 ar
    30   15   45 1
    31   16   17 ar
    32   16   46 1
    33   17   18 ar
    34   17   47 1
    35   18   19 1
    36   19   20 2
    37   19   32 1
    38   20   21 1
    39   21   22 am
    40   21   48 1
    41   22   23 2
    42   22   24 1
    43   24   29 ar
    44   24   25 ar
    45   25   26 ar
    46   25   49 1
    47   26   27 ar
    48   26   31 1
    49   27   28 ar
    50   27   50 1
    51   28   29 ar
    52   28   51 1
    53   29   30 1
    54   30   52 1
    55   32   33 2
@<TRIPOS>MOLECULE
ZINC19313605
   47    50     0     0     0
SMALL
USER_CHARGES

@<TRIPOS>ATOM
      1 C1         -0.0167    1.3795    0.0096 C.ar      1 <0>        -0.0850
      2 C2          1.1683    2.0939    0.0021 C.ar      1 <0>        -0.1258
      3 C3          2.3774    1.4301   -0.0130 C.ar      1 <0>        -0.0513
      4 C4          2.4037    0.0340   -0.0208 C.ar      1 <0>        -0.1389
      5 C5          1.2041   -0.6806   -0.0131 C.ar      1 <0>        -0.0837
      6 C6          0.0021   -0.0041    0.0020 C.ar      1 <0>        -0.1246
      7 C7          3.6949   -0.6837   -0.0374 C.2       1 <0>         0.5788
      8 O1          4.7373   -0.0590   -0.0445 O.2       1 <0>        -0.4856
      9 N1          3.7167   -2.0313   -0.0449 N.am      1 <0>        -0.5676
     10 N2          4.9412   -2.7120   -0.0607 N.2       1 <0>        -0.1079
     11 C8          4.9624   -4.0230   -0.0680 C.2       1 <0>         0.0642
     12 C9          6.1520   -4.9059   -0.0786 C.ar      1 <0>        -0.0890
     13 C10         7.5204   -4.6595   -0.0843 C.ar      1 <0>        -0.0039
     14 C11         8.4071   -5.7186   -0.0947 C.ar      1 <0>        -0.1175
     15 C12         7.9328   -7.0205   -0.0996 C.ar      1 <0>        -0.0340
     16 C13         6.5762   -7.2742   -0.0945 C.ar      1 <0>        -0.1360
     17 C14         5.6687   -6.2206   -0.0834 C.ar      1 <0>         0.1810
     18 N3          4.2780   -6.1993   -0.0766 N.am      1 <0>        -0.5288
     19 C15         3.8060   -4.9412   -0.0610 C.2       1 <0>         0.5542
     20 O2          2.6334   -4.6161   -0.0467 O.2       1 <0>        -0.4908
     21 C16         3.4344   -7.3971   -0.0791 C.3       1 <0>         0.2785
     22 N4          3.1592   -7.8050    1.3050 N.3       1 <0>        -0.5530
     23 C17         4.2820   -8.5742    1.8608 C.3       1 <0>         0.0109
     24 C18         3.9796   -8.9268    3.3196 C.3       1 <0>         0.0640
     25 O3          2.7454   -9.6465    3.3848 O.3       1 <0>        -0.3820
     26 C19         1.6303   -8.9266    2.8525 C.3       1 <0>         0.0636
     27 C20         1.9089   -8.5739    1.3889 C.3       1 <0>         0.0239
     28 Br1        10.2695   -5.3915   -0.1031 Br        1 <0>        -0.0311
     29 H1         -0.9605    1.9042    0.0260 H         1 <0>         0.1320
     30 H2          1.1465    3.1737    0.0078 H         1 <0>         0.1354
     31 H3          3.3016    1.9889   -0.0192 H         1 <0>         0.1408
     32 H4          1.2173   -1.7605   -0.0194 H         1 <0>         0.1271
     33 H5         -0.9265   -0.5555    0.0079 H         1 <0>         0.1333
     34 H6          2.8847   -2.5299   -0.0393 H         1 <0>         0.4095
     35 H7          7.8885   -3.6441   -0.0808 H         1 <0>         0.1497
     36 H8          8.6312   -7.8442   -0.1078 H         1 <0>         0.1481
     37 H9          6.2187   -8.2933   -0.0990 H         1 <0>         0.1400
     38 H10         2.4951   -7.1789   -0.5872 H         1 <0>         0.1106
     39 H11         3.9503   -8.2038   -0.5999 H         1 <0>         0.0780
     40 H12         4.4161   -9.4901    1.2852 H         1 <0>         0.0511
     41 H13         5.1922   -7.9764    1.8120 H         1 <0>         0.0895
     42 H14         4.7833   -9.5456    3.7186 H         1 <0>         0.1026
     43 H15         3.8986   -8.0116    3.9060 H         1 <0>         0.0603
     44 H16         0.7349   -9.5452    2.9137 H         1 <0>         0.1035
     45 H17         1.4809   -8.0113    3.4253 H         1 <0>         0.0614
     46 H18         1.0868   -7.9759    0.9957 H         1 <0>         0.0925
     47 H19         2.0051   -9.4898    0.8058 H         1 <0>         0.0517
@<TRIPOS>BOND
     1    1    6 ar
     2    1    2 ar
     3    1   29 1
     4    2    3 ar
     5    2   30 1
     6    3    4 ar
     7    3   31 1
     8    4    5 ar
     9    4    7 1
    10    5    6 ar
    11    5   32 1
    12    6   33 1
    13    7    8 2
    14    7    9 am
    15    9   10 1
    16    9   34 1
    17   10   11 2
    18   11   19 1
    19   11   12 1
    20   12   17 ar
    21   12   13 ar
    22   13   14 ar
    23   13   35 1
    24   14   15 ar
    25   14   28 1
    26   15   16 ar
    27   15   36 1
    28   16   17 ar
    29   16   37 1
    30   17   18 1
    31   18   19 am
    32   18   21 1
    33   19   20 2
    34   21   22 1
    35   21   38 1
    36   21   39 1
    37   22   27 1
    38   22   23 1
    39   23   24 1
    40   23   40 1
    41   23   41 1
    42   24   25 1
    43   24   42 1
    44   24   43 1
    45   25   26 1
    46   26   27 1
    47   26   44 1
    48   26   45 1
    49   27   46 1
    50   27   47 1
@<TRIPOS>MOLECULE
ZINC00725629
   51    54     0     0     0
SMALL
USER_CHARGES

@<TRIPOS>ATOM
      1 C1         -0.0100    1.4173    0.0660 C.3       1 <0>         0.0220
      2 O1         -0.0115    0.0092   -0.1778 O.3       1 <0>        -0.3096
      3 C2         -1.2060   -0.6293   -0.0938 C.ar      1 <0>         0.1650
      4 C3         -2.3560    0.0893    0.2122 C.ar      1 <0>        -0.2153
      5 C4         -3.5699   -0.5546    0.2984 C.ar      1 <0>        -0.0058
      6 C5         -3.6450   -1.9329    0.0772 C.ar      1 <0>        -0.1795
      7 C6         -2.4862   -2.6516   -0.2307 C.ar      1 <0>        -0.0449
      8 C7         -1.2771   -1.9991   -0.3196 C.ar      1 <0>        -0.1547
      9 C8         -4.9432   -2.6269    0.1690 C.2       1 <0>         0.5814
     10 O2         -5.9498   -2.0003    0.4372 O.2       1 <0>        -0.4828
     11 N1         -5.0134   -3.9558   -0.0446 N.am      1 <0>        -0.5724
     12 N2         -6.2466   -4.6150    0.0426 N.2       1 <0>        -0.1031
     13 C9         -6.3002   -5.9213   -0.0579 C.2       1 <0>         0.0656
     14 C10        -5.1641   -6.8719   -0.0793 C.ar      1 <0>        -0.1500
     15 C11        -3.7851   -6.7091   -0.0065 C.ar      1 <0>        -0.0270
     16 C12        -2.9612   -7.8168   -0.0534 C.ar      1 <0>        -0.1152
     17 C13        -3.5085   -9.0840   -0.1727 C.ar      1 <0>        -0.0312
     18 C14        -4.8760   -9.2548   -0.2461 C.ar      1 <0>        -0.1335
     19 C15        -5.7211   -8.1514   -0.1999 C.ar      1 <0>         0.1964
     20 N3         -7.1070   -8.0464   -0.2530 N.am      1 <0>        -0.5334
     21 C16        -7.5062   -6.7660   -0.1679 C.2       1 <0>         0.5983
     22 O3         -8.6576   -6.3722   -0.1824 O.2       1 <0>        -0.4513
     23 C17        -8.0168   -9.1877   -0.3795 C.3       1 <0>         0.2818
     24 N4         -8.3816   -9.6736    0.9579 N.3       1 <0>        -0.5534
     25 C18        -7.3329  -10.5463    1.5056 C.3       1 <0>         0.0116
     26 C19        -7.7253  -10.9808    2.9202 C.3       1 <0>         0.0639
     27 O4         -9.0004  -11.6271    2.8785 O.3       1 <0>        -0.3824
     28 C20       -10.0453  -10.8055    2.3511 C.3       1 <0>         0.0631
     29 C21        -9.6765  -10.3692    0.9307 C.3       1 <0>         0.0240
     30 Br1        -1.0848   -7.6034    0.0445 Br        1 <0>        -0.0285
     31 H1          1.0051    1.8020   -0.0327 H         1 <0>         0.1059
     32 H2         -0.6580    1.9120   -0.6575 H         1 <0>         0.0612
     33 H3         -0.3758    1.6118    1.0742 H         1 <0>         0.0611
     34 H4         -2.2971    1.1541    0.3829 H         1 <0>         0.1413
     35 H5         -4.4628    0.0043    0.5368 H         1 <0>         0.1449
     36 H6         -2.5398   -3.7166   -0.4019 H         1 <0>         0.1265
     37 H7         -0.3820   -2.5529   -0.5615 H         1 <0>         0.1434
     38 H8         -4.2102   -4.4557   -0.2586 H         1 <0>         0.3910
     39 H9         -3.3600   -5.7206    0.0861 H         1 <0>         0.1280
     40 H10        -2.8590   -9.9461   -0.2089 H         1 <0>         0.1501
     41 H11        -5.2908  -10.2476   -0.3396 H         1 <0>         0.1423
     42 H12        -8.9164   -8.8780   -0.9114 H         1 <0>         0.1135
     43 H13        -7.5234   -9.9859   -0.9340 H         1 <0>         0.0786
     44 H14        -7.2239  -11.4263    0.8717 H         1 <0>         0.0508
     45 H15        -6.3887  -10.0029    1.5405 H         1 <0>         0.0877
     46 H16        -6.9786  -11.6734    3.3085 H         1 <0>         0.1016
     47 H17        -7.7819  -10.1054    3.5672 H         1 <0>         0.0607
     48 H18       -10.9766  -11.3714    2.3277 H         1 <0>         0.1038
     49 H19       -10.1695   -9.9250    2.9815 H         1 <0>         0.0626
     50 H20       -10.4430   -9.6966    0.5459 H         1 <0>         0.0944
     51 H21        -9.6049  -11.2464    0.2875 H         1 <0>         0.0517
@<TRIPOS>BOND
     1    1    2 1
     2    1   31 1
     3    1   32 1
     4    1   33 1
     5    2    3 1
     6    3    8 ar
     7    3    4 ar
     8    4    5 ar
     9    4   34 1
    10    5    6 ar
    11    5   35 1
    12    6    7 ar
    13    6    9 1
    14    7    8 ar
    15    7   36 1
    16    8   37 1
    17    9   10 2
    18    9   11 am
    19   11   12 1
    20   11   38 1
    21   12   13 2
    22   13   21 1
    23   13   14 1
    24   14   19 ar
    25   14   15 ar
    26   15   16 ar
    27   15   39 1
    28   16   17 ar
    29   16   30 1
    30   17   18 ar
    31   17   40 1
    32   18   19 ar
    33   18   41 1
    34   19   20 1
    35   20   21 am
    36   20   23 1
    37   21   22 2
    38   23   24 1
    39   23   42 1
    40   23   43 1
    41   24   29 1
    42   24   25 1
    43   25   26 1
    44   25   44 1
    45   25   45 1
    46   26   27 1
    47   26   46 1
    48   26   47 1
    49   27   28 1
    50   28   29 1
    51   28   48 1
    52   28   49 1
    53   29   50 1
    54   29   51 1
@<TRIPOS>MOLECULE
ZINC34842286
   60    64     0     0     0
SMALL
USER_CHARGES

@<TRIPOS>ATOM
      1 C1          1.8133    0.7623   -0.1964 C.3       1 <0>         0.0965
      2 N1          1.6194   -0.6884   -0.1319 N.pl3     1 <0>        -0.3672
      3 C2          1.6651   -1.5391   -1.1767 C.2       1 <0>         0.0817
      4 C3          1.4351   -2.7958   -0.6962 C.2       1 <0>        -0.2076
      5 C4          1.2439   -2.6897    0.6956 C.2       1 <0>         0.0683
      6 N2          1.3606   -1.4311    1.0264 N.2       1 <0>        -0.2890
      7 C5          1.3931   -4.0460   -1.4945 C.ar      1 <0>        -0.0358
      8 C6          1.1415   -5.2687   -0.8781 C.ar      1 <0>        -0.0385
      9 C7          1.1275   -6.4186   -1.6731 C.ar      1 <0>        -0.1789
     10 C8          1.3972   -6.3138   -3.0555 C.ar      1 <0>         0.1771
     11 C9          1.4919   -7.4959   -3.8939 C.2       1 <0>        -0.0898
     12 C10         0.7263   -8.5752   -3.8527 C.2       1 <0>        -0.0889
     13 C11        -0.3896   -8.8322   -2.9599 C.ar      1 <0>        -0.0322
     14 C12        -1.5475   -9.4565   -3.4543 C.ar      1 <0>        -0.0767
     15 C13        -2.5836   -9.7450   -2.6184 C.ar      1 <0>        -0.1348
     16 C14        -2.5143   -9.4311   -1.2598 C.ar      1 <0>         0.1518
     17 C15        -1.3943   -8.7993   -0.7471 C.ar      1 <0>        -0.0923
     18 C16        -0.3340   -8.4757   -1.5950 C.ar      1 <0>        -0.1192
     19 C17         0.8213   -7.7260   -1.0762 C.2       1 <0>         0.4561
     20 O1          1.5061   -8.1775   -0.1758 O.2       1 <0>        -0.4207
     21 N3         -3.5765   -9.7547   -0.4169 N.pl3     1 <0>        -1.0699
     22 S1         -4.2775  -11.2523   -0.5057 S.o2      1 <0>         2.7823
     23 O2         -5.2477  -11.3088    0.5310 O.2       1 <0>        -0.9432
     24 O3         -4.6083  -11.4656   -1.8711 O.2       1 <0>        -0.9658
     25 N4         -3.1103  -12.3628   -0.1225 N.pl3     1 <0>        -0.9970
     26 C18        -2.1850  -12.8385   -1.1539 C.3       1 <0>         0.0794
     27 C19        -3.0030  -12.8695    1.2479 C.3       1 <0>         0.1339
     28 C20        -3.7842  -14.1794    1.3699 C.3       1 <0>         0.0308
     29 H1         -3.3817  -14.9102    0.6686 H         1 <0>         0.0746
     30 C21        -3.6601  -14.7181    2.7981 C.3       1 <0>         0.0319
     31 O4         -4.4825  -15.8809    2.9342 O.3       1 <0>        -0.3767
     32 C22        -5.8625  -15.6439    2.6402 C.3       1 <0>         0.0227
     33 C23        -5.9866  -15.1051    1.2121 C.3       1 <0>         0.0235
     34 O5         -5.1639  -13.9426    1.0745 O.3       1 <0>        -0.3614
     35 N5          1.5913   -5.1062   -3.5985 N.ar      1 <0>        -0.4626
     36 C24         1.6001   -4.0114   -2.8784 C.ar      1 <0>         0.1254
     37 H2          2.8708    0.9935   -0.0689 H         1 <0>         0.0802
     38 H3          1.4748    1.1314   -1.1646 H         1 <0>         0.0921
     39 H4          1.2385    1.2413    0.5962 H         1 <0>         0.0936
     40 H5          1.8499   -1.2742   -2.2073 H         1 <0>         0.1821
     41 H6          1.0409   -3.5069    1.3719 H         1 <0>         0.1869
     42 H7          0.9625   -5.3274    0.1854 H         1 <0>         0.1433
     43 H8          2.2764   -7.4942   -4.6361 H         1 <0>         0.1379
     44 H9          0.9580   -9.3533   -4.5649 H         1 <0>         0.1378
     45 H10        -1.6164   -9.7085   -4.5023 H         1 <0>         0.1439
     46 H11        -3.4693  -10.2219   -3.0114 H         1 <0>         0.1625
     47 H12        -1.3412   -8.5581    0.3043 H         1 <0>         0.1376
     48 H13        -3.9050   -9.1025    0.2216 H         1 <0>         0.4265
     49 H14        -1.3061  -12.1941   -1.1787 H         1 <0>         0.0589
     50 H15        -1.8804  -13.8598   -0.9256 H         1 <0>         0.0781
     51 H16        -2.6800  -12.8153   -2.1247 H         1 <0>         0.0837
     52 H17        -1.9549  -13.0477    1.4883 H         1 <0>         0.1018
     53 H18        -3.4148  -12.1350    1.9401 H         1 <0>         0.0937
     54 H19        -2.6215  -14.9809    2.9993 H         1 <0>         0.1068
     55 H20        -3.9874  -13.9556    3.5048 H         1 <0>         0.0656
     56 H21        -6.4190  -16.5770    2.7272 H         1 <0>         0.1061
     57 H22        -6.2640  -14.9125    3.3417 H         1 <0>         0.0641
     58 H23        -5.6593  -15.8676    0.5054 H         1 <0>         0.0602
     59 H24        -7.0252  -14.8423    1.0109 H         1 <0>         0.1073
     60 H25         1.7750   -3.0620   -3.3627 H         1 <0>         0.1617
@<TRIPOS>BOND
     1    1    2 1
     2    1   37 1
     3    1   38 1
     4    1   39 1
     5    2    6 1
     6    2    3 1
     7    3    4 2
     8    3   40 1
     9    4    5 1
    10    4    7 1
    11    5    6 2
    12    5   41 1
    13    7   36 ar
    14    7    8 ar
    15    8    9 ar
    16    8   42 1
    17    9   19 1
    18    9   10 ar
    19   10   11 1
    20   10   35 ar
    21   11   12 2
    22   11   43 1
    23   12   13 1
    24   12   44 1
    25   13   18 ar
    26   13   14 ar
    27   14   15 ar
    28   14   45 1
    29   15   16 ar
    30   15   46 1
    31   16   17 ar
    32   16   21 1
    33   17   18 ar
    34   17   47 1
    35   18   19 1
    36   19   20 2
    37   21   22 1
    38   21   48 1
    39   22   23 2
    40   22   24 2
    41   22   25 1
    42   25   26 1
    43   25   27 1
    44   26   49 1
    45   26   50 1
    46   26   51 1
    47   27   28 1
    48   27   52 1
    49   27   53 1
    50   28   29 1
    51   28   34 1
    52   28   30 1
    53   30   31 1
    54   30   54 1
    55   30   55 1
    56   31   32 1
    57   32   33 1
    58   32   56 1
    59   32   57 1
    60   33   34 1
    61   33   58 1
    62   33   59 1
    63   35   36 ar
    64   36   60 1
@<TRIPOS>MOLECULE
ZINC34842286
   59    63     0     0     0
SMALL
USER_CHARGES

@<TRIPOS>ATOM
      1 C1         -0.0178    1.4608    0.0101 C.3       1 <0>         0.1008
      2 N1          0.0021   -0.0041    0.0020 N.pl3     1 <0>        -0.3738
      3 C2          0.0078   -0.7883   -1.0945 C.2       1 <0>         0.0697
      4 C3          0.0278   -2.0866   -0.6734 C.2       1 <0>        -0.1895
      5 C4          0.0343   -2.0758    0.7354 C.2       1 <0>         0.0671
      6 N2          0.0245   -0.8308    1.1317 N.2       1 <0>        -0.2945
      7 C5          0.0397   -3.2901   -1.5414 C.ar      1 <0>        -0.0621
      8 C6          0.0543   -4.5644   -0.9807 C.ar      1 <0>        -0.0332
      9 C7          0.0802   -5.6649   -1.8426 C.ar      1 <0>        -0.1797
     10 C8          0.1229   -5.4562   -3.2387 C.ar      1 <0>         0.2062
     11 C9          0.2532   -6.5705   -4.1609 C.2       1 <0>        -0.1637
     12 C10        -0.3414   -7.7510   -4.0859 C.2       1 <0>        -0.0196
     13 C11        -1.2649   -8.2108   -3.0641 C.ar      1 <0>        -0.1721
     14 C12        -2.3865   -8.9737   -3.4314 C.ar      1 <0>        -0.0341
     15 C13        -3.2359   -9.4502   -2.4792 C.ar      1 <0>        -0.2507
     16 C14        -3.0081   -9.1944   -1.1257 C.ar      1 <0>         0.3038
     17 C15        -1.9219   -8.4304   -0.7344 C.ar      1 <0>        -0.1507
     18 C16        -1.0553   -7.9152   -1.6995 C.ar      1 <0>        -0.0831
     19 C17         0.0500   -7.0298   -1.2992 C.2       1 <0>         0.4617
     20 O1          0.9175   -7.4185   -0.5376 O.2       1 <0>        -0.4418
     21 N3         -3.8773   -9.7097   -0.1653 N.2       1 <0>        -1.0672
     22 S1         -5.1776  -10.6235   -0.6305 S.o2      1 <0>         2.7195
     23 O2         -6.0456   -9.7582   -1.3496 O.2       1 <0>        -1.0506
     24 O3         -4.6537  -11.8178   -1.1947 O.2       1 <0>        -1.0430
     25 N4         -5.9839  -11.0648    0.7470 N.pl3     1 <0>        -0.9899
     26 C18        -7.0496  -10.2109    1.2774 C.3       1 <0>         0.1065
     27 C19        -5.6314  -12.3092    1.4352 C.3       1 <0>         0.1346
     28 C20        -4.6323  -12.0078    2.5540 C.3       1 <0>         0.0307
     29 H1         -5.0802  -11.3141    3.2654 H         1 <0>         0.0652
     30 C21        -4.2605  -13.3083    3.2721 C.3       1 <0>         0.0309
     31 O4         -3.2439  -13.0353    4.2412 O.3       1 <0>        -0.3840
     32 C22        -2.0622  -12.4531    3.6829 C.3       1 <0>         0.0214
     33 C23        -2.4340  -11.1526    2.9648 C.3       1 <0>         0.0327
     34 O5         -3.4512  -11.4242    1.9959 O.3       1 <0>        -0.3292
     35 N5          0.0651   -4.2087   -3.7198 N.ar      1 <0>        -0.4759
     36 C24         0.0305   -3.1599   -2.9350 C.ar      1 <0>         0.1217
     37 H2          1.0048    1.8381    0.0023 H         1 <0>         0.0756
     38 H3         -0.5450    1.8219   -0.8730 H         1 <0>         0.0887
     39 H4         -0.5280    1.8123    0.9069 H         1 <0>         0.0901
     40 H5         -0.0021   -0.4506   -2.1203 H         1 <0>         0.1794
     41 H6          0.0494   -2.9451    1.3761 H         1 <0>         0.1875
     42 H7          0.0463   -4.6991    0.0909 H         1 <0>         0.1391
     43 H8          0.9100   -6.4187   -5.0047 H         1 <0>         0.1228
     44 H9         -0.1138   -8.4521   -4.8752 H         1 <0>         0.1167
     45 H10        -2.5760   -9.1830   -4.4738 H         1 <0>         0.1127
     46 H11        -4.0961  -10.0325   -2.7747 H         1 <0>         0.1001
     47 H12        -1.7458   -8.2343    0.3129 H         1 <0>         0.1200
     48 H13        -8.0037  -10.5080    0.8422 H         1 <0>         0.0448
     49 H14        -7.0955  -10.3181    2.3611 H         1 <0>         0.0590
     50 H15        -6.8424   -9.1713    1.0236 H         1 <0>         0.0688
     51 H16        -6.5299  -12.7559    1.8610 H         1 <0>         0.0843
     52 H17        -5.1826  -13.0029    0.7243 H         1 <0>         0.0950
     53 H18        -5.1407  -13.7131    3.7717 H         1 <0>         0.0996
     54 H19        -3.8875  -14.0313    2.5467 H         1 <0>         0.0617
     55 H20        -1.3504  -12.2384    4.4800 H         1 <0>         0.0991
     56 H21        -1.6153  -13.1473    2.9713 H         1 <0>         0.0595
     57 H22        -2.8070  -10.4296    3.6902 H         1 <0>         0.0529
     58 H23        -1.5538  -10.7479    2.4652 H         1 <0>         0.1050
     59 H24        -0.0017   -2.1732   -3.3730 H         1 <0>         0.1535
@<TRIPOS>BOND
     1    1    2 1
     2    1   37 1
     3    1   38 1
     4    1   39 1
     5    2    6 1
     6    2    3 1
     7    3    4 2
     8    3   40 1
     9    4    5 1
    10    4    7 1
    11    5    6 2
    12    5   41 1
    13    7   36 ar
    14    7    8 ar
    15    8    9 ar
    16    8   42 1
    17    9   19 1
    18    9   10 ar
    19   10   11 1
    20   10   35 ar
    21   11   12 2
    22   11   43 1
    23   12   13 1
    24   12   44 1
    25   13   18 ar
    26   13   14 ar
    27   14   15 ar
    28   14   45 1
    29   15   16 ar
    30   15   46 1
    31   16   17 ar
    32   16   21 1
    33   17   18 ar
    34   17   47 1
    35   18   19 1
    36   19   20 2
    37   21   22 1
    38   22   23 2
    39   22   24 2
    40   22   25 1
    41   25   26 1
    42   25   27 1
    43   26   48 1
    44   26   49 1
    45   26   50 1
    46   27   28 1
    47   27   51 1
    48   27   52 1
    49   28   29 1
    50   28   34 1
    51   28   30 1
    52   30   31 1
    53   30   53 1
    54   30   54 1
    55   31   32 1
    56   32   33 1
    57   32   55 1
    58   32   56 1
    59   33   34 1
    60   33   57 1
    61   33   58 1
    62   35   36 ar
    63   36   59 1
@<TRIPOS>MOLECULE
ZINC34842284
   60    64     0     0     0
SMALL
USER_CHARGES

@<TRIPOS>ATOM
      1 C1         -0.0178    1.4608    0.0101 C.3       1 <0>         0.0965
      2 N1          0.0021   -0.0041    0.0020 N.pl3     1 <0>        -0.3671
      3 C2          0.0078   -0.7883   -1.0945 C.2       1 <0>         0.0815
      4 C3          0.0278   -2.0866   -0.6734 C.2       1 <0>        -0.2075
      5 C4          0.0343   -2.0758    0.7354 C.2       1 <0>         0.0682
      6 N2          0.0245   -0.8308    1.1317 N.2       1 <0>        -0.2890
      7 C5          0.0397   -3.2901   -1.5414 C.ar      1 <0>        -0.0366
      8 C6          0.0543   -4.5644   -0.9807 C.ar      1 <0>        -0.0385
      9 C7          0.0802   -5.6649   -1.8426 C.ar      1 <0>        -0.1799
     10 C8          0.1229   -5.4562   -3.2387 C.ar      1 <0>         0.1790
     11 C9          0.2532   -6.5705   -4.1609 C.2       1 <0>        -0.0928
     12 C10        -0.3414   -7.7510   -4.0859 C.2       1 <0>        -0.0827
     13 C11        -1.2649   -8.2108   -3.0641 C.ar      1 <0>        -0.0205
     14 C12        -2.3865   -8.9737   -3.4314 C.ar      1 <0>        -0.0788
     15 C13        -3.2359   -9.4502   -2.4792 C.ar      1 <0>        -0.1379
     16 C14        -3.0081   -9.1944   -1.1257 C.ar      1 <0>         0.1494
     17 C15        -1.9219   -8.4304   -0.7344 C.ar      1 <0>        -0.0939
     18 C16        -1.0553   -7.9152   -1.6995 C.ar      1 <0>        -0.1193
     19 C17         0.0500   -7.0298   -1.2992 C.2       1 <0>         0.4578
     20 O1          0.9175   -7.4185   -0.5376 O.2       1 <0>        -0.4210
     21 N3         -3.8773   -9.7097   -0.1653 N.pl3     1 <0>        -1.0655
     22 S1         -4.3812  -11.2840   -0.2641 S.o2      1 <0>         2.7793
     23 O2         -5.2247  -11.5116    0.8566 O.2       1 <0>        -0.9610
     24 O3         -4.8189  -11.4872   -1.6007 O.2       1 <0>        -0.9643
     25 N4         -3.0455  -12.2399   -0.0531 N.pl3     1 <0>        -0.9947
     26 C18        -2.6613  -12.6751    1.2920 C.3       1 <0>         0.0938
     27 C19        -2.2480  -12.6502   -1.2115 C.3       1 <0>         0.1210
     28 C20        -1.0763  -11.6831   -1.3923 C.3       1 <0>         0.0178
     29 H1         -1.4536  -10.6631   -1.4645 H         1 <0>         0.0816
     30 C21        -0.3126  -12.0380   -2.6715 C.3       1 <0>         0.0320
     31 O4          0.8442  -11.2023   -2.7746 O.3       1 <0>        -0.3693
     32 C22         1.7288  -11.3082   -1.6551 C.3       1 <0>         0.0253
     33 C23         0.9651  -10.9534   -0.3760 C.3       1 <0>         0.0211
     34 O5         -0.1924  -11.7879   -0.2721 O.3       1 <0>        -0.3671
     35 N5          0.0651   -4.2087   -3.7198 N.ar      1 <0>        -0.4628
     36 C24         0.0305   -3.1599   -2.9350 C.ar      1 <0>         0.1258
     37 H2          1.0048    1.8381    0.0023 H         1 <0>         0.0802
     38 H3         -0.5450    1.8219   -0.8730 H         1 <0>         0.0921
     39 H4         -0.5280    1.8123    0.9069 H         1 <0>         0.0936
     40 H5         -0.0021   -0.4506   -2.1203 H         1 <0>         0.1820
     41 H6          0.0494   -2.9451    1.3761 H         1 <0>         0.1866
     42 H7          0.0463   -4.6991    0.0909 H         1 <0>         0.1426
     43 H8          0.9100   -6.4187   -5.0047 H         1 <0>         0.1374
     44 H9         -0.1138   -8.4521   -4.8752 H         1 <0>         0.1386
     45 H10        -2.5760   -9.1830   -4.4738 H         1 <0>         0.1447
     46 H11        -4.0961  -10.0325   -2.7747 H         1 <0>         0.1659
     47 H12        -1.7458   -8.2343    0.3129 H         1 <0>         0.1371
     48 H13        -4.1869   -9.1460    0.5609 H         1 <0>         0.4277
     49 H14        -3.1500  -13.6222    1.5208 H         1 <0>         0.0607
     50 H15        -1.5799  -12.8040    1.3372 H         1 <0>         0.0884
     51 H16        -2.9683  -11.9229    2.0187 H         1 <0>         0.0679
     52 H17        -1.8656  -13.6582   -1.0506 H         1 <0>         0.0981
     53 H18        -2.8717  -12.6365   -2.1052 H         1 <0>         0.1107
     54 H19        -0.0048  -13.0830   -2.6340 H         1 <0>         0.0632
     55 H20        -0.9562  -11.8775   -3.5364 H         1 <0>         0.1055
     56 H21         2.1052  -12.3286   -1.5835 H         1 <0>         0.0597
     57 H22         2.5636  -10.6192   -1.7840 H         1 <0>         0.1035
     58 H23         1.6087  -11.1138    0.4889 H         1 <0>         0.1029
     59 H24         0.6574   -9.9084   -0.4134 H         1 <0>         0.0696
     60 H25        -0.0017   -2.1732   -3.3730 H         1 <0>         0.1615
@<TRIPOS>BOND
     1    1    2 1
     2    1   37 1
     3    1   38 1
     4    1   39 1
     5    2    6 1
     6    2    3 1
     7    3    4 2
     8    3   40 1
     9    4    5 1
    10    4    7 1
    11    5    6 2
    12    5   41 1
    13    7   36 ar
    14    7    8 ar
    15    8    9 ar
    16    8   42 1
    17    9   19 1
    18    9   10 ar
    19   10   11 1
    20   10   35 ar
    21   11   12 2
    22   11   43 1
    23   12   13 1
    24   12   44 1
    25   13   18 ar
    26   13   14 ar
    27   14   15 ar
    28   14   45 1
    29   15   16 ar
    30   15   46 1
    31   16   17 ar
    32   16   21 1
    33   17   18 ar
    34   17   47 1
    35   18   19 1
    36   19   20 2
    37   21   22 1
    38   21   48 1
    39   22   23 2
    40   22   24 2
    41   22   25 1
    42   25   26 1
    43   25   27 1
    44   26   49 1
    45   26   50 1
    46   26   51 1
    47   27   28 1
    48   27   52 1
    49   27   53 1
    50   28   29 1
    51   28   34 1
    52   28   30 1
    53   30   31 1
    54   30   54 1
    55   30   55 1
    56   31   32 1
    57   32   33 1
    58   32   56 1
    59   32   57 1
    60   33   34 1
    61   33   58 1
    62   33   59 1
    63   35   36 ar
    64   36   60 1
@<TRIPOS>MOLECULE
ZINC34842284
   59    63     0     0     0
SMALL
USER_CHARGES

@<TRIPOS>ATOM
      1 C1         -0.0178    1.4608    0.0101 C.3       1 <0>         0.1007
      2 N1          0.0021   -0.0041    0.0020 N.pl3     1 <0>        -0.3736
      3 C2          0.0078   -0.7883   -1.0945 C.2       1 <0>         0.0703
      4 C3          0.0278   -2.0866   -0.6734 C.2       1 <0>        -0.1902
      5 C4          0.0343   -2.0758    0.7354 C.2       1 <0>         0.0673
      6 N2          0.0245   -0.8308    1.1317 N.2       1 <0>        -0.2943
      7 C5          0.0397   -3.2901   -1.5414 C.ar      1 <0>        -0.0608
      8 C6          0.0543   -4.5644   -0.9807 C.ar      1 <0>        -0.0333
      9 C7          0.0802   -5.6649   -1.8426 C.ar      1 <0>        -0.1792
     10 C8          0.1229   -5.4562   -3.2387 C.ar      1 <0>         0.2045
     11 C9          0.2532   -6.5705   -4.1609 C.2       1 <0>        -0.1592
     12 C10        -0.3414   -7.7510   -4.0859 C.2       1 <0>        -0.0231
     13 C11        -1.2649   -8.2108   -3.0641 C.ar      1 <0>        -0.1647
     14 C12        -2.3865   -8.9737   -3.4314 C.ar      1 <0>        -0.0353
     15 C13        -3.2359   -9.4502   -2.4792 C.ar      1 <0>        -0.2465
     16 C14        -3.0081   -9.1944   -1.1257 C.ar      1 <0>         0.3005
     17 C15        -1.9219   -8.4304   -0.7344 C.ar      1 <0>        -0.1500
     18 C16        -1.0553   -7.9152   -1.6995 C.ar      1 <0>        -0.0837
     19 C17         0.0500   -7.0298   -1.2992 C.2       1 <0>         0.4609
     20 O1          0.9175   -7.4185   -0.5376 O.2       1 <0>        -0.4397
     21 N3         -3.8773   -9.7097   -0.1653 N.2       1 <0>        -1.0971
     22 S1         -5.1776  -10.6235   -0.6305 S.o2      1 <0>         2.7153
     23 O2         -6.0456   -9.7582   -1.3496 O.2       1 <0>        -1.0429
     24 O3         -4.6537  -11.8178   -1.1947 O.2       1 <0>        -1.0457
     25 N4         -5.9839  -11.0648    0.7470 N.pl3     1 <0>        -0.9885
     26 C18        -7.0496  -10.2109    1.2774 C.3       1 <0>         0.1091
     27 C19        -5.6314  -12.3092    1.4352 C.3       1 <0>         0.1365
     28 C20        -4.6323  -12.0078    2.5540 C.3       1 <0>         0.0329
     29 H1         -3.7717  -11.4810    2.1417 H         1 <0>         0.0873
     30 C21        -4.1704  -13.3198    3.1948 C.3       1 <0>         0.0320
     31 O4         -3.3244  -13.0250    4.3103 O.3       1 <0>        -0.3784
     32 C22        -3.9524  -12.2119    5.3061 C.3       1 <0>         0.0246
     33 C23        -4.4143  -10.8999    4.6653 C.3       1 <0>         0.0237
     34 O5         -5.2598  -11.1934    3.5490 O.3       1 <0>        -0.3667
     35 N5          0.0651   -4.2087   -3.7198 N.ar      1 <0>        -0.4751
     36 C24         0.0305   -3.1599   -2.9350 C.ar      1 <0>         0.1218
     37 H2          1.0048    1.8381    0.0023 H         1 <0>         0.0758
     38 H3         -0.5450    1.8219   -0.8730 H         1 <0>         0.0888
     39 H4         -0.5280    1.8123    0.9069 H         1 <0>         0.0902
     40 H5         -0.0021   -0.4506   -2.1203 H         1 <0>         0.1795
     41 H6          0.0494   -2.9451    1.3761 H         1 <0>         0.1876
     42 H7          0.0463   -4.6991    0.0909 H         1 <0>         0.1396
     43 H8          0.9100   -6.4187   -5.0047 H         1 <0>         0.1239
     44 H9         -0.1138   -8.4521   -4.8752 H         1 <0>         0.1183
     45 H10        -2.5760   -9.1830   -4.4738 H         1 <0>         0.1151
     46 H11        -4.0961  -10.0325   -2.7747 H         1 <0>         0.1021
     47 H12        -1.7458   -8.2343    0.3129 H         1 <0>         0.1215
     48 H13        -8.0037  -10.5080    0.8422 H         1 <0>         0.0404
     49 H14        -7.0955  -10.3181    2.3611 H         1 <0>         0.0728
     50 H15        -6.8424   -9.1713    1.0236 H         1 <0>         0.0649
     51 H16        -6.5299  -12.7559    1.8610 H         1 <0>         0.0781
     52 H17        -5.1826  -13.0029    0.7243 H         1 <0>         0.1032
     53 H18        -5.0384  -13.8845    3.5350 H         1 <0>         0.0590
     54 H19        -3.6164  -13.9075    2.4628 H         1 <0>         0.1068
     55 H20        -4.8131  -12.7393    5.7173 H         1 <0>         0.0563
     56 H21        -3.2406  -11.9973    6.1031 H         1 <0>         0.1003
     57 H22        -4.9682  -10.3122    5.3973 H         1 <0>         0.0994
     58 H23        -3.5462  -10.3353    4.3251 H         1 <0>         0.0629
     59 H24        -0.0017   -2.1732   -3.3730 H         1 <0>         0.1540
@<TRIPOS>BOND
     1    1    2 1
     2    1   37 1
     3    1   38 1
     4    1   39 1
     5    2    6 1
     6    2    3 1
     7    3    4 2
     8    3   40 1
     9    4    5 1
    10    4    7 1
    11    5    6 2
    12    5   41 1
    13    7   36 ar
    14    7    8 ar
    15    8    9 ar
    16    8   42 1
    17    9   19 1
    18    9   10 ar
    19   10   11 1
    20   10   35 ar
    21   11   12 2
    22   11   43 1
    23   12   13 1
    24   12   44 1
    25   13   18 ar
    26   13   14 ar
    27   14   15 ar
    28   14   45 1
    29   15   16 ar
    30   15   46 1
    31   16   17 ar
    32   16   21 1
    33   17   18 ar
    34   17   47 1
    35   18   19 1
    36   19   20 2
    37   21   22 1
    38   22   23 2
    39   22   24 2
    40   22   25 1
    41   25   26 1
    42   25   27 1
    43   26   48 1
    44   26   49 1
    45   26   50 1
    46   27   28 1
    47   27   51 1
    48   27   52 1
    49   28   29 1
    50   28   34 1
    51   28   30 1
    52   30   31 1
    53   30   53 1
    54   30   54 1
    55   31   32 1
    56   32   33 1
    57   32   55 1
    58   32   56 1
    59   33   34 1
    60   33   57 1
    61   33   58 1
    62   35   36 ar
    63   36   59 1
@<TRIPOS>MOLECULE
ZINC00998893
   53    56     0     0     0
SMALL
USER_CHARGES
2-[2-ethoxy-6-iodo-4-[[2-(1-naphthylimino)-4-oxo-thiazolidin-5-ylidene]methyl]phenoxy]acetamide
@<TRIPOS>ATOM
      1 C1          6.1955    0.2483   -0.5794 C.3       1 <0>        -0.1531
      2 C2          4.7116    0.5291   -0.8249 C.3       1 <0>         0.0497
      3 O1          4.5759    1.6968   -1.6374 O.3       1 <0>        -0.2989
      4 C3          3.3115    2.0870   -1.9511 C.ar      1 <0>         0.1180
      5 C4          2.2306    1.3629   -1.4875 C.ar      1 <0>        -0.1512
      6 C5          0.9301    1.7676   -1.8125 C.ar      1 <0>        -0.0475
      7 C6          0.7332    2.9014   -2.6101 C.ar      1 <0>        -0.0422
      8 C7          1.8177    3.6211   -3.0629 C.ar      1 <0>        -0.0908
      9 C8          3.1070    3.2180   -2.7400 C.ar      1 <0>         0.1109
     10 O2          4.1724    3.9286   -3.1941 O.3       1 <0>        -0.2870
     11 C9          4.7175    3.5442   -4.4579 C.3       1 <0>         0.0439
     12 C10         5.8833    4.4377   -4.7949 C.2       1 <0>         0.5220
     13 O3          6.2148    5.3171   -4.0282 O.2       1 <0>        -0.5114
     14 N1          6.5577    4.2595   -5.9481 N.am      1 <0>        -0.8524
     15 I1          1.5211    5.3223   -4.2491 I         1 <0>        -0.0065
     16 C11        -0.2234    1.0018   -1.3233 C.2       1 <0>         0.0602
     17 C12        -1.3250    1.6510   -0.8670 C.2       1 <0>        -0.2035
     18 C13        -1.5208    3.0886   -0.5999 C.2       1 <0>         0.5504
     19 O4         -0.6289    3.8968   -0.7812 O.2       1 <0>        -0.4624
     20 N2         -2.7092    3.4592   -0.1540 N.am      1 <0>        -0.6484
     21 C14        -3.7058    2.5297    0.0453 C.2       1 <0>         0.4038
     22 N3         -4.9326    2.7258    0.4787 N.2       1 <0>        -0.4529
     23 C15        -5.7725    1.6656    0.6506 C.ar      1 <0>         0.1043
     24 C16        -5.3727    0.5552    1.3850 C.ar      1 <0>        -0.1350
     25 C17        -6.2320   -0.5201    1.5627 C.ar      1 <0>        -0.1009
     26 C18        -7.4818   -0.5376    1.0233 C.ar      1 <0>        -0.1024
     27 C19        -7.9505    0.5481    0.2647 C.ar      1 <0>        -0.0416
     28 C20        -7.1102    1.6700    0.0615 C.ar      1 <0>        -0.0335
     29 C21        -7.5732    2.7534   -0.6945 C.ar      1 <0>        -0.0945
     30 C22        -8.8282    2.7170   -1.2255 C.ar      1 <0>        -0.1153
     31 C23        -9.6571    1.6151   -1.0280 C.ar      1 <0>        -0.1106
     32 C24        -9.2384    0.5444   -0.2985 C.ar      1 <0>        -0.1067
     33 S1         -2.9304    0.9951   -0.4359 S.3       1 <0>        -0.0203
     34 H1          6.2991   -0.6424    0.0403 H         1 <0>         0.0813
     35 H2          6.6976    0.0875   -1.5334 H         1 <0>         0.0669
     36 H3          6.6470    1.0998   -0.0702 H         1 <0>         0.0692
     37 H4          4.2096    0.6898    0.1291 H         1 <0>         0.0656
     38 H5          4.2602   -0.3224   -1.3342 H         1 <0>         0.0652
     39 H6          2.3881    0.4865   -0.8763 H         1 <0>         0.1465
     40 H7         -0.2682    3.2144   -2.8664 H         1 <0>         0.1361
     41 H8          5.0555    2.5091   -4.4081 H         1 <0>         0.0888
     42 H9          3.9520    3.6397   -5.2280 H         1 <0>         0.0845
     43 H10         6.2926    3.5561   -6.5613 H         1 <0>         0.4022
     44 H11         7.3081    4.8346   -6.1650 H         1 <0>         0.4091
     45 H12        -0.1972   -0.0778   -1.3306 H         1 <0>         0.1623
     46 H13        -2.8810    4.3952    0.0342 H         1 <0>         0.4267
     47 H14        -4.3865    0.5308    1.8246 H         1 <0>         0.1294
     48 H15        -5.8982   -1.3685    2.1416 H         1 <0>         0.1292
     49 H16        -8.1197   -1.3948    1.1804 H         1 <0>         0.1309
     50 H17        -6.9404    3.6137   -0.8549 H         1 <0>         0.1294
     51 H18        -9.1845    3.5537   -1.8080 H         1 <0>         0.1258
     52 H19       -10.6470    1.6101   -1.4598 H         1 <0>         0.1260
     53 H20        -9.8923   -0.3027   -0.1531 H         1 <0>         0.1313
@<TRIPOS>BOND
     1    1    2 1
     2    1   34 1
     3    1   35 1
     4    1   36 1
     5    2    3 1
     6    2   37 1
     7    2   38 1
     8    3    4 1
     9    4    9 ar
    10    4    5 ar
    11    5    6 ar
    12    5   39 1
    13    6    7 ar
    14    6   16 1
    15    7    8 ar
    16    7   40 1
    17    8    9 ar
    18    8   15 1
    19    9   10 1
    20   10   11 1
    21   11   12 1
    22   11   41 1
    23   11   42 1
    24   12   13 2
    25   12   14 am
    26   14   43 1
    27   14   44 1
    28   16   17 2
    29   16   45 1
    30   17   33 1
    31   17   18 1
    32   18   19 2
    33   18   20 am
    34   20   21 1
    35   20   46 1
    36   21   22 2
    37   21   33 1
    38   22   23 1
    39   23   28 ar
    40   23   24 ar
    41   24   25 ar
    42   24   47 1
    43   25   26 ar
    44   25   48 1
    45   26   27 ar
    46   26   49 1
    47   27   32 ar
    48   27   28 ar
    49   28   29 ar
    50   29   30 ar
    51   29   50 1
    52   30   31 ar
    53   30   51 1
    54   31   32 ar
    55   31   52 1
    56   32   53 1
@<TRIPOS>MOLECULE
ZINC05729787
   38    40     0     0     0
SMALL
USER_CHARGES

@<TRIPOS>ATOM
      1 C1         -0.8650    2.2968    0.2518 C.3       1 <0>         0.0261
      2 O1         -0.5906    0.9053    0.0770 O.3       1 <0>        -0.3170
      3 C2         -1.6567    0.0626    0.0680 C.ar      1 <0>         0.1335
      4 C3         -2.9410    0.5652    0.2184 C.ar      1 <0>        -0.2068
      5 C4         -4.0231   -0.2935    0.2083 C.ar      1 <0>        -0.0606
      6 C5         -3.8270   -1.6529    0.0490 C.ar      1 <0>        -0.1162
      7 C6         -2.5480   -2.1563   -0.1006 C.ar      1 <0>        -0.0609
      8 C7         -1.4630   -1.3012   -0.0974 C.ar      1 <0>        -0.1498
      9 C8         -5.0092   -2.5873    0.0389 C.3       1 <0>        -0.0868
     10 C9         -5.5096   -2.7491   -1.3733 C.2       1 <0>         0.5245
     11 O2         -4.9605   -2.1634   -2.2819 O.2       1 <0>        -0.4730
     12 N1         -6.5676   -3.5448   -1.6264 N.am      1 <0>        -0.5771
     13 N2         -7.0328   -3.6952   -2.9393 N.2       1 <0>        -0.1128
     14 C10        -8.1250   -4.3811   -3.1731 C.2       1 <0>         0.0632
     15 C11        -9.0902   -4.9071   -2.1797 C.ar      1 <0>        -0.1574
     16 C12        -9.1528   -4.8526   -0.7918 C.ar      1 <0>        -0.0569
     17 C13       -10.2045   -5.4538   -0.1297 C.ar      1 <0>        -0.1362
     18 C14       -11.1924   -6.1081   -0.8463 C.ar      1 <0>        -0.0641
     19 C15       -11.1390   -6.1675   -2.2242 C.ar      1 <0>        -0.1329
     20 C16       -10.0873   -5.5678   -2.9086 C.ar      1 <0>         0.1714
     21 N3         -9.7985   -5.4815   -4.2661 N.am      1 <0>        -0.6482
     22 C17        -8.6653   -4.7930   -4.4847 C.2       1 <0>         0.5906
     23 O3         -8.1703   -4.5542   -5.5703 O.2       1 <0>        -0.4643
     24 H1          0.0706    2.8559    0.2399 H         1 <0>         0.1016
     25 H2         -1.5067    2.6450   -0.5575 H         1 <0>         0.0567
     26 H3         -1.3682    2.4508    1.2064 H         1 <0>         0.0563
     27 H4         -3.0946    1.6269    0.3435 H         1 <0>         0.1298
     28 H5         -5.0231    0.0973    0.3253 H         1 <0>         0.1241
     29 H6         -2.3973   -3.2186   -0.2245 H         1 <0>         0.1293
     30 H7         -0.4645   -1.6944   -0.2188 H         1 <0>         0.1331
     31 H8         -4.7079   -3.5587    0.4311 H         1 <0>         0.1120
     32 H9         -5.8036   -2.1749    0.6609 H         1 <0>         0.1105
     33 H10        -7.0069   -4.0134   -0.8995 H         1 <0>         0.3929
     34 H11        -8.3816   -4.3423   -0.2339 H         1 <0>         0.1219
     35 H12       -10.2567   -5.4141    0.9483 H         1 <0>         0.1379
     36 H13       -12.0122   -6.5766   -0.3221 H         1 <0>         0.1394
     37 H14       -11.9152   -6.6811   -2.7720 H         1 <0>         0.1368
     38 H15       -10.3481   -5.8657   -4.9670 H         1 <0>         0.4294
@<TRIPOS>BOND
     1    1    2 1
     2    1   24 1
     3    1   25 1
     4    1   26 1
     5    2    3 1
     6    3    8 ar
     7    3    4 ar
     8    4    5 ar
     9    4   27 1
    10    5    6 ar
    11    5   28 1
    12    6    7 ar
    13    6    9 1
    14    7    8 ar
    15    7   29 1
    16    8   30 1
    17    9   10 1
    18    9   31 1
    19    9   32 1
    20   10   11 2
    21   10   12 am
    22   12   13 1
    23   12   33 1
    24   13   14 2
    25   14   22 1
    26   14   15 1
    27   15   20 ar
    28   15   16 ar
    29   16   17 ar
    30   16   34 1
    31   17   18 ar
    32   17   35 1
    33   18   19 ar
    34   18   36 1
    35   19   20 ar
    36   19   37 1
    37   20   21 1
    38   21   22 am
    39   21   38 1
    40   22   23 2
@<TRIPOS>MOLECULE
ZINC06574943
   34    36     0     0     0
SMALL
USER_CHARGES

@<TRIPOS>ATOM
      1 C1          0.4567    2.0663   -0.0456 C.ar      1 <0>        -0.1141
      2 C2          1.7478    2.5370   -0.1955 C.ar      1 <0>        -0.1186
      3 C3          2.8104    1.6529   -0.1940 C.ar      1 <0>        -0.1025
      4 C4          2.5820    0.2980   -0.0421 C.ar      1 <0>        -0.0781
      5 C5          1.2910   -0.1726    0.1087 C.ar      1 <0>        -0.1021
      6 C6          0.2283    0.7114    0.1057 C.ar      1 <0>        -0.1184
      7 C7          3.7403   -0.6660   -0.0414 C.3       1 <0>        -0.0926
      8 C8          4.2410   -0.8487    1.3682 C.2       1 <0>         0.5261
      9 O1          3.7097   -0.2547    2.2820 O.2       1 <0>        -0.4730
     10 N1          5.2793   -1.6723    1.6131 N.am      1 <0>        -0.5769
     11 N2          5.7448   -1.8421    2.9236 N.2       1 <0>        -0.1130
     12 C9          6.8200   -2.5567    3.1497 C.2       1 <0>         0.0639
     13 C10         7.7685   -3.1009    2.1502 C.ar      1 <0>        -0.1578
     14 C11         7.8281   -3.0398    0.7624 C.ar      1 <0>        -0.0568
     15 C12         8.8623   -3.6633    0.0933 C.ar      1 <0>        -0.1362
     16 C13         9.8356   -4.3465    0.8028 C.ar      1 <0>        -0.0638
     17 C14         9.7850   -4.4127    2.1805 C.ar      1 <0>        -0.1329
     18 C15         8.7510   -3.7908    2.8718 C.ar      1 <0>         0.1716
     19 N3          8.4688   -3.7053    4.2308 N.am      1 <0>        -0.6481
     20 C16         7.3540   -2.9897    4.4571 C.2       1 <0>         0.5907
     21 O2          6.8686   -2.7450    5.5458 O.2       1 <0>        -0.4641
     22 H1         -0.3731    2.7576   -0.0424 H         1 <0>         0.1234
     23 H2          1.9263    3.5956   -0.3142 H         1 <0>         0.1240
     24 H3          3.8190    2.0206   -0.3118 H         1 <0>         0.1208
     25 H4          1.1125   -1.2312    0.2270 H         1 <0>         0.1213
     26 H5         -0.7804    0.3437    0.2231 H         1 <0>         0.1242
     27 H6          3.4134   -1.6271   -0.4382 H         1 <0>         0.1125
     28 H7          4.5429   -0.2700   -0.6636 H         1 <0>         0.1118
     29 H8          5.7044   -2.1474    0.8821 H         1 <0>         0.3930
     30 H9          7.0682   -2.5069    0.2100 H         1 <0>         0.1217
     31 H10         8.9120   -3.6186   -0.9846 H         1 <0>         0.1380
     32 H11        10.6417   -4.8324    0.2731 H         1 <0>         0.1395
     33 H12        10.5498   -4.9489    2.7227 H         1 <0>         0.1370
     34 H13         9.0107   -4.1074    4.9275 H         1 <0>         0.4295
@<TRIPOS>BOND
     1    1    6 ar
     2    1    2 ar
     3    1   22 1
     4    2    3 ar
     5    2   23 1
     6    3    4 ar
     7    3   24 1
     8    4    5 ar
     9    4    7 1
    10    5    6 ar
    11    5   25 1
    12    6   26 1
    13    7    8 1
    14    7   27 1
    15    7   28 1
    16    8    9 2
    17    8   10 am
    18   10   11 1
    19   10   29 1
    20   11   12 2
    21   12   20 1
    22   12   13 1
    23   13   18 ar
    24   13   14 ar
    25   14   15 ar
    26   14   30 1
    27   15   16 ar
    28   15   31 1
    29   16   17 ar
    30   16   32 1
    31   17   18 ar
    32   17   33 1
    33   18   19 1
    34   19   20 am
    35   19   34 1
    36   20   21 2
@<TRIPOS>MOLECULE
ZINC03135687
   34    36     0     0     0
SMALL
USER_CHARGES

@<TRIPOS>ATOM
      1 C1         -0.0166    1.3764    0.0096 C.ar      1 <0>        -0.1388
      2 C2          1.1722    2.0864    0.0021 C.ar      1 <0>        -0.0664
      3 C3          2.3847    1.4272   -0.0130 C.ar      1 <0>        -0.1349
      4 C4          2.4235    0.0371   -0.0212 C.ar      1 <0>         0.1564
      5 C5          1.2186   -0.6771   -0.0136 C.ar      1 <0>        -0.0978
      6 C6          0.0021   -0.0041    0.0020 C.ar      1 <0>        -0.0352
      7 C7          1.5833   -2.1130   -0.0248 C.2       1 <0>         0.0643
      8 N1          0.7723   -3.1427   -0.0226 N.2       1 <0>        -0.1155
      9 N2          1.2920   -4.4437   -0.0345 N.am      1 <0>        -0.5740
     10 C8          0.4581   -5.5026   -0.0322 C.2       1 <0>         0.5301
     11 O1         -0.7418   -5.3291   -0.0198 O.2       1 <0>        -0.4793
     12 C9          1.0171   -6.9020   -0.0451 C.3       1 <0>        -0.0939
     13 C10        -0.1159   -7.8956   -0.0396 C.ar      1 <0>        -0.0628
     14 C11        -0.6279   -8.3534    1.1604 C.ar      1 <0>        -0.0974
     15 C12        -1.6671   -9.2647    1.1662 C.ar      1 <0>        -0.1042
     16 C13        -2.1949   -9.7193   -0.0278 C.ar      1 <0>        -0.1054
     17 C14        -1.6831   -9.2616   -1.2287 C.ar      1 <0>        -0.0329
     18 C15        -0.6468   -8.3446   -1.2339 C.ar      1 <0>        -0.0936
     19 Cl1        -2.3454   -9.8319   -2.7286 Cl        1 <0>        -0.0673
     20 C16         3.0603   -2.1311   -0.0390 C.2       1 <0>         0.5455
     21 O2          3.7645   -3.1233   -0.0514 O.2       1 <0>        -0.5013
     22 N3          3.4883   -0.8572   -0.0362 N.am      1 <0>        -0.6438
     23 H1         -0.9594    1.9030    0.0259 H         1 <0>         0.1373
     24 H2          1.1504    3.1662    0.0077 H         1 <0>         0.1379
     25 H3          3.3052    1.9921   -0.0188 H         1 <0>         0.1350
     26 H4         -0.9245   -0.5589    0.0075 H         1 <0>         0.1388
     27 H5          2.2520   -4.5825   -0.0444 H         1 <0>         0.4098
     28 H6          1.6205   -7.0440   -0.9416 H         1 <0>         0.1156
     29 H7          1.6375   -7.0535    0.8382 H         1 <0>         0.1169
     30 H8         -0.2154   -7.9991    2.0935 H         1 <0>         0.1290
     31 H9         -2.0666   -9.6220    2.1039 H         1 <0>         0.1352
     32 H10        -3.0064  -10.4319   -0.0231 H         1 <0>         0.1351
     33 H11        -0.2497   -7.9835   -2.1711 H         1 <0>         0.1326
     34 H12         4.4221   -0.5946   -0.0437 H         1 <0>         0.4248
@<TRIPOS>BOND
     1    1    6 ar
     2    1    2 ar
     3    1   23 1
     4    2    3 ar
     5    2   24 1
     6    3    4 ar
     7    3   25 1
     8    4   22 1
     9    4    5 ar
    10    5    6 ar
    11    5    7 1
    12    6   26 1
    13    7    8 2
    14    7   20 1
    15    8    9 1
    16    9   10 am
    17    9   27 1
    18   10   11 2
    19   10   12 1
    20   12   13 1
    21   12   28 1
    22   12   29 1
    23   13   18 ar
    24   13   14 ar
    25   14   15 ar
    26   14   30 1
    27   15   16 ar
    28   15   31 1
    29   16   17 ar
    30   16   32 1
    31   17   18 ar
    32   17   19 1
    33   18   33 1
    34   20   21 2
    35   20   22 am
    36   22   34 1
@<TRIPOS>MOLECULE
ZINC14003058
   34    36     0     0     0
SMALL
USER_CHARGES

@<TRIPOS>ATOM
      1 C1         -0.0166    1.3764    0.0096 C.ar      1 <0>        -0.1388
      2 C2          1.1722    2.0864    0.0021 C.ar      1 <0>        -0.0664
      3 C3          2.3847    1.4272   -0.0130 C.ar      1 <0>        -0.1348
      4 C4          2.4235    0.0371   -0.0212 C.ar      1 <0>         0.1563
      5 C5          1.2186   -0.6771   -0.0136 C.ar      1 <0>        -0.0979
      6 C6          0.0021   -0.0041    0.0020 C.ar      1 <0>        -0.0352
      7 C7          1.5833   -2.1130   -0.0248 C.2       1 <0>         0.0644
      8 N1          0.7723   -3.1427   -0.0226 N.2       1 <0>        -0.1157
      9 N2          1.2920   -4.4437   -0.0345 N.am      1 <0>        -0.5742
     10 C8          0.4581   -5.5026   -0.0322 C.2       1 <0>         0.5301
     11 O1         -0.7418   -5.3291   -0.0198 O.2       1 <0>        -0.4797
     12 C9          1.0171   -6.9020   -0.0451 C.3       1 <0>        -0.0946
     13 C10        -0.1159   -7.8956   -0.0396 C.ar      1 <0>        -0.0711
     14 C11        -0.6277   -8.3533    1.1603 C.ar      1 <0>        -0.0891
     15 C12        -1.6669   -9.2645    1.1659 C.ar      1 <0>        -0.1084
     16 C13        -2.1949   -9.7187   -0.0295 C.ar      1 <0>        -0.0298
     17 C14        -1.6823   -9.2603   -1.2300 C.ar      1 <0>        -0.1085
     18 C15        -0.6468   -8.3447   -1.2344 C.ar      1 <0>        -0.0891
     19 Cl1        -3.4997  -10.8637   -0.0232 Cl        1 <0>        -0.0679
     20 C16         3.0603   -2.1311   -0.0390 C.2       1 <0>         0.5455
     21 O2          3.7645   -3.1233   -0.0514 O.2       1 <0>        -0.5014
     22 N3          3.4883   -0.8572   -0.0362 N.am      1 <0>        -0.6438
     23 H1         -0.9594    1.9030    0.0259 H         1 <0>         0.1373
     24 H2          1.1504    3.1662    0.0077 H         1 <0>         0.1379
     25 H3          3.3052    1.9921   -0.0188 H         1 <0>         0.1350
     26 H4         -0.9245   -0.5589    0.0075 H         1 <0>         0.1388
     27 H5          2.2520   -4.5825   -0.0444 H         1 <0>         0.4097
     28 H6          1.6205   -7.0440   -0.9416 H         1 <0>         0.1155
     29 H7          1.6375   -7.0535    0.8382 H         1 <0>         0.1155
     30 H8         -0.2152   -7.9989    2.0934 H         1 <0>         0.1319
     31 H9         -2.0664   -9.6223    2.1034 H         1 <0>         0.1358
     32 H10        -2.0938   -9.6146   -2.1635 H         1 <0>         0.1358
     33 H11        -0.2498   -7.9831   -2.1714 H         1 <0>         0.1319
     34 H12         4.4221   -0.5946   -0.0437 H         1 <0>         0.4248
@<TRIPOS>BOND
     1    1    6 ar
     2    1    2 ar
     3    1   23 1
     4    2    3 ar
     5    2   24 1
     6    3    4 ar
     7    3   25 1
     8    4   22 1
     9    4    5 ar
    10    5    6 ar
    11    5    7 1
    12    6   26 1
    13    7    8 2
    14    7   20 1
    15    8    9 1
    16    9   10 am
    17    9   27 1
    18   10   11 2
    19   10   12 1
    20   12   13 1
    21   12   28 1
    22   12   29 1
    23   13   18 ar
    24   13   14 ar
    25   14   15 ar
    26   14   30 1
    27   15   16 ar
    28   15   31 1
    29   16   17 ar
    30   16   19 1
    31   17   18 ar
    32   17   32 1
    33   18   33 1
    34   20   21 2
    35   20   22 am
    36   22   34 1
@<TRIPOS>MOLECULE
ZINC66352145
   31    32     0     0     0
SMALL
USER_CHARGES

@<TRIPOS>ATOM
      1 C1          0.2924    1.2795   -0.1244 C.3       1 <0>        -0.1853
      2 C2          0.0646   -0.2291   -0.0104 C.3       1 <0>         0.1252
      3 H1          0.5172   -0.7306   -0.8658 H         1 <0>         0.1033
      4 C3          0.6943   -0.7375    1.2609 C.ar      1 <0>        -0.0618
      5 C4          0.0848   -0.4961    2.4794 C.ar      1 <0>        -0.0176
      6 C5          0.6622   -0.9624    3.6468 C.ar      1 <0>        -0.0715
      7 C6          1.8483   -1.6705    3.5972 C.ar      1 <0>        -0.1132
      8 C7          2.4589   -1.9133    2.3791 C.ar      1 <0>         0.1265
      9 C8          1.8780   -1.4502    1.2091 C.ar      1 <0>        -0.0567
     10 Cl1         2.6393   -1.7596   -0.3200 Cl        1 <0>        -0.0233
     11 F1          3.6184   -2.6049    2.3303 F         1 <0>        -0.1101
     12 Cl2        -1.4048    0.3931    2.5433 Cl        1 <0>        -0.0324
     13 O1         -1.3386   -0.4987    0.0122 O.3       1 <0>        -0.2789
     14 C9         -1.9659   -0.6068   -1.1898 C.ar      1 <0>         0.0712
     15 C10        -1.2810   -0.3458   -2.3673 C.ar      1 <0>        -0.0739
     16 C11        -1.9626   -0.4698   -3.5706 C.ar      1 <0>        -0.1221
     17 C12        -3.2905   -0.8458   -3.5607 C.ar      1 <0>         0.1069
     18 N1         -3.9191   -1.0884   -2.4255 N.ar      1 <0>        -0.4746
     19 C13        -3.3068   -0.9877   -1.2570 C.ar      1 <0>         0.4335
     20 N2         -4.0073   -1.2589   -0.0846 N.pl3     1 <0>        -0.8121
     21 H2          1.3627    1.4851   -0.1416 H         1 <0>         0.0922
     22 H3         -0.1631    1.6472   -1.0439 H         1 <0>         0.0758
     23 H4         -0.1602    1.7810    0.7310 H         1 <0>         0.0856
     24 H5          0.1861   -0.7728    4.5975 H         1 <0>         0.1598
     25 H6          2.2987   -2.0340    4.5090 H         1 <0>         0.1652
     26 H7         -0.2417   -0.0527   -2.3486 H         1 <0>         0.1763
     27 H8         -1.4586   -0.2734   -4.5054 H         1 <0>         0.1858
     28 H9         -3.8232   -0.9425   -4.4952 H         1 <0>         0.2112
     29 H10        -3.5632   -1.1828    0.7744 H         1 <0>         0.4423
     30 H11        -4.9395   -1.5240   -0.1268 H         1 <0>         0.4234
     31 H12        -4.8526   -1.3510   -2.4488 H         1 <0>         0.4493
@<TRIPOS>BOND
     1    1    2 1
     2    1   21 1
     3    1   22 1
     4    1   23 1
     5    2    3 1
     6    2    4 1
     7    2   13 1
     8    4    9 ar
     9    4    5 ar
    10    5    6 ar
    11    5   12 1
    12    6    7 ar
    13    6   24 1
    14    7    8 ar
    15    7   25 1
    16    8    9 ar
    17    8   11 1
    18    9   10 1
    19   13   14 1
    20   14   19 ar
    21   14   15 ar
    22   15   16 ar
    23   15   26 1
    24   16   17 ar
    25   16   27 1
    26   17   18 ar
    27   17   28 1
    28   18   19 ar
    29   18   31 1
    30   19   20 1
    31   20   29 1
    32   20   30 1
@<TRIPOS>MOLECULE
ZINC66352145
   30    31     0     0     0
SMALL
USER_CHARGES

@<TRIPOS>ATOM
      1 C1         -0.2847    1.2720   -0.1907 C.3       1 <0>        -0.1784
      2 C2         -0.0343   -0.2303   -0.0452 C.3       1 <0>         0.1217
      3 H1         -0.9885   -0.7558   -0.0077 H         1 <0>         0.0945
      4 C3          0.7645   -0.7229   -1.2243 C.ar      1 <0>        -0.0474
      5 C4          2.1181   -0.4477   -1.3065 C.ar      1 <0>        -0.0167
      6 C5          2.8520   -0.8995   -2.3885 C.ar      1 <0>        -0.0768
      7 C6          2.2341   -1.6269   -3.3885 C.ar      1 <0>        -0.1230
      8 C7          0.8804   -1.9034   -3.3075 C.ar      1 <0>         0.1181
      9 C8          0.1461   -1.4548   -2.2211 C.ar      1 <0>        -0.0576
     10 Cl1        -1.5506   -1.8065   -2.1148 Cl        1 <0>        -0.0281
     11 F1          0.2761   -2.6138   -4.2848 F         1 <0>        -0.1169
     12 Cl2         2.8955    0.4657   -0.0515 Cl        1 <0>        -0.0259
     13 O1          0.6932   -0.4774    1.1597 O.3       1 <0>        -0.2927
     14 C9         -0.0312   -0.5998    2.3043 C.ar      1 <0>         0.0149
     15 C10        -1.3996   -0.3731    2.2990 C.ar      1 <0>        -0.1268
     16 C11        -2.0977   -0.5104    3.4913 C.ar      1 <0>        -0.1950
     17 C12        -1.4161   -0.8654    4.6377 C.ar      1 <0>         0.1129
     18 N1         -0.1130   -1.0755    4.6154 N.ar      1 <0>        -0.5156
     19 C13         0.5902   -0.9610    3.5005 C.ar      1 <0>         0.3960
     20 N2          1.9622   -1.1978    3.5220 N.pl3     1 <0>        -0.8465
     21 H2          0.6695    1.7975   -0.2281 H         1 <0>         0.0770
     22 H3         -0.8396    1.4606   -1.1097 H         1 <0>         0.0763
     23 H4         -0.8625    1.6283    0.6622 H         1 <0>         0.0750
     24 H5          3.9083   -0.6836   -2.4522 H         1 <0>         0.1553
     25 H6          2.8076   -1.9790   -4.2331 H         1 <0>         0.1593
     26 H7         -1.9101   -0.0959    1.3885 H         1 <0>         0.1376
     27 H8         -3.1639   -0.3407    3.5215 H         1 <0>         0.1348
     28 H9         -1.9566   -0.9726    5.5666 H         1 <0>         0.1586
     29 H10         2.4821   -1.1115    2.7076 H         1 <0>         0.4112
     30 H11         2.3981   -1.4491    4.3513 H         1 <0>         0.4045
@<TRIPOS>BOND
     1    1    2 1
     2    1   21 1
     3    1   22 1
     4    1   23 1
     5    2    3 1
     6    2    4 1
     7    2   13 1
     8    4    9 ar
     9    4    5 ar
    10    5    6 ar
    11    5   12 1
    12    6    7 ar
    13    6   24 1
    14    7    8 ar
    15    7   25 1
    16    8    9 ar
    17    8   11 1
    18    9   10 1
    19   13   14 1
    20   14   19 ar
    21   14   15 ar
    22   15   16 ar
    23   15   26 1
    24   16   17 ar
    25   16   27 1
    26   17   18 ar
    27   17   28 1
    28   18   19 ar
    29   19   20 1
    30   20   29 1
    31   20   30 1
@<TRIPOS>MOLECULE
ZINC66352146
   31    32     0     0     0
SMALL
USER_CHARGES

@<TRIPOS>ATOM
      1 C1          0.1841    1.5006   -0.1321 C.3       1 <0>        -0.1855
      2 C2         -0.0000   -0.0126   -0.0002 C.3       1 <0>         0.1253
      3 H1          0.4013   -0.5059   -0.8854 H         1 <0>         0.1033
      4 C3         -1.4673   -0.3306    0.1304 C.ar      1 <0>        -0.0618
      5 C4         -2.1265   -0.0789    1.3206 C.ar      1 <0>        -0.0175
      6 C5         -3.4733   -0.3706    1.4412 C.ar      1 <0>        -0.0715
      7 C6         -4.1621   -0.9134    0.3728 C.ar      1 <0>        -0.1132
      8 C7         -3.5043   -1.1653   -0.8186 C.ar      1 <0>         0.1264
      9 C8         -2.1560   -0.8687   -0.9410 C.ar      1 <0>        -0.0566
     10 Cl1        -1.3311   -1.1780   -2.4368 Cl        1 <0>        -0.0233
     11 F1         -4.1771   -1.6963   -1.8629 F         1 <0>        -0.1101
     12 Cl2        -1.2628    0.6028    2.6634 Cl        1 <0>        -0.0326
     13 O1          0.6932   -0.4774    1.1597 O.3       1 <0>        -0.2790
     14 C9          2.0149   -0.7642    1.0156 C.ar      1 <0>         0.0714
     15 C10         2.6663   -0.4998   -0.1801 C.ar      1 <0>        -0.0741
     16 C11         4.0162   -0.8089   -0.2807 C.ar      1 <0>        -0.1220
     17 C12         4.6656   -1.3655    0.8024 C.ar      1 <0>         0.1068
     18 N1          4.0219   -1.6071    1.9295 N.ar      1 <0>        -0.4747
     19 C13         2.7374   -1.3234    2.0705 C.ar      1 <0>         0.4336
     20 N2          2.1000   -1.5898    3.2795 N.pl3     1 <0>        -0.8121
     21 H2          1.2453    1.7306   -0.2265 H         1 <0>         0.0757
     22 H3         -0.3447    1.8552   -1.0168 H         1 <0>         0.0922
     23 H4         -0.2173    1.9939    0.7532 H         1 <0>         0.0857
     24 H5         -3.9868   -0.1744    2.3709 H         1 <0>         0.1598
     25 H6         -5.2135   -1.1412    0.4677 H         1 <0>         0.1652
     26 H7          2.1356   -0.0639   -1.0137 H         1 <0>         0.1763
     27 H8          4.5528   -0.6159   -1.1979 H         1 <0>         0.1858
     28 H9          5.7155   -1.6073    0.7268 H         1 <0>         0.2112
     29 H10         1.1575   -1.3866    3.3859 H         1 <0>         0.4424
     30 H11         2.5984   -1.9785    4.0152 H         1 <0>         0.4234
     31 H12         4.5040   -1.9990    2.6744 H         1 <0>         0.4493
@<TRIPOS>BOND
     1    1    2 1
     2    1   21 1
     3    1   22 1
     4    1   23 1
     5    2    3 1
     6    2    4 1
     7    2   13 1
     8    4    9 ar
     9    4    5 ar
    10    5    6 ar
    11    5   12 1
    12    6    7 ar
    13    6   24 1
    14    7    8 ar
    15    7   25 1
    16    8    9 ar
    17    8   11 1
    18    9   10 1
    19   13   14 1
    20   14   19 ar
    21   14   15 ar
    22   15   16 ar
    23   15   26 1
    24   16   17 ar
    25   16   27 1
    26   17   18 ar
    27   17   28 1
    28   18   19 ar
    29   18   31 1
    30   19   20 1
    31   20   29 1
    32   20   30 1
@<TRIPOS>MOLECULE
ZINC66352146
   30    31     0     0     0
SMALL
USER_CHARGES

@<TRIPOS>ATOM
      1 C1         -0.2427    1.4946   -0.0938 C.3       1 <0>        -0.1787
      2 C2          0.0014   -0.0126    0.0050 C.3       1 <0>         0.1217
      3 H1         -0.9532   -0.5297    0.1017 H         1 <0>         0.0946
      4 C3          0.8557   -0.3051    1.2115 C.ar      1 <0>        -0.0473
      5 C4          2.2093   -0.0194    1.1865 C.ar      1 <0>        -0.0168
      6 C5          2.9941   -0.2875    2.2936 C.ar      1 <0>        -0.0767
      7 C6          2.4268   -0.8408    3.4262 C.ar      1 <0>        -0.1230
      8 C7          1.0730   -1.1267    3.4530 C.ar      1 <0>         0.1182
      9 C8          0.2858   -0.8537    2.3455 C.ar      1 <0>        -0.0577
     10 Cl1        -1.4138   -1.2057    2.3800 Cl        1 <0>        -0.0281
     11 F1          0.5183   -1.6679    4.5596 F         1 <0>        -0.1169
     12 Cl2         2.9232    0.6755   -0.2352 Cl        1 <0>        -0.0261
     13 O1          0.6709   -0.4649   -1.1737 O.3       1 <0>        -0.2928
     14 C9         -0.1071   -0.7750   -2.2453 C.ar      1 <0>         0.0150
     15 C10        -1.4745   -0.5447   -2.2125 C.ar      1 <0>        -0.1270
     16 C11        -2.2284   -0.8768   -3.3302 C.ar      1 <0>        -0.1950
     17 C12        -1.6012   -1.4217   -4.4322 C.ar      1 <0>         0.1128
     18 N1         -0.2977   -1.6307   -4.4374 N.ar      1 <0>        -0.5156
     19 C13         0.4592   -1.3243   -3.3964 C.ar      1 <0>         0.3960
     20 N2          1.8312   -1.5564   -3.4479 N.pl3     1 <0>        -0.8465
     21 H2          0.7119    2.0117   -0.1905 H         1 <0>         0.0771
     22 H3         -0.8606    1.7061   -0.9665 H         1 <0>         0.0749
     23 H4         -0.7534    1.8396    0.8052 H         1 <0>         0.0763
     24 H5          4.0507   -0.0649    2.2729 H         1 <0>         0.1553
     25 H6          3.0402   -1.0503    4.2901 H         1 <0>         0.1594
     26 H7         -1.9420   -0.1174   -1.3377 H         1 <0>         0.1376
     27 H8         -3.2955   -0.7106   -3.3371 H         1 <0>         0.1348
     28 H9         -2.1853   -1.6812   -5.3028 H         1 <0>         0.1586
     29 H10         2.3892   -1.3365   -2.6856 H         1 <0>         0.4112
     30 H11         2.2289   -1.9380   -4.2461 H         1 <0>         0.4045
@<TRIPOS>BOND
     1    1    2 1
     2    1   21 1
     3    1   22 1
     4    1   23 1
     5    2    3 1
     6    2    4 1
     7    2   13 1
     8    4    9 ar
     9    4    5 ar
    10    5    6 ar
    11    5   12 1
    12    6    7 ar
    13    6   24 1
    14    7    8 ar
    15    7   25 1
    16    8    9 ar
    17    8   11 1
    18    9   10 1
    19   13   14 1
    20   14   19 ar
    21   14   15 ar
    22   15   16 ar
    23   15   26 1
    24   16   17 ar
    25   16   27 1
    26   17   18 ar
    27   17   28 1
    28   18   19 ar
    29   19   20 1
    30   20   29 1
    31   20   30 1
@<TRIPOS>MOLECULE
ZINC38252749
   30    31     0     0     0
SMALL
USER_CHARGES

@<TRIPOS>ATOM
      1 C1         -0.2428    1.4946   -0.0938 C.3       1 <0>        -0.1798
      2 C2          0.0014   -0.0126    0.0050 C.3       1 <0>         0.1206
      3 H1         -0.9532   -0.5298    0.1017 H         1 <0>         0.0954
      4 C3          0.8557   -0.3050    1.2115 C.ar      1 <0>        -0.0481
      5 C4          2.2093   -0.0193    1.1865 C.ar      1 <0>        -0.0166
      6 C5          2.9941   -0.2874    2.2935 C.ar      1 <0>        -0.0763
      7 C6          2.4269   -0.8407    3.4262 C.ar      1 <0>        -0.1221
      8 C7          1.0730   -1.1267    3.4530 C.ar      1 <0>         0.1190
      9 C8          0.2858   -0.8536    2.3455 C.ar      1 <0>        -0.0575
     10 Cl1        -1.4138   -1.2057    2.3800 Cl        1 <0>        -0.0265
     11 F1          0.5184   -1.6678    4.5597 F         1 <0>        -0.1163
     12 Cl2         2.9231    0.6756   -0.2353 Cl        1 <0>        -0.0267
     13 O1          0.6709   -0.4649   -1.1737 O.3       1 <0>        -0.2888
     14 C9         -0.1071   -0.7750   -2.2453 C.ar      1 <0>         0.0239
     15 C10        -1.4745   -0.5447   -2.2124 C.ar      1 <0>        -0.1013
     16 C11        -2.2287   -0.8769   -3.3307 C.ar      1 <0>        -0.1697
     17 C12        -1.6007   -1.4221   -4.4331 C.ar      1 <0>         0.1519
     18 N1         -0.2970   -1.6308   -4.4375 N.ar      1 <0>        -0.5061
     19 C13         0.4593   -1.3242   -3.3963 C.ar      1 <0>         0.4116
     20 N2          1.8317   -1.5568   -3.4473 N.pl3     1 <0>        -0.8377
     21 Br1        -4.0972   -0.5861   -3.3430 Br        1 <0>        -0.0357
     22 H2          0.7118    2.0117   -0.1906 H         1 <0>         0.0787
     23 H3         -0.8607    1.7061   -0.9665 H         1 <0>         0.0751
     24 H4         -0.7535    1.8396    0.8052 H         1 <0>         0.0788
     25 H5          4.0507   -0.0647    2.2728 H         1 <0>         0.1557
     26 H6          3.0403   -1.0501    4.2901 H         1 <0>         0.1598
     27 H7         -1.9420   -0.1174   -1.3376 H         1 <0>         0.1480
     28 H8         -2.1843   -1.6818   -5.3039 H         1 <0>         0.1684
     29 H9          2.3895   -1.3371   -2.6847 H         1 <0>         0.4143
     30 H10         2.2297   -1.9384   -4.2453 H         1 <0>         0.4081
@<TRIPOS>BOND
     1    1    2 1
     2    1   22 1
     3    1   23 1
     4    1   24 1
     5    2    3 1
     6    2    4 1
     7    2   13 1
     8    4    9 ar
     9    4    5 ar
    10    5    6 ar
    11    5   12 1
    12    6    7 ar
    13    6   25 1
    14    7    8 ar
    15    7   26 1
    16    8    9 ar
    17    8   11 1
    18    9   10 1
    19   13   14 1
    20   14   19 ar
    21   14   15 ar
    22   15   16 ar
    23   15   27 1
    24   16   17 ar
    25   16   21 1
    26   17   18 ar
    27   17   28 1
    28   18   19 ar
    29   19   20 1
    30   20   29 1
    31   20   30 1
@<TRIPOS>MOLECULE
ZINC66345965
   30    31     0     0     0
SMALL
USER_CHARGES

@<TRIPOS>ATOM
      1 C1         -0.2847    1.2720   -0.1907 C.3       1 <0>        -0.1796
      2 C2         -0.0343   -0.2303   -0.0452 C.3       1 <0>         0.1205
      3 H1         -0.9885   -0.7557   -0.0077 H         1 <0>         0.0954
      4 C3          0.7645   -0.7229   -1.2243 C.ar      1 <0>        -0.0482
      5 C4          2.1180   -0.4477   -1.3065 C.ar      1 <0>        -0.0166
      6 C5          2.8520   -0.8996   -2.3885 C.ar      1 <0>        -0.0763
      7 C6          2.2340   -1.6269   -3.3885 C.ar      1 <0>        -0.1221
      8 C7          0.8804   -1.9034   -3.3075 C.ar      1 <0>         0.1189
      9 C8          0.1460   -1.4548   -2.2211 C.ar      1 <0>        -0.0575
     10 Cl1        -1.5506   -1.8065   -2.1148 Cl        1 <0>        -0.0264
     11 F1          0.2760   -2.6139   -4.2848 F         1 <0>        -0.1163
     12 Cl2         2.8955    0.4656   -0.0515 Cl        1 <0>        -0.0265
     13 O1          0.6932   -0.4774    1.1597 O.3       1 <0>        -0.2887
     14 C9         -0.0312   -0.5998    2.3043 C.ar      1 <0>         0.0238
     15 C10        -1.3995   -0.3731    2.2988 C.ar      1 <0>        -0.1012
     16 C11        -2.0980   -0.5105    3.4918 C.ar      1 <0>        -0.1699
     17 C12        -1.4155   -0.8657    4.6386 C.ar      1 <0>         0.1520
     18 N1         -0.1123   -1.0756    4.6154 N.ar      1 <0>        -0.5061
     19 C13         0.5903   -0.9610    3.5004 C.ar      1 <0>         0.4117
     20 N2          1.9628   -1.1973    3.5216 N.pl3     1 <0>        -0.8377
     21 Br1        -3.9647   -0.2134    3.5450 Br        1 <0>        -0.0357
     22 H2          0.6696    1.7975   -0.2281 H         1 <0>         0.0785
     23 H3         -0.8396    1.4606   -1.1097 H         1 <0>         0.0788
     24 H4         -0.8624    1.6284    0.6622 H         1 <0>         0.0752
     25 H5          3.9082   -0.6837   -2.4522 H         1 <0>         0.1557
     26 H6          2.8075   -1.9791   -4.2331 H         1 <0>         0.1597
     27 H7         -1.9101   -0.0959    1.3884 H         1 <0>         0.1480
     28 H8         -1.9556   -0.9730    5.5677 H         1 <0>         0.1684
     29 H9          2.4825   -1.1106    2.7072 H         1 <0>         0.4143
     30 H10         2.3990   -1.4486    4.3508 H         1 <0>         0.4081
@<TRIPOS>BOND
     1    1    2 1
     2    1   22 1
     3    1   23 1
     4    1   24 1
     5    2    3 1
     6    2    4 1
     7    2   13 1
     8    4    9 ar
     9    4    5 ar
    10    5    6 ar
    11    5   12 1
    12    6    7 ar
    13    6   25 1
    14    7    8 ar
    15    7   26 1
    16    8    9 ar
    17    8   11 1
    18    9   10 1
    19   13   14 1
    20   14   19 ar
    21   14   15 ar
    22   15   16 ar
    23   15   27 1
    24   16   17 ar
    25   16   21 1
    26   17   18 ar
    27   17   28 1
    28   18   19 ar
    29   19   20 1
    30   20   29 1
    31   20   30 1
@<TRIPOS>MOLECULE
ZINC35902488
   54    57     0     0     0
SMALL
USER_CHARGES

@<TRIPOS>ATOM
      1 C1         -0.2903    1.2647   -0.1961 C.3       1 <0>        -0.1867
      2 C2         -0.0343   -0.2363   -0.0464 C.3       1 <0>         0.1262
      3 H1         -0.9865   -0.7653   -0.0082 H         1 <0>         0.1026
      4 C3          0.7673   -0.7291   -1.2235 C.ar      1 <0>        -0.0646
      5 C4          2.1198   -0.4490   -1.3055 C.ar      1 <0>        -0.0175
      6 C5          2.8563   -0.9010   -2.3857 C.ar      1 <0>        -0.0698
      7 C6          2.2419   -1.6334   -3.3842 C.ar      1 <0>        -0.1111
      8 C7          0.8892   -1.9148   -3.3034 C.ar      1 <0>         0.1277
      9 C8          0.1523   -1.4660   -2.2188 C.ar      1 <0>        -0.0563
     10 Cl1        -1.5431   -1.8239   -2.1129 Cl        1 <0>        -0.0263
     11 F1          0.2883   -2.6302   -4.2793 F         1 <0>        -0.1091
     12 Cl2         2.8928    0.4707   -0.0524 Cl        1 <0>        -0.0323
     13 O1          0.6932   -0.4774    1.1597 O.3       1 <0>        -0.2750
     14 C9         -0.0316   -0.5997    2.3041 C.ar      1 <0>         0.0920
     15 C10        -1.3990   -0.3784    2.2956 C.ar      1 <0>        -0.0838
     16 C11        -2.1018   -0.5166    3.4970 C.ar      1 <0>         0.0161
     17 C12        -1.4088   -0.8687    4.6503 C.ar      1 <0>         0.0783
     18 N1         -0.1058   -1.0710    4.6198 N.ar      1 <0>        -0.4651
     19 C13         0.5918   -0.9554    3.5015 C.ar      1 <0>         0.4320
     20 N2          1.9653   -1.1858    3.5203 N.pl3     1 <0>        -0.8070
     21 C14        -3.5689   -0.2898    3.5406 C.2       1 <0>        -0.2043
     22 C15        -4.3889    0.0635    2.4516 C.2       1 <0>         0.0864
     23 N3         -5.6168    0.1716    2.8859 N.2       1 <0>        -0.2629
     24 N4         -5.6292   -0.1060    4.2582 N.pl3     1 <0>        -0.3633
     25 C16        -4.3677   -0.3915    4.6416 C.2       1 <0>         0.0839
     26 C17        -6.8091   -0.0940    5.1265 C.3       1 <0>         0.1502
     27 C18        -6.4149    0.4064    6.5191 C.3       1 <0>        -0.1620
     28 C19        -7.6335    0.3412    7.4423 C.3       1 <0>        -0.0016
     29 N5         -8.1082   -1.0447    7.5349 N.4       1 <0>        -0.5088
     30 C20        -8.5552   -1.5072    6.2155 C.3       1 <0>        -0.0035
     31 C21        -7.3721   -1.5132    5.2451 C.3       1 <0>        -0.1624
     32 H2          0.6620    1.7936   -0.2343 H         1 <0>         0.0877
     33 H3         -0.8452    1.4486   -1.1161 H         1 <0>         0.0940
     34 H4         -0.8700    1.6211    0.6553 H         1 <0>         0.0747
     35 H5          3.9118   -0.6813   -2.4492 H         1 <0>         0.1611
     36 H6          2.8174   -1.9857   -4.2274 H         1 <0>         0.1666
     37 H7         -1.9098   -0.1057    1.3840 H         1 <0>         0.1754
     38 H8         -1.9440   -0.9774    5.5820 H         1 <0>         0.2000
     39 H9          2.4829   -1.0988    2.7046 H         1 <0>         0.4444
     40 H10         2.4043   -1.4333    4.3491 H         1 <0>         0.4248
     41 H11        -4.0602    0.2186    1.4346 H         1 <0>         0.1959
     42 H12        -4.0478   -0.6510    5.6399 H         1 <0>         0.1825
     43 H13        -7.5671    0.5645    4.7023 H         1 <0>         0.1289
     44 H14        -5.6203   -0.2226    6.9204 H         1 <0>         0.0977
     45 H15        -6.0651    1.4364    6.4503 H         1 <0>         0.1268
     46 H16        -7.3564    0.6969    8.4347 H         1 <0>         0.1473
     47 H17        -8.4275    0.9706    7.0403 H         1 <0>         0.1409
     48 H18        -7.3577   -1.6351    7.8607 H         1 <0>         0.4289
     49 H19        -8.9585   -2.5161    6.3022 H         1 <0>         0.1461
     50 H20        -9.3295   -0.8384    5.8396 H         1 <0>         0.1403
     51 H21        -7.7064   -1.8552    4.2657 H         1 <0>         0.1256
     52 H22        -6.5973   -2.1820    5.6200 H         1 <0>         0.0961
     53 H23        -8.8779   -1.0927    8.1855 H         1 <0>         0.4414
     54 H24         0.3530   -1.3151    5.4389 H         1 <0>         0.4508
@<TRIPOS>BOND
     1    1    2 1
     2    1   32 1
     3    1   33 1
     4    1   34 1
     5    2    3 1
     6    2    4 1
     7    2   13 1
     8    4    9 ar
     9    4    5 ar
    10    5    6 ar
    11    5   12 1
    12    6    7 ar
    13    6   35 1
    14    7    8 ar
    15    7   36 1
    16    8    9 ar
    17    8   11 1
    18    9   10 1
    19   13   14 1
    20   14   19 ar
    21   14   15 ar
    22   15   16 ar
    23   15   37 1
    24   16   17 ar
    25   16   21 1
    26   17   18 ar
    27   17   38 1
    28   18   19 ar
    29   18   54 1
    30   19   20 1
    31   20   39 1
    32   20   40 1
    33   21   25 2
    34   21   22 1
    35   22   23 2
    36   22   41 1
    37   23   24 1
    38   24   25 1
    39   24   26 1
    40   25   42 1
    41   26   31 1
    42   26   27 1
    43   26   43 1
    44   27   28 1
    45   27   44 1
    46   27   45 1
    47   28   29 1
    48   28   46 1
    49   28   47 1
    50   29   30 1
    51   29   48 1
    52   29   53 1
    53   30   31 1
    54   30   49 1
    55   30   50 1
    56   31   51 1
    57   31   52 1
@<TRIPOS>MOLECULE
ZINC35902488
   53    56     0     0     0
SMALL
USER_CHARGES

@<TRIPOS>ATOM
      1 C1         -0.2903    1.2647   -0.1961 C.3       1 <0>        -0.1799
      2 C2         -0.0343   -0.2363   -0.0464 C.3       1 <0>         0.1239
      3 H1         -0.9865   -0.7653   -0.0082 H         1 <0>         0.0938
      4 C3          0.7673   -0.7291   -1.2235 C.ar      1 <0>        -0.0507
      5 C4          2.1198   -0.4490   -1.3055 C.ar      1 <0>        -0.0167
      6 C5          2.8563   -0.9010   -2.3857 C.ar      1 <0>        -0.0751
      7 C6          2.2419   -1.6334   -3.3842 C.ar      1 <0>        -0.1207
      8 C7          0.8892   -1.9148   -3.3034 C.ar      1 <0>         0.1195
      9 C8          0.1523   -1.4660   -2.2188 C.ar      1 <0>        -0.0573
     10 Cl1        -1.5431   -1.8239   -2.1129 Cl        1 <0>        -0.0307
     11 F1          0.2883   -2.6302   -4.2793 F         1 <0>        -0.1158
     12 Cl2         2.8928    0.4707   -0.0524 Cl        1 <0>        -0.0261
     13 O1          0.6932   -0.4774    1.1597 O.3       1 <0>        -0.2902
     14 C9         -0.0316   -0.5997    2.3041 C.ar      1 <0>         0.0297
     15 C10        -1.3990   -0.3784    2.2956 C.ar      1 <0>        -0.1217
     16 C11        -2.1018   -0.5166    3.4970 C.ar      1 <0>        -0.0861
     17 C12        -1.4088   -0.8687    4.6503 C.ar      1 <0>         0.1182
     18 N1         -0.1058   -1.0710    4.6198 N.ar      1 <0>        -0.5097
     19 C13         0.5918   -0.9554    3.5015 C.ar      1 <0>         0.3992
     20 N2          1.9653   -1.1858    3.5203 N.pl3     1 <0>        -0.8415
     21 C14        -3.5689   -0.2898    3.5406 C.2       1 <0>        -0.1558
     22 C15        -4.3889    0.0635    2.4516 C.2       1 <0>         0.0712
     23 N3         -5.6168    0.1716    2.8859 N.2       1 <0>        -0.2816
     24 N4         -5.6292   -0.1060    4.2582 N.pl3     1 <0>        -0.3794
     25 C16        -4.3677   -0.3915    4.6416 C.2       1 <0>         0.0496
     26 C17        -6.8091   -0.0940    5.1265 C.3       1 <0>         0.1592
     27 C18        -6.4149    0.4064    6.5191 C.3       1 <0>        -0.1634
     28 C19        -7.6335    0.3412    7.4423 C.3       1 <0>        -0.0001
     29 N5         -8.1082   -1.0447    7.5349 N.4       1 <0>        -0.5082
     30 C20        -8.5552   -1.5072    6.2155 C.3       1 <0>        -0.0018
     31 C21        -7.3721   -1.5132    5.2451 C.3       1 <0>        -0.1642
     32 H2          0.6620    1.7936   -0.2343 H         1 <0>         0.0790
     33 H3         -0.8452    1.4486   -1.1161 H         1 <0>         0.0782
     34 H4         -0.8700    1.6211    0.6553 H         1 <0>         0.0738
     35 H5          3.9118   -0.6813   -2.4492 H         1 <0>         0.1565
     36 H6          2.8174   -1.9857   -4.2274 H         1 <0>         0.1608
     37 H7         -1.9098   -0.1057    1.3840 H         1 <0>         0.1391
     38 H8         -1.9440   -0.9774    5.5820 H         1 <0>         0.1503
     39 H9          2.4829   -1.0988    2.7046 H         1 <0>         0.4140
     40 H10         2.4043   -1.4333    4.3491 H         1 <0>         0.4065
     41 H11        -4.0602    0.2186    1.4346 H         1 <0>         0.1874
     42 H12        -4.0478   -0.6510    5.6399 H         1 <0>         0.1760
     43 H13        -7.5671    0.5645    4.7023 H         1 <0>         0.1198
     44 H14        -5.6203   -0.2226    6.9204 H         1 <0>         0.0999
     45 H15        -6.0651    1.4364    6.4503 H         1 <0>         0.1251
     46 H16        -7.3564    0.6969    8.4347 H         1 <0>         0.1441
     47 H17        -8.4275    0.9706    7.0403 H         1 <0>         0.1374
     48 H18        -7.3577   -1.6351    7.8607 H         1 <0>         0.4299
     49 H19        -8.9585   -2.5161    6.3022 H         1 <0>         0.1420
     50 H20        -9.3295   -0.8384    5.8396 H         1 <0>         0.1369
     51 H21        -7.7064   -1.8552    4.2657 H         1 <0>         0.1225
     52 H22        -6.5973   -2.1820    5.6200 H         1 <0>         0.0966
     53 H23        -8.8779   -1.0927    8.1855 H         1 <0>         0.4370
@<TRIPOS>BOND
     1    1    2 1
     2    1   32 1
     3    1   33 1
     4    1   34 1
     5    2    3 1
     6    2    4 1
     7    2   13 1
     8    4    9 ar
     9    4    5 ar
    10    5    6 ar
    11    5   12 1
    12    6    7 ar
    13    6   35 1
    14    7    8 ar
    15    7   36 1
    16    8    9 ar
    17    8   11 1
    18    9   10 1
    19   13   14 1
    20   14   19 ar
    21   14   15 ar
    22   15   16 ar
    23   15   37 1
    24   16   17 ar
    25   16   21 1
    26   17   18 ar
    27   17   38 1
    28   18   19 ar
    29   19   20 1
    30   20   39 1
    31   20   40 1
    32   21   25 2
    33   21   22 1
    34   22   23 2
    35   22   41 1
    36   23   24 1
    37   24   25 1
    38   24   26 1
    39   25   42 1
    40   26   31 1
    41   26   27 1
    42   26   43 1
    43   27   28 1
    44   27   44 1
    45   27   45 1
    46   28   29 1
    47   28   46 1
    48   28   47 1
    49   29   30 1
    50   29   48 1
    51   29   53 1
    52   30   31 1
    53   30   49 1
    54   30   50 1
    55   31   51 1
    56   31   52 1
@<TRIPOS>MOLECULE
ZINC35902489
   54    57     0     0     0
SMALL
USER_CHARGES

@<TRIPOS>ATOM
      1 C1         -0.2366    1.5009   -0.1002 C.3       1 <0>        -0.1868
      2 C2          0.0023   -0.0068    0.0032 C.3       1 <0>         0.1262
      3 H1         -0.9541   -0.5203    0.1009 H         1 <0>         0.1027
      4 C3          0.8549   -0.2986    1.2111 C.ar      1 <0>        -0.0648
      5 C4          2.2095   -0.0176    1.1860 C.ar      1 <0>        -0.0174
      6 C5          2.9928   -0.2851    2.2943 C.ar      1 <0>        -0.0698
      7 C6          2.4230   -0.8330    3.4283 C.ar      1 <0>        -0.1110
      8 C7          1.0682   -1.1142    3.4552 C.ar      1 <0>         0.1278
      9 C8          0.2825   -0.8418    2.3465 C.ar      1 <0>        -0.0562
     10 Cl1        -1.4183   -1.1878    2.3810 Cl        1 <0>        -0.0259
     11 F1          0.5110   -1.6502    4.5631 F         1 <0>        -0.1090
     12 Cl2         2.9265    0.6706   -0.2374 Cl        1 <0>        -0.0327
     13 O1          0.6709   -0.4649   -1.1737 O.3       1 <0>        -0.2750
     14 C9         -0.1076   -0.7749   -2.2450 C.ar      1 <0>         0.0922
     15 C10        -1.4721   -0.5389   -2.2126 C.ar      1 <0>        -0.0840
     16 C11        -2.2312   -0.8738   -3.3386 C.ar      1 <0>         0.0162
     17 C12        -1.5947   -1.4281   -4.4440 C.ar      1 <0>         0.0781
     18 N1         -0.2926   -1.6388   -4.4381 N.ar      1 <0>        -0.4651
     19 C13         0.4590   -1.3297   -3.3941 C.ar      1 <0>         0.4321
     20 N2          1.8309   -1.5659   -3.4397 N.pl3     1 <0>        -0.8070
     21 C14        -3.6979   -0.6410   -3.3535 C.2       1 <0>        -0.2043
     22 C15        -4.4627   -0.0847   -2.3100 C.2       1 <0>         0.0864
     23 N3         -5.7097   -0.0414   -2.6987 N.2       1 <0>        -0.2628
     24 N4         -5.7898   -0.5640   -3.9951 N.pl3     1 <0>        -0.3634
     25 C16        -4.5480   -0.9216   -4.3826 C.2       1 <0>         0.0838
     26 C17        -7.0103   -0.6949   -4.7948 C.3       1 <0>         0.1502
     27 C18        -6.9271   -1.9605   -5.6529 C.3       1 <0>        -0.1621
     28 C19        -8.1684   -2.0490   -6.5433 C.3       1 <0>        -0.0015
     29 N5         -8.2355   -0.8693   -7.4141 N.4       1 <0>        -0.5088
     30 C20        -8.3877    0.3426   -6.6000 C.3       1 <0>        -0.0035
     31 C21        -7.1548    0.5231   -5.7117 C.3       1 <0>        -0.1623
     32 H2          0.7199    2.0145   -0.1979 H         1 <0>         0.0878
     33 H3         -0.8533    1.7120   -0.9739 H         1 <0>         0.0744
     34 H4         -0.7466    1.8504    0.7975 H         1 <0>         0.0940
     35 H5          4.0502   -0.0661    2.2735 H         1 <0>         0.1611
     36 H6          3.0352   -1.0420    4.2932 H         1 <0>         0.1666
     37 H7         -1.9384   -0.1073   -1.3393 H         1 <0>         0.1754
     38 H8         -2.1735   -1.6895   -5.3175 H         1 <0>         0.2000
     39 H9          2.3867   -1.3451   -2.6760 H         1 <0>         0.4445
     40 H10         2.2306   -1.9511   -4.2352 H         1 <0>         0.4249
     41 H11        -4.0846    0.2477   -1.3545 H         1 <0>         0.1959
     42 H12        -4.2766   -1.3540   -5.3343 H         1 <0>         0.1825
     43 H13        -7.8744   -0.7577   -4.1333 H         1 <0>         0.1289
     44 H14        -6.0340   -1.9194   -6.2765 H         1 <0>         0.0978
     45 H15        -6.8801   -2.8365   -5.0059 H         1 <0>         0.1266
     46 H16        -8.1124   -2.9491   -7.1555 H         1 <0>         0.1473
     47 H17        -9.0608   -2.0903   -5.9188 H         1 <0>         0.1409
     48 H18        -7.3873   -0.8043   -7.9567 H         1 <0>         0.4290
     49 H19        -8.4936    1.2082   -7.2540 H         1 <0>         0.1462
     50 H20        -9.2754    0.2503   -5.9742 H         1 <0>         0.1402
     51 H21        -7.2705    1.4224   -5.1068 H         1 <0>         0.1256
     52 H22        -6.2665    0.6158   -6.3365 H         1 <0>         0.0962
     53 H23        -9.0248   -0.9564   -8.0365 H         1 <0>         0.4414
     54 H24         0.1260   -2.0273   -5.2222 H         1 <0>         0.4508
@<TRIPOS>BOND
     1    1    2 1
     2    1   32 1
     3    1   33 1
     4    1   34 1
     5    2    3 1
     6    2    4 1
     7    2   13 1
     8    4    9 ar
     9    4    5 ar
    10    5    6 ar
    11    5   12 1
    12    6    7 ar
    13    6   35 1
    14    7    8 ar
    15    7   36 1
    16    8    9 ar
    17    8   11 1
    18    9   10 1
    19   13   14 1
    20   14   19 ar
    21   14   15 ar
    22   15   16 ar
    23   15   37 1
    24   16   17 ar
    25   16   21 1
    26   17   18 ar
    27   17   38 1
    28   18   19 ar
    29   18   54 1
    30   19   20 1
    31   20   39 1
    32   20   40 1
    33   21   25 2
    34   21   22 1
    35   22   23 2
    36   22   41 1
    37   23   24 1
    38   24   25 1
    39   24   26 1
    40   25   42 1
    41   26   31 1
    42   26   27 1
    43   26   43 1
    44   27   28 1
    45   27   44 1
    46   27   45 1
    47   28   29 1
    48   28   46 1
    49   28   47 1
    50   29   30 1
    51   29   48 1
    52   29   53 1
    53   30   31 1
    54   30   49 1
    55   30   50 1
    56   31   51 1
    57   31   52 1
@<TRIPOS>MOLECULE
ZINC35902489
   53    56     0     0     0
SMALL
USER_CHARGES

@<TRIPOS>ATOM
      1 C1         -0.2366    1.5009   -0.1002 C.3       1 <0>        -0.1800
      2 C2          0.0023   -0.0068    0.0032 C.3       1 <0>         0.1238
      3 H1         -0.9541   -0.5203    0.1009 H         1 <0>         0.0939
      4 C3          0.8549   -0.2986    1.2111 C.ar      1 <0>        -0.0507
      5 C4          2.2095   -0.0176    1.1860 C.ar      1 <0>        -0.0168
      6 C5          2.9928   -0.2851    2.2943 C.ar      1 <0>        -0.0751
      7 C6          2.4230   -0.8330    3.4283 C.ar      1 <0>        -0.1208
      8 C7          1.0682   -1.1142    3.4552 C.ar      1 <0>         0.1197
      9 C8          0.2825   -0.8418    2.3465 C.ar      1 <0>        -0.0574
     10 Cl1        -1.4183   -1.1878    2.3810 Cl        1 <0>        -0.0303
     11 F1          0.5110   -1.6502    4.5631 F         1 <0>        -0.1157
     12 Cl2         2.9265    0.6706   -0.2374 Cl        1 <0>        -0.0266
     13 O1          0.6709   -0.4649   -1.1737 O.3       1 <0>        -0.2903
     14 C9         -0.1076   -0.7749   -2.2450 C.ar      1 <0>         0.0299
     15 C10        -1.4721   -0.5389   -2.2126 C.ar      1 <0>        -0.1219
     16 C11        -2.2312   -0.8738   -3.3386 C.ar      1 <0>        -0.0860
     17 C12        -1.5947   -1.4281   -4.4440 C.ar      1 <0>         0.1181
     18 N1         -0.2926   -1.6388   -4.4381 N.ar      1 <0>        -0.5097
     19 C13         0.4590   -1.3297   -3.3941 C.ar      1 <0>         0.3993
     20 N2          1.8309   -1.5659   -3.4397 N.pl3     1 <0>        -0.8414
     21 C14        -3.6979   -0.6410   -3.3535 C.2       1 <0>        -0.1558
     22 C15        -4.4627   -0.0847   -2.3100 C.2       1 <0>         0.0711
     23 N3         -5.7097   -0.0414   -2.6987 N.2       1 <0>        -0.2815
     24 N4         -5.7898   -0.5640   -3.9951 N.pl3     1 <0>        -0.3795
     25 C16        -4.5480   -0.9216   -4.3826 C.2       1 <0>         0.0495
     26 C17        -7.0103   -0.6949   -4.7948 C.3       1 <0>         0.1592
     27 C18        -6.9271   -1.9605   -5.6529 C.3       1 <0>        -0.1636
     28 C19        -8.1684   -2.0490   -6.5433 C.3       1 <0>         0.0000
     29 N5         -8.2355   -0.8693   -7.4141 N.4       1 <0>        -0.5082
     30 C20        -8.3877    0.3426   -6.6000 C.3       1 <0>        -0.0019
     31 C21        -7.1548    0.5231   -5.7117 C.3       1 <0>        -0.1640
     32 H2          0.7199    2.0145   -0.1979 H         1 <0>         0.0791
     33 H3         -0.8533    1.7120   -0.9739 H         1 <0>         0.0735
     34 H4         -0.7466    1.8504    0.7975 H         1 <0>         0.0781
     35 H5          4.0502   -0.0661    2.2735 H         1 <0>         0.1565
     36 H6          3.0352   -1.0420    4.2932 H         1 <0>         0.1608
     37 H7         -1.9384   -0.1073   -1.3393 H         1 <0>         0.1391
     38 H8         -2.1735   -1.6895   -5.3175 H         1 <0>         0.1503
     39 H9          2.3867   -1.3451   -2.6760 H         1 <0>         0.4140
     40 H10         2.2306   -1.9511   -4.2352 H         1 <0>         0.4065
     41 H11        -4.0846    0.2477   -1.3545 H         1 <0>         0.1874
     42 H12        -4.2766   -1.3540   -5.3343 H         1 <0>         0.1760
     43 H13        -7.8744   -0.7577   -4.1333 H         1 <0>         0.1197
     44 H14        -6.0340   -1.9194   -6.2765 H         1 <0>         0.0999
     45 H15        -6.8801   -2.8365   -5.0059 H         1 <0>         0.1250
     46 H16        -8.1124   -2.9491   -7.1555 H         1 <0>         0.1440
     47 H17        -9.0608   -2.0903   -5.9188 H         1 <0>         0.1374
     48 H18        -7.3873   -0.8043   -7.9567 H         1 <0>         0.4300
     49 H19        -8.4936    1.2082   -7.2540 H         1 <0>         0.1421
     50 H20        -9.2754    0.2503   -5.9742 H         1 <0>         0.1368
     51 H21        -7.2705    1.4224   -5.1068 H         1 <0>         0.1226
     52 H22        -6.2665    0.6158   -6.3365 H         1 <0>         0.0966
     53 H23        -9.0248   -0.9564   -8.0365 H         1 <0>         0.4369
@<TRIPOS>BOND
     1    1    2 1
     2    1   32 1
     3    1   33 1
     4    1   34 1
     5    2    3 1
     6    2    4 1
     7    2   13 1
     8    4    9 ar
     9    4    5 ar
    10    5    6 ar
    11    5   12 1
    12    6    7 ar
    13    6   35 1
    14    7    8 ar
    15    7   36 1
    16    8    9 ar
    17    8   11 1
    18    9   10 1
    19   13   14 1
    20   14   19 ar
    21   14   15 ar
    22   15   16 ar
    23   15   37 1
    24   16   17 ar
    25   16   21 1
    26   17   18 ar
    27   17   38 1
    28   18   19 ar
    29   19   20 1
    30   20   39 1
    31   20   40 1
    32   21   25 2
    33   21   22 1
    34   22   23 2
    35   22   41 1
    36   23   24 1
    37   24   25 1
    38   24   26 1
    39   25   42 1
    40   26   31 1
    41   26   27 1
    42   26   43 1
    43   27   28 1
    44   27   44 1
    45   27   45 1
    46   28   29 1
    47   28   46 1
    48   28   47 1
    49   29   30 1
    50   29   48 1
    51   29   53 1
    52   30   31 1
    53   30   49 1
    54   30   50 1
    55   31   51 1
    56   31   52 1
@<TRIPOS>MOLECULE
ZINC72105034
   70    73     0     0     0
SMALL
USER_CHARGES

@<TRIPOS>ATOM
      1 C1         -3.0465   -3.1127   14.8741 C.3       1 <0>        -0.1892
      2 C2         -3.2466   -2.2549   13.6230 C.3       1 <0>        -0.0108
      3 N1         -4.1264   -2.9600   12.6814 N.4       1 <0>        -0.3829
      4 C3         -3.4647   -4.1874   12.2214 C.3       1 <0>        -0.0274
      5 C4         -4.4254   -4.9810   11.3297 C.3       1 <0>         0.1010
      6 N2         -4.8919   -4.1005   10.2474 N.pl3     1 <0>        -0.6456
      7 C5         -5.4217   -2.7770   10.6103 C.3       1 <0>         0.1015
      8 C6         -4.4140   -2.0875   11.5359 C.3       1 <0>        -0.0220
      9 C7         -4.8337   -4.5106    8.9106 C.ar      1 <0>         0.1766
     10 C8         -4.2262   -5.7148    8.5795 C.ar      1 <0>        -0.1629
     11 C9         -4.1692   -6.1195    7.2606 C.ar      1 <0>        -0.0646
     12 C10        -4.7193   -5.3226    6.2653 C.ar      1 <0>         0.1310
     13 C11        -5.3268   -4.1185    6.5964 C.ar      1 <0>        -0.1041
     14 C12        -5.3885   -3.7162    7.9158 C.ar      1 <0>        -0.1629
     15 N3         -4.6611   -5.7330    4.9274 N.pl3     1 <0>        -0.6533
     16 C13        -4.7431   -7.0808    4.6114 C.ar      1 <0>         0.4484
     17 C14        -4.5642   -7.5111    3.2990 C.ar      1 <0>        -0.3232
     18 C15        -4.6563   -8.8727    3.0342 C.ar      1 <0>         0.4562
     19 N4         -4.9104   -9.7105    4.0371 N.ar      1 <0>        -0.5358
     20 C16        -5.0737   -9.2649    5.2660 C.ar      1 <0>         0.3663
     21 N5         -4.9887   -7.9832    5.5591 N.ar      1 <0>        -0.5884
     22 N6         -4.4859   -9.3527    1.7400 N.am      1 <0>        -0.5513
     23 C17        -4.0993   -8.4367    0.6640 C.3       1 <0>         0.0633
     24 C18        -4.6764  -10.6605    1.4758 C.2       1 <0>         0.6965
     25 O1         -4.9972  -11.4206    2.3688 O.2       1 <0>        -0.4771
     26 N7         -4.5113  -11.1256    0.2217 N.am      1 <0>        -0.6806
     27 C19        -4.5933  -12.5005   -0.0317 C.ar      1 <0>         0.2488
     28 C20        -3.5635  -13.1459   -0.7035 C.ar      1 <0>        -0.1156
     29 C21        -3.6457  -14.5077   -0.9540 C.ar      1 <0>         0.1985
     30 C22        -4.7561  -15.2246   -0.5342 C.ar      1 <0>        -0.2856
     31 C23        -5.7851  -14.5810    0.1368 C.ar      1 <0>         0.1981
     32 C24        -5.7020  -13.2205    0.3937 C.ar      1 <0>        -0.0913
     33 Cl1        -6.9867  -12.4166    1.2405 Cl        1 <0>        -0.0174
     34 O2         -6.8731  -15.2849    0.5478 O.3       1 <0>        -0.2934
     35 C25        -6.8895  -16.6834    0.2548 C.3       1 <0>         0.0217
     36 O3         -2.6377  -15.1397   -1.6116 O.3       1 <0>        -0.2949
     37 C26        -2.7887  -16.5430   -1.8355 C.3       1 <0>         0.0219
     38 Cl2        -2.1738  -12.2486   -1.2302 Cl        1 <0>        -0.0383
     39 H1         -2.3937   -2.5895   15.5727 H         1 <0>         0.1068
     40 H2         -4.0114   -3.2967   15.3466 H         1 <0>         0.0809
     41 H3         -2.5919   -4.0630   14.5941 H         1 <0>         0.0805
     42 H4         -3.7012   -1.3046   13.9030 H         1 <0>         0.1310
     43 H5         -2.2817   -2.0709   13.1505 H         1 <0>         0.1281
     44 H6         -2.5717   -3.9277   11.6528 H         1 <0>         0.1321
     45 H7         -3.1838   -4.7935   13.0827 H         1 <0>         0.1410
     46 H8         -3.9058   -5.8399   10.9049 H         1 <0>         0.1268
     47 H9         -5.2773   -5.3195   11.9194 H         1 <0>         0.0863
     48 H10        -5.5608   -2.1788    9.7098 H         1 <0>         0.1256
     49 H11        -6.3742   -2.8930   11.1273 H         1 <0>         0.0858
     50 H12        -4.8326   -1.1462   11.8921 H         1 <0>         0.1394
     51 H13        -3.4923   -1.8913   10.9881 H         1 <0>         0.1318
     52 H14        -3.7980   -6.3344    9.3535 H         1 <0>         0.1245
     53 H15        -3.6964   -7.0558    7.0031 H         1 <0>         0.1406
     54 H16        -5.7546   -3.4987    5.8223 H         1 <0>         0.1287
     55 H17        -5.8648   -2.7819    8.1738 H         1 <0>         0.1249
     56 H18        -4.5634   -5.0745    4.2219 H         1 <0>         0.4207
     57 H19        -4.3595   -6.8053    2.5076 H         1 <0>         0.1461
     58 H20        -5.2787   -9.9712    6.0569 H         1 <0>         0.2006
     59 H21        -3.0123   -8.3941    0.5961 H         1 <0>         0.0784
     60 H22        -4.5087   -8.7932   -0.2812 H         1 <0>         0.0834
     61 H23        -4.4893   -7.4413    0.8765 H         1 <0>         0.0916
     62 H24        -4.3356  -10.5081   -0.5055 H         1 <0>         0.4126
     63 H25        -4.8197  -16.2847   -0.7302 H         1 <0>         0.1546
     64 H26        -7.8108  -17.1238    0.6364 H         1 <0>         0.1096
     65 H27        -6.8368  -16.8293   -0.8241 H         1 <0>         0.0610
     66 H28        -6.0336  -17.1640    0.7287 H         1 <0>         0.0609
     67 H29        -3.6841  -16.7217   -2.4308 H         1 <0>         0.0613
     68 H30        -1.9165  -16.9218   -2.3683 H         1 <0>         0.1099
     69 H31        -2.8806  -17.0558   -0.8781 H         1 <0>         0.0610
     70 H32        -4.9899   -3.1998   13.1451 H         1 <0>         0.4221
@<TRIPOS>BOND
     1    1    2 1
     2    1   39 1
     3    1   40 1
     4    1   41 1
     5    2    3 1
     6    2   42 1
     7    2   43 1
     8    3    8 1
     9    3    4 1
    10    3   70 1
    11    4    5 1
    12    4   44 1
    13    4   45 1
    14    5    6 1
    15    5   46 1
    16    5   47 1
    17    6    7 1
    18    6    9 1
    19    7    8 1
    20    7   48 1
    21    7   49 1
    22    8   50 1
    23    8   51 1
    24    9   14 ar
    25    9   10 ar
    26   10   11 ar
    27   10   52 1
    28   11   12 ar
    29   11   53 1
    30   12   13 ar
    31   12   15 1
    32   13   14 ar
    33   13   54 1
    34   14   55 1
    35   15   16 1
    36   15   56 1
    37   16   21 ar
    38   16   17 ar
    39   17   18 ar
    40   17   57 1
    41   18   19 ar
    42   18   22 1
    43   19   20 ar
    44   20   21 ar
    45   20   58 1
    46   22   23 1
    47   22   24 am
    48   23   59 1
    49   23   60 1
    50   23   61 1
    51   24   25 2
    52   24   26 am
    53   26   27 1
    54   26   62 1
    55   27   32 ar
    56   27   28 ar
    57   28   29 ar
    58   28   38 1
    59   29   30 ar
    60   29   36 1
    61   30   31 ar
    62   30   63 1
    63   31   32 ar
    64   31   34 1
    65   32   33 1
    66   34   35 1
    67   35   64 1
    68   35   65 1
    69   35   66 1
    70   36   37 1
    71   37   67 1
    72   37   68 1
    73   37   69 1
@<TRIPOS>MOLECULE
ZINC72105034
   69    72     0     0     0
SMALL
USER_CHARGES

@<TRIPOS>ATOM
      1 C1         -3.4378   -3.9375   14.6684 C.3       1 <0>        -0.1502
      2 C2         -3.5006   -3.0159   13.4488 C.3       1 <0>         0.0503
      3 N1         -4.3406   -3.6313   12.4127 N.3       1 <0>        -0.5378
      4 C3         -3.7251   -4.8621   11.8984 C.3       1 <0>         0.0363
      5 C4         -4.7086   -5.5666   10.9578 C.3       1 <0>         0.1266
      6 N2         -5.1378   -4.6085    9.9278 N.pl3     1 <0>        -0.6321
      7 C5         -5.6391   -3.2963   10.3636 C.3       1 <0>         0.1276
      8 C6         -4.6190   -2.6811   11.3275 C.3       1 <0>         0.0396
      9 C7         -5.0714   -4.9369    8.5689 C.ar      1 <0>         0.2080
     10 C8         -4.4894   -6.1336    8.1714 C.ar      1 <0>        -0.1806
     11 C9         -4.4244   -6.4578    6.8309 C.ar      1 <0>        -0.0579
     12 C10        -4.9408   -5.5873    5.8801 C.ar      1 <0>         0.0956
     13 C11        -5.5227   -4.3907    6.2776 C.ar      1 <0>        -0.0967
     14 C12        -5.5926   -4.0689    7.6185 C.ar      1 <0>        -0.1814
     15 N3         -4.8743   -5.9160    4.5202 N.pl3     1 <0>        -0.6480
     16 C13        -4.9857   -7.2392    4.1204 C.ar      1 <0>         0.4532
     17 C14        -4.7996   -7.5924    2.7862 C.ar      1 <0>        -0.3285
     18 C15        -4.9221   -8.9324    2.4366 C.ar      1 <0>         0.4515
     19 N4         -5.2108   -9.8235    3.3827 N.ar      1 <0>        -0.5423
     20 C16        -5.3796   -9.4503    4.6347 C.ar      1 <0>         0.3655
     21 N5         -5.2667   -8.1917    5.0075 N.ar      1 <0>        -0.5828
     22 N6         -4.7461   -9.3361    1.1173 N.am      1 <0>        -0.5515
     23 C17        -4.3221   -8.3659    0.1048 C.3       1 <0>         0.0649
     24 C18        -4.9656  -10.6198    0.7705 C.2       1 <0>         0.6963
     25 O1         -5.3174  -11.4249    1.6108 O.2       1 <0>        -0.4774
     26 N7         -4.7950  -11.0110   -0.5080 N.am      1 <0>        -0.6824
     27 C19        -4.9079  -12.3651   -0.8468 C.ar      1 <0>         0.2515
     28 C20        -3.8855  -12.9943   -1.5448 C.ar      1 <0>        -0.1156
     29 C21        -3.9983  -14.3355   -1.8800 C.ar      1 <0>         0.1969
     30 C22        -5.1319  -15.0480   -1.5188 C.ar      1 <0>        -0.2867
     31 C23        -6.1535  -14.4206   -0.8218 C.ar      1 <0>         0.1972
     32 C24        -6.0399  -13.0811   -0.4802 C.ar      1 <0>        -0.0912
     33 Cl1        -7.3156  -12.2980    0.3991 Cl        1 <0>        -0.0151
     34 O2         -7.2642  -15.1202   -0.4683 O.3       1 <0>        -0.2933
     35 C25        -7.3116  -16.4972   -0.8473 C.3       1 <0>         0.0224
     36 O3         -2.9975  -14.9516   -2.5633 O.3       1 <0>        -0.2955
     37 C26        -3.1804  -16.3341   -2.8753 C.3       1 <0>         0.0225
     38 Cl2        -2.4668  -12.1023   -1.9981 Cl        1 <0>        -0.0388
     39 H1         -2.8146   -3.4808   15.4373 H         1 <0>         0.0601
     40 H2         -4.4435   -4.0912   15.0599 H         1 <0>         0.0642
     41 H3         -3.0108   -4.8971   14.3771 H         1 <0>         0.0548
     42 H4         -3.9276   -2.0563   13.7401 H         1 <0>         0.0754
     43 H5         -2.4950   -2.8622   13.0574 H         1 <0>         0.0324
     44 H6         -2.8150   -4.6131   11.3528 H         1 <0>         0.0373
     45 H7         -3.4816   -5.5223   12.7308 H         1 <0>         0.0881
     46 H8         -4.2176   -6.4171   10.4850 H         1 <0>         0.0867
     47 H9         -5.5752   -5.9086   11.5236 H         1 <0>         0.0692
     48 H10        -5.7633   -2.6458    9.4978 H         1 <0>         0.0853
     49 H11        -6.5952   -3.4200   10.8723 H         1 <0>         0.0688
     50 H12        -5.0237   -1.7596   11.7460 H         1 <0>         0.0847
     51 H13        -3.6964   -2.4625   10.7899 H         1 <0>         0.0375
     52 H14        -4.0875   -6.8104    8.9108 H         1 <0>         0.1239
     53 H15        -3.9715   -7.3882    6.5217 H         1 <0>         0.1333
     54 H16        -5.9244   -3.7138    5.5381 H         1 <0>         0.1213
     55 H17        -6.0491   -3.1403    7.9278 H         1 <0>         0.1240
     56 H18        -4.7504   -5.2181    3.8580 H         1 <0>         0.4169
     57 H19        -4.5666   -6.8448    2.0425 H         1 <0>         0.1434
     58 H20        -5.6130  -10.1984    5.3779 H         1 <0>         0.1992
     59 H21        -3.2335   -8.3472    0.0528 H         1 <0>         0.0766
     60 H22        -4.7274   -8.6529   -0.8655 H         1 <0>         0.0808
     61 H23        -4.6901   -7.3757    0.3737 H         1 <0>         0.0918
     62 H24        -4.5941  -10.3546   -1.1933 H         1 <0>         0.4120
     63 H25        -5.2193  -16.0921   -1.7808 H         1 <0>         0.1535
     64 H26        -7.2478  -16.5777   -1.9325 H         1 <0>         0.0599
     65 H27        -6.4745  -17.0279   -0.3938 H         1 <0>         0.0605
     66 H28        -8.2486  -16.9363   -0.5049 H         1 <0>         0.1088
     67 H29        -3.2981  -16.9023   -1.9526 H         1 <0>         0.0606
     68 H30        -4.0718  -16.4527   -3.4913 H         1 <0>         0.0604
     69 H31        -2.3108  -16.7017   -3.4200 H         1 <0>         0.1087
@<TRIPOS>BOND
     1    1    2 1
     2    1   39 1
     3    1   40 1
     4    1   41 1
     5    2    3 1
     6    2   42 1
     7    2   43 1
     8    3    8 1
     9    3    4 1
    10    4    5 1
    11    4   44 1
    12    4   45 1
    13    5    6 1
    14    5   46 1
    15    5   47 1
    16    6    7 1
    17    6    9 1
    18    7    8 1
    19    7   48 1
    20    7   49 1
    21    8   50 1
    22    8   51 1
    23    9   14 ar
    24    9   10 ar
    25   10   11 ar
    26   10   52 1
    27   11   12 ar
    28   11   53 1
    29   12   13 ar
    30   12   15 1
    31   13   14 ar
    32   13   54 1
    33   14   55 1
    34   15   16 1
    35   15   56 1
    36   16   21 ar
    37   16   17 ar
    38   17   18 ar
    39   17   57 1
    40   18   19 ar
    41   18   22 1
    42   19   20 ar
    43   20   21 ar
    44   20   58 1
    45   22   23 1
    46   22   24 am
    47   23   59 1
    48   23   60 1
    49   23   61 1
    50   24   25 2
    51   24   26 am
    52   26   27 1
    53   26   62 1
    54   27   32 ar
    55   27   28 ar
    56   28   29 ar
    57   28   38 1
    58   29   30 ar
    59   29   36 1
    60   30   31 ar
    61   30   63 1
    62   31   32 ar
    63   31   34 1
    64   32   33 1
    65   34   35 1
    66   35   64 1
    67   35   65 1
    68   35   66 1
    69   36   37 1
    70   37   67 1
    71   37   68 1
    72   37   69 1
@<TRIPOS>MOLECULE
ZINC03938688
   39    41     0     0     0
SMALL
USER_CHARGES

@<TRIPOS>ATOM
      1 C1         -0.0095    1.3826    0.0704 C.ar      1 <0>        -0.0343
      2 C2          0.5587    1.0580   -1.1482 C.ar      1 <0>        -0.1609
      3 C3          1.7655    0.3862   -1.1955 C.ar      1 <0>         0.1753
      4 C4          2.4129    0.0342   -0.0053 C.ar      1 <0>        -0.1954
      5 C5          1.8304    0.3669    1.2233 C.ar      1 <0>         0.1741
      6 C6          0.6231    1.0388    1.2514 C.ar      1 <0>        -0.1610
      7 F1          2.4463    0.0317    2.3781 F         1 <0>        -0.1212
      8 C7          3.6999   -0.6827   -0.0456 C.2       1 <0>         0.6210
      9 O1          4.7383   -0.0615   -0.1600 O.2       1 <0>        -0.4669
     10 N1          3.7255   -2.0272    0.0446 N.am      1 <0>        -0.3962
     11 C8          4.8314   -2.8210    0.1249 C.2       1 <0>         0.5948
     12 N2          4.4249   -4.0694    0.1979 N.2       1 <0>        -0.5873
     13 C9          3.0869   -4.1118    0.1675 C.2       1 <0>         0.5191
     14 N3          2.6183   -2.8904    0.0808 N.2       1 <0>        -0.3480
     15 N4          2.3148   -5.2702    0.2247 N.pl3     1 <0>        -0.6226
     16 C10         2.9267   -6.5079    0.4407 C.ar      1 <0>         0.2365
     17 C11         4.1432   -6.5760    1.1080 C.ar      1 <0>        -0.1584
     18 C12         4.7450   -7.8008    1.3202 C.ar      1 <0>         0.0098
     19 C13         4.1379   -8.9586    0.8692 C.ar      1 <0>        -0.7033
     20 C14         2.9269   -8.8944    0.2046 C.ar      1 <0>         0.0112
     21 C15         2.3170   -7.6734   -0.0063 C.ar      1 <0>        -0.1777
     22 S1          4.9094  -10.5191    1.1415 S.o2      1 <0>         2.7034
     23 O2          4.4084  -11.3993    0.1448 O.2       1 <0>        -0.9656
     24 O3          6.2977  -10.2630    1.3036 O.2       1 <0>        -0.9650
     25 N5          4.3605  -11.0895    2.5960 N.pl3     1 <0>        -1.2510
     26 N6          6.1422   -2.3912    0.1281 N.pl3     1 <0>        -0.7911
     27 F2          2.3185    0.0697   -2.3868 F         1 <0>        -0.1201
     28 H1         -0.9506    1.9116    0.0998 H         1 <0>         0.1546
     29 H2          0.0576    1.3300   -2.0654 H         1 <0>         0.1549
     30 H3          0.1721    1.2963    2.1984 H         1 <0>         0.1546
     31 H4          1.3525   -5.2176    0.1147 H         1 <0>         0.4325
     32 H5          4.6180   -5.6722    1.4601 H         1 <0>         0.1556
     33 H6          5.6909   -7.8544    1.8385 H         1 <0>         0.1456
     34 H7          2.4556   -9.8005   -0.1466 H         1 <0>         0.1475
     35 H8          1.3691   -7.6243   -0.5215 H         1 <0>         0.1387
     36 H9          3.7284  -10.5673    3.1145 H         1 <0>         0.4165
     37 H10         4.6709  -11.9458    2.9296 H         1 <0>         0.4206
     38 H11         6.3422   -1.4439    0.0694 H         1 <0>         0.4292
     39 H12         6.8640   -3.0364    0.1890 H         1 <0>         0.4303
@<TRIPOS>BOND
     1    1    6 ar
     2    1    2 ar
     3    1   28 1
     4    2    3 ar
     5    2   29 1
     6    3    4 ar
     7    3   27 1
     8    4    5 ar
     9    4    8 1
    10    5    6 ar
    11    5    7 1
    12    6   30 1
    13    8    9 2
    14    8   10 am
    15   10   14 1
    16   10   11 1
    17   11   12 2
    18   11   26 1
    19   12   13 1
    20   13   14 2
    21   13   15 1
    22   15   16 1
    23   15   31 1
    24   16   21 ar
    25   16   17 ar
    26   17   18 ar
    27   17   32 1
    28   18   19 ar
    29   18   33 1
    30   19   20 ar
    31   19   22 1
    32   20   21 ar
    33   20   34 1
    34   21   35 1
    35   22   23 2
    36   22   24 2
    37   22   25 1
    38   25   36 1
    39   25   37 1
    40   26   38 1
    41   26   39 1
@<TRIPOS>MOLECULE
ZINC06718813
   46    49     0     0     0
SMALL
USER_CHARGES
3-[4-(3-amino-1H-indazol-4-yl)phenyl]-1-(2-fluoro-5-methyl-phenyl)urea
@<TRIPOS>ATOM
      1 C1          6.9492   -0.6708   -4.4566 C.3       1 <0>        -0.1151
      2 C2          7.3188   -0.0066   -3.1554 C.ar      1 <0>        -0.0747
      3 C3          8.6152   -0.0905   -2.6815 C.ar      1 <0>        -0.1060
      4 C4          8.9590    0.5169   -1.4879 C.ar      1 <0>        -0.1295
      5 C5          8.0061    1.2101   -0.7639 C.ar      1 <0>         0.0645
      6 C6          6.7020    1.2957   -1.2387 C.ar      1 <0>         0.1336
      7 C7          6.3607    0.6802   -2.4351 C.ar      1 <0>        -0.0953
      8 N1          5.7336    1.9963   -0.5085 N.am      1 <0>        -0.6783
      9 C8          4.4547    1.5712   -0.5040 C.2       1 <0>         0.7069
     10 O1          4.1265    0.6239   -1.1921 O.2       1 <0>        -0.5500
     11 N2          3.5395    2.1961    0.2631 N.am      1 <0>        -0.6801
     12 C9          2.2409    1.6865    0.3572 C.ar      1 <0>         0.1677
     13 C10         1.1632    2.5541    0.4899 C.ar      1 <0>        -0.1430
     14 C11        -0.1180    2.0545    0.5834 C.ar      1 <0>        -0.0892
     15 C12        -0.3326    0.6766    0.5442 C.ar      1 <0>        -0.0682
     16 C13         0.7509   -0.1919    0.4104 C.ar      1 <0>        -0.0779
     17 C14         2.0300    0.3132    0.3174 C.ar      1 <0>        -0.1142
     18 C15        -1.7083    0.1367    0.6449 C.ar      1 <0>         0.0376
     19 C16        -2.0347   -0.7648    1.6483 C.ar      1 <0>        -0.1557
     20 C17        -3.3230   -1.2675    1.7456 C.ar      1 <0>        -0.0592
     21 C18        -4.2968   -0.8911    0.8473 C.ar      1 <0>        -0.1529
     22 C19        -3.9969    0.0086   -0.1734 C.ar      1 <0>         0.1547
     23 C20        -2.6946    0.5292   -0.2801 C.ar      1 <0>        -0.1858
     24 C21        -2.7034    1.4283   -1.4324 C.2       1 <0>         0.3642
     25 N3         -3.9099    1.4169   -1.9352 N.2       1 <0>        -0.3205
     26 N4         -4.7292    0.5606   -1.1926 N.pl3     1 <0>        -0.5119
     27 H1         -5.6955    0.3797   -1.3759 H         1 <0>         0.4473
     28 N5         -1.6172    2.1667   -1.9108 N.pl3     1 <0>        -0.8360
     29 F1          8.3418    1.8036    0.4023 F         1 <0>        -0.1384
     30 H2          6.6188   -1.6912   -4.2627 H         1 <0>         0.0755
     31 H3          6.1436   -0.1125   -4.9335 H         1 <0>         0.0695
     32 H4          7.8178   -0.6890   -5.1149 H         1 <0>         0.0704
     33 H5          9.3607   -0.6319   -3.2448 H         1 <0>         0.1352
     34 H6          9.9724    0.4496   -1.1204 H         1 <0>         0.1410
     35 H7          5.3477    0.7413   -2.8045 H         1 <0>         0.1523
     36 H8          5.9835    2.7876   -0.0061 H         1 <0>         0.4118
     37 H9          3.7818    2.9993    0.7499 H         1 <0>         0.4106
     38 H10         1.3298    3.6208    0.5203 H         1 <0>         0.1310
     39 H11        -0.9554    2.7293    0.6824 H         1 <0>         0.1315
     40 H12         0.5876   -1.2590    0.3794 H         1 <0>         0.1314
     41 H13         2.8692   -0.3587    0.2138 H         1 <0>         0.1391
     42 H14        -1.2822   -1.0738    2.3586 H         1 <0>         0.1292
     43 H15        -3.5651   -1.9655    2.5334 H         1 <0>         0.1325
     44 H16        -5.2951   -1.2940    0.9345 H         1 <0>         0.1278
     45 H17        -0.7342    2.0309   -1.5329 H         1 <0>         0.4118
     46 H18        -1.7465    2.8151   -2.6206 H         1 <0>         0.4050
@<TRIPOS>BOND
     1    1    2 1
     2    1   30 1
     3    1   31 1
     4    1   32 1
     5    2    7 ar
     6    2    3 ar
     7    3    4 ar
     8    3   33 1
     9    4    5 ar
    10    4   34 1
    11    5    6 ar
    12    5   29 1
    13    6    7 ar
    14    6    8 1
    15    7   35 1
    16    8    9 am
    17    8   36 1
    18    9   10 2
    19    9   11 am
    20   11   12 1
    21   11   37 1
    22   12   17 ar
    23   12   13 ar
    24   13   14 ar
    25   13   38 1
    26   14   15 ar
    27   14   39 1
    28   15   16 ar
    29   15   18 1
    30   16   17 ar
    31   16   40 1
    32   17   41 1
    33   18   23 ar
    34   18   19 ar
    35   19   20 ar
    36   19   42 1
    37   20   21 ar
    38   20   43 1
    39   21   22 ar
    40   21   44 1
    41   22   26 1
    42   22   23 ar
    43   23   24 1
    44   24   25 2
    45   24   28 1
    46   25   26 1
    47   26   27 1
    48   28   45 1
    49   28   46 1
@<TRIPOS>MOLECULE
ZINC03834198
   55    58     0     0     0
SMALL
USER_CHARGES

@<TRIPOS>ATOM
      1 C1          2.2102    1.3214   -1.5438 C.3       1 <0>        -0.0473
      2 N1          2.0302   -0.1310   -1.4177 N.4       1 <0>        -0.3861
      3 C2          2.8485   -0.8135   -2.4272 C.3       1 <0>        -0.0039
      4 C3          2.6029   -2.3220   -2.3537 C.3       1 <0>        -0.1426
      5 C4          2.9828   -2.8281   -0.9591 C.3       1 <0>        -0.0980
      6 C5          2.1768   -2.0570    0.0901 C.3       1 <0>        -0.1436
      7 C6          2.4382   -0.5583   -0.0740 C.3       1 <0>        -0.0065
      8 C7          2.6653   -4.3210   -0.8526 C.3       1 <0>         0.0553
      9 O1          3.1265   -4.8175    0.4056 O.3       1 <0>        -0.2959
     10 C8          2.9210   -6.1358    0.6612 C.ar      1 <0>         0.1621
     11 C9          2.2972   -6.9233   -0.2811 C.ar      1 <0>        -0.1791
     12 C10         2.0867   -8.2816   -0.0149 C.ar      1 <0>         0.2018
     13 C11         2.5192   -8.8246    1.2204 C.ar      1 <0>        -0.1784
     14 C12         3.1508   -8.0026    2.1612 C.ar      1 <0>        -0.1424
     15 C13         3.3512   -6.6812    1.8787 C.ar      1 <0>         0.1099
     16 O2          3.9702   -5.8850    2.7909 O.3       1 <0>        -0.3030
     17 C14         4.3854   -6.4992    4.0125 C.3       1 <0>         0.0198
     18 C15         2.2930  -10.2009    1.4605 C.ar      1 <0>         0.4667
     19 N2          1.6881  -10.9114    0.5174 N.ar      1 <0>        -0.5768
     20 C16         1.3012  -10.3606   -0.6222 C.ar      1 <0>         0.3478
     21 N3          1.4842   -9.0917   -0.8996 N.ar      1 <0>        -0.5414
     22 N4          2.6915  -10.7885    2.6441 N.pl3     1 <0>        -0.6296
     23 C17         2.5831  -12.1741    2.8088 C.ar      1 <0>         0.1376
     24 C18         2.4560  -12.9987    1.6992 C.ar      1 <0>        -0.1039
     25 C19         2.3491  -14.3660    1.8644 C.ar      1 <0>        -0.0732
     26 C20         2.3685  -14.9152    3.1341 C.ar      1 <0>        -0.0857
     27 C21         2.4949  -14.0974    4.2430 C.ar      1 <0>        -0.1007
     28 C22         2.6081  -12.7284    4.0841 C.ar      1 <0>         0.0686
     29 F1          2.7372  -11.9301    5.1664 F         1 <0>        -0.1332
     30 Br1         2.2212  -16.7875    3.3546 Br        1 <0>        -0.0295
     31 H1          3.2589    1.5727   -1.3848 H         1 <0>         0.1219
     32 H2          1.9075    1.6398   -2.5414 H         1 <0>         0.1242
     33 H3          1.5979    1.8295   -0.7989 H         1 <0>         0.1242
     34 H4          2.5792   -0.4499   -3.4189 H         1 <0>         0.1343
     35 H5          3.9024   -0.6078   -2.2397 H         1 <0>         0.1306
     36 H6          1.5493   -2.5288   -2.5414 H         1 <0>         0.0934
     37 H7          3.2127   -2.8271   -3.1028 H         1 <0>         0.1176
     38 H8          4.0478   -2.6678   -0.7908 H         1 <0>         0.1030
     39 H9          1.1143   -2.2583   -0.0469 H         1 <0>         0.0893
     40 H10         2.4820   -2.3726    1.0878 H         1 <0>         0.1210
     41 H11         3.5008   -0.3580    0.0634 H         1 <0>         0.1299
     42 H12         1.8660   -0.0063    0.6716 H         1 <0>         0.1325
     43 H13         1.5883   -4.4698   -0.9292 H         1 <0>         0.0742
     44 H14         3.1645   -4.8571   -1.6597 H         1 <0>         0.0787
     45 H15         1.9724   -6.4960   -1.2182 H         1 <0>         0.1540
     46 H16         3.4818   -8.4122    3.1042 H         1 <0>         0.1414
     47 H17         4.8638   -5.7549    4.6491 H         1 <0>         0.1093
     48 H18         3.5165   -6.9116    4.5254 H         1 <0>         0.0597
     49 H19         5.0925   -7.2996    3.7947 H         1 <0>         0.0600
     50 H20         0.8133  -10.9840   -1.3569 H         1 <0>         0.2036
     51 H21         3.0467  -10.2411    3.3618 H         1 <0>         0.4241
     52 H22         2.4404  -12.5714    0.7074 H         1 <0>         0.1818
     53 H23         2.2499  -15.0072    1.0010 H         1 <0>         0.1463
     54 H24         2.5094  -14.5289    5.2329 H         1 <0>         0.1515
     55 H25         1.0589   -0.3624   -1.5626 H         1 <0>         0.4246
@<TRIPOS>BOND
     1    1    2 1
     2    1   31 1
     3    1   32 1
     4    1   33 1
     5    2    7 1
     6    2    3 1
     7    2   55 1
     8    3    4 1
     9    3   34 1
    10    3   35 1
    11    4    5 1
    12    4   36 1
    13    4   37 1
    14    5    6 1
    15    5    8 1
    16    5   38 1
    17    6    7 1
    18    6   39 1
    19    6   40 1
    20    7   41 1
    21    7   42 1
    22    8    9 1
    23    8   43 1
    24    8   44 1
    25    9   10 1
    26   10   15 ar
    27   10   11 ar
    28   11   12 ar
    29   11   45 1
    30   12   21 ar
    31   12   13 ar
    32   13   14 ar
    33   13   18 ar
    34   14   15 ar
    35   14   46 1
    36   15   16 1
    37   16   17 1
    38   17   47 1
    39   17   48 1
    40   17   49 1
    41   18   19 ar
    42   18   22 1
    43   19   20 ar
    44   20   21 ar
    45   20   50 1
    46   22   23 1
    47   22   51 1
    48   23   28 ar
    49   23   24 ar
    50   24   25 ar
    51   24   52 1
    52   25   26 ar
    53   25   53 1
    54   26   27 ar
    55   26   30 1
    56   27   28 ar
    57   27   54 1
    58   28   29 1
@<TRIPOS>MOLECULE
ZINC29043709
   56    60     0     0     0
SMALL
USER_CHARGES
N-[[3-fluoro-4-[2-(1-methylimidazol-4-yl)thieno[3,2-b]pyridin-7-yl]oxy-phenyl]carbamothioyl]-2-phenyl-acetamide
@<TRIPOS>ATOM
      1 C1          9.9237    8.8754    1.2736 C.3       1 <0>         0.0654
      2 N1          9.1172    8.2837    0.2033 N.pl3     1 <0>        -0.4586
      3 C2          7.9852    7.5358    0.3637 C.2       1 <0>        -0.0159
      4 C3          7.5659    7.1897   -0.8842 C.2       1 <0>         0.0622
      5 N2          8.4288    7.7306   -1.7703 N.2       1 <0>        -0.4694
      6 C4          9.3534    8.3827   -1.1237 C.2       1 <0>         0.1960
      7 C5          6.3768    6.3740   -1.2104 C.2       1 <0>        -0.0130
      8 C6          5.9124    6.0053   -2.4321 C.2       1 <0>        -0.1334
      9 C7          4.7504    5.2176   -2.5344 C.ar      1 <0>         0.1640
     10 C8          4.1482    4.8680   -1.3061 C.ar      1 <0>        -0.2080
     11 S1          5.1978    5.6305   -0.0960 S.3       1 <0>         0.1009
     12 C9          3.0013    4.0983   -1.2487 C.ar      1 <0>         0.2114
     13 C10         2.4461    3.6631   -2.4511 C.ar      1 <0>        -0.2359
     14 C11         3.0638    4.0331   -3.6335 C.ar      1 <0>         0.1598
     15 N3          4.1503    4.7630   -3.6585 N.ar      1 <0>        -0.4769
     16 O1          2.4366    3.7715   -0.0582 O.3       1 <0>        -0.2391
     17 C12         1.2636    3.0834   -0.0755 C.ar      1 <0>         0.0475
     18 C13         0.0617    3.7581    0.0787 C.ar      1 <0>        -0.0838
     19 C14        -1.1300    3.0603    0.0613 C.ar      1 <0>        -0.1161
     20 C15        -1.1262    1.6829   -0.1163 C.ar      1 <0>         0.1624
     21 C16         0.0768    1.0057   -0.2645 C.ar      1 <0>        -0.0990
     22 C17         1.2695    1.7048   -0.2470 C.ar      1 <0>         0.1039
     23 F1          2.4403    1.0475   -0.3972 F         1 <0>        -0.1194
     24 N4         -2.3352    0.9765   -0.1397 N.pl3     1 <0>        -0.6369
     25 C18        -2.5462    0.0328   -1.0785 C.2       1 <0>         0.5179
     26 S2         -1.2984   -0.3758   -2.1772 S.2       1 <0>        -0.4941
     27 N5         -3.7396   -0.5893   -1.1525 N.am      1 <0>        -0.6551
     28 C19        -3.9506   -1.5330   -2.0913 C.2       1 <0>         0.4850
     29 O2         -3.0668   -1.8223   -2.8694 O.2       1 <0>        -0.3930
     30 C20        -5.2849   -2.2285   -2.1740 C.3       1 <0>        -0.0947
     31 C21        -5.2602   -3.2305   -3.2994 C.ar      1 <0>        -0.0790
     32 C22        -5.6456   -2.8507   -4.5715 C.ar      1 <0>        -0.1020
     33 C23        -5.6183   -3.7686   -5.6048 C.ar      1 <0>        -0.1180
     34 C24        -5.2152   -5.0687   -5.3639 C.ar      1 <0>        -0.1137
     35 C25        -4.8353   -5.4499   -4.0907 C.ar      1 <0>        -0.1182
     36 C26        -4.8575   -4.5307   -3.0584 C.ar      1 <0>        -0.1021
     37 H1          9.4818    8.6219    2.2485 H         1 <0>         0.0933
     38 H2          9.9460    9.9687    1.1542 H         1 <0>         0.0879
     39 H3         10.9488    8.4799    1.2217 H         1 <0>         0.0881
     40 H4          7.5157    7.2688    1.2990 H         1 <0>         0.1824
     41 H5         10.1764    8.9164   -1.5757 H         1 <0>         0.2138
     42 H6          6.4343    6.3166   -3.3249 H         1 <0>         0.1544
     43 H7          1.5531    3.0558   -2.4601 H         1 <0>         0.1490
     44 H8          2.6365    3.7037   -4.5691 H         1 <0>         0.1672
     45 H9          0.0577    4.8298    0.2120 H         1 <0>         0.1504
     46 H10        -2.0654    3.5865    0.1814 H         1 <0>         0.1437
     47 H11         0.0806   -0.0661   -0.3977 H         1 <0>         0.1674
     48 H12        -3.1126    1.1919    0.6081 H         1 <0>         0.4366
     49 H13        -4.5414   -0.3268   -0.4467 H         1 <0>         0.4365
     50 H14        -5.4873   -2.7474   -1.2254 H         1 <0>         0.1091
     51 H15        -6.0745   -1.4859   -2.3615 H         1 <0>         0.1093
     52 H16        -5.9644   -1.8360   -4.7588 H         1 <0>         0.1199
     53 H17        -5.9156   -3.4709   -6.5995 H         1 <0>         0.1236
     54 H18        -5.1975   -5.7868   -6.1704 H         1 <0>         0.1230
     55 H19        -4.5207   -6.4658   -3.9024 H         1 <0>         0.1235
     56 H20        -4.5607   -4.8286   -2.0637 H         1 <0>         0.1197
@<TRIPOS>BOND
     1    1    2 1
     2    1   37 1
     3    1   38 1
     4    1   39 1
     5    2    6 1
     6    2    3 1
     7    3    4 2
     8    3   40 1
     9    4    5 1
    10    4    7 1
    11    5    6 2
    12    6   41 1
    13    7   11 1
    14    7    8 2
    15    8    9 1
    16    8   42 1
    17    9   15 ar
    18    9   10 ar
    19   10   11 1
    20   10   12 ar
    21   12   13 ar
    22   12   16 1
    23   13   14 ar
    24   13   43 1
    25   14   15 ar
    26   14   44 1
    27   16   17 1
    28   17   22 ar
    29   17   18 ar
    30   18   19 ar
    31   18   45 1
    32   19   20 ar
    33   19   46 1
    34   20   21 ar
    35   20   24 1
    36   21   22 ar
    37   21   47 1
    38   22   23 1
    39   24   25 1
    40   24   48 1
    41   25   26 2
    42   25   27 1
    43   27   28 am
    44   27   49 1
    45   28   29 2
    46   28   30 1
    47   30   31 1
    48   30   50 1
    49   30   51 1
    50   31   36 ar
    51   31   32 ar
    52   32   33 ar
    53   32   52 1
    54   33   34 ar
    55   33   53 1
    56   34   35 ar
    57   34   54 1
    58   35   36 ar
    59   35   55 1
    60   36   56 1
@<TRIPOS>MOLECULE
ZINC29043709
   57    61     0     0     0
SMALL
USER_CHARGES
N-[[3-fluoro-4-[2-(1-methylimidazol-4-yl)thieno[3,2-b]pyridin-7-yl]oxy-phenyl]carbamothioyl]-2-phenyl-acetamide
@<TRIPOS>ATOM
      1 C1          9.9237    8.8754    1.2736 C.3       1 <0>         0.0497
      2 N1          9.1172    8.2837    0.2033 N.pl3     1 <0>        -0.4075
      3 C2          7.9852    7.5358    0.3637 C.2       1 <0>         0.0437
      4 C3          7.5659    7.1897   -0.8842 C.2       1 <0>         0.1153
      5 N2          8.4288    7.7306   -1.7703 N.pl3     1 <0>        -0.4898
      6 C4          9.3534    8.3827   -1.1237 C.cat     1 <0>         0.3111
      7 C5          6.3768    6.3740   -1.2104 C.2       1 <0>        -0.1170
      8 C6          5.9124    6.0053   -2.4321 C.2       1 <0>        -0.0852
      9 C7          4.7504    5.2176   -2.5344 C.ar      1 <0>         0.1378
     10 C8          4.1482    4.8680   -1.3061 C.ar      1 <0>        -0.1937
     11 S1          5.1978    5.6305   -0.0960 S.3       1 <0>         0.1668
     12 C9          3.0013    4.0983   -1.2487 C.ar      1 <0>         0.2102
     13 C10         2.4461    3.6631   -2.4511 C.ar      1 <0>        -0.2104
     14 C11         3.0638    4.0331   -3.6335 C.ar      1 <0>         0.1679
     15 N3          4.1503    4.7630   -3.6585 N.ar      1 <0>        -0.4687
     16 O1          2.4366    3.7715   -0.0582 O.3       1 <0>        -0.2350
     17 C12         1.2636    3.0834   -0.0755 C.ar      1 <0>         0.0337
     18 C13         0.0617    3.7581    0.0787 C.ar      1 <0>        -0.0806
     19 C14        -1.1300    3.0603    0.0613 C.ar      1 <0>        -0.1161
     20 C15        -1.1262    1.6829   -0.1163 C.ar      1 <0>         0.1732
     21 C16         0.0768    1.0057   -0.2645 C.ar      1 <0>        -0.0987
     22 C17         1.2695    1.7048   -0.2470 C.ar      1 <0>         0.1055
     23 F1          2.4403    1.0475   -0.3972 F         1 <0>        -0.1202
     24 N4         -2.3352    0.9765   -0.1397 N.pl3     1 <0>        -0.6402
     25 C18        -2.5462    0.0328   -1.0785 C.2       1 <0>         0.5197
     26 S2         -1.2984   -0.3758   -2.1772 S.2       1 <0>        -0.4956
     27 N5         -3.7396   -0.5893   -1.1525 N.am      1 <0>        -0.6538
     28 C19        -3.9506   -1.5330   -2.0913 C.2       1 <0>         0.4855
     29 O2         -3.0668   -1.8223   -2.8694 O.2       1 <0>        -0.3921
     30 C20        -5.2849   -2.2285   -2.1740 C.3       1 <0>        -0.0943
     31 C21        -5.2602   -3.2305   -3.2994 C.ar      1 <0>        -0.0809
     32 C22        -5.6456   -2.8507   -4.5715 C.ar      1 <0>        -0.1022
     33 C23        -5.6183   -3.7686   -5.6048 C.ar      1 <0>        -0.1178
     34 C24        -5.2152   -5.0687   -5.3639 C.ar      1 <0>        -0.1125
     35 C25        -4.8353   -5.4499   -4.0907 C.ar      1 <0>        -0.1177
     36 C26        -4.8575   -4.5307   -3.0584 C.ar      1 <0>        -0.1020
     37 H1          9.4818    8.6219    2.2485 H         1 <0>         0.1224
     38 H2          9.9460    9.9687    1.1542 H         1 <0>         0.1164
     39 H3         10.9488    8.4799    1.2217 H         1 <0>         0.1166
     40 H4          7.5157    7.2688    1.2990 H         1 <0>         0.2243
     41 H5         10.1764    8.9164   -1.5757 H         1 <0>         0.2651
     42 H6          6.4343    6.3166   -3.3249 H         1 <0>         0.1493
     43 H7          1.5531    3.0558   -2.4601 H         1 <0>         0.1586
     44 H8          2.6365    3.7037   -4.5691 H         1 <0>         0.1768
     45 H9          0.0577    4.8298    0.2120 H         1 <0>         0.1506
     46 H10        -2.0654    3.5865    0.1814 H         1 <0>         0.1467
     47 H11         0.0806   -0.0661   -0.3977 H         1 <0>         0.1701
     48 H12        -3.1126    1.1919    0.6081 H         1 <0>         0.4393
     49 H13        -4.5414   -0.3268   -0.4467 H         1 <0>         0.4386
     50 H14        -5.4873   -2.7474   -1.2254 H         1 <0>         0.1102
     51 H15        -6.0745   -1.4859   -2.3615 H         1 <0>         0.1102
     52 H16        -5.9644   -1.8360   -4.7588 H         1 <0>         0.1196
     53 H17        -5.9156   -3.4709   -6.5995 H         1 <0>         0.1241
     54 H18        -5.1975   -5.7868   -6.1704 H         1 <0>         0.1238
     55 H19        -4.5207   -6.4658   -3.9024 H         1 <0>         0.1242
     56 H20        -4.5607   -4.8286   -2.0637 H         1 <0>         0.1197
     57 H21         8.2765    7.5790   -2.8491 H         1 <0>         0.5055
@<TRIPOS>BOND
     1    1    2 1
     2    1   37 1
     3    1   38 1
     4    1   39 1
     5    2    6 1
     6    2    3 1
     7    3    4 2
     8    3   40 1
     9    4    5 1
    10    4    7 1
    11    5    6 2
    12    5   57 1
    13    6   41 1
    14    7   11 1
    15    7    8 2
    16    8    9 1
    17    8   42 1
    18    9   15 ar
    19    9   10 ar
    20   10   11 1
    21   10   12 ar
    22   12   13 ar
    23   12   16 1
    24   13   14 ar
    25   13   43 1
    26   14   15 ar
    27   14   44 1
    28   16   17 1
    29   17   22 ar
    30   17   18 ar
    31   18   19 ar
    32   18   45 1
    33   19   20 ar
    34   19   46 1
    35   20   21 ar
    36   20   24 1
    37   21   22 ar
    38   21   47 1
    39   22   23 1
    40   24   25 1
    41   24   48 1
    42   25   26 2
    43   25   27 1
    44   27   28 am
    45   27   49 1
    46   28   29 2
    47   28   30 1
    48   30   31 1
    49   30   50 1
    50   30   51 1
    51   31   36 ar
    52   31   32 ar
    53   32   33 ar
    54   32   52 1
    55   33   34 ar
    56   33   53 1
    57   34   35 ar
    58   34   54 1
    59   35   36 ar
    60   35   55 1
    61   36   56 1
@<TRIPOS>MOLECULE
ZINC16052811
   69    73     0     0     0
SMALL
USER_CHARGES

@<TRIPOS>ATOM
      1 C1         -1.3854    0.6670   -0.0767 C.3       1 <0>        -0.0957
      2 C2         -0.4323   -0.5002   -0.0648 C.2       1 <0>        -0.0506
      3 C3          0.2343   -1.0297   -1.1521 C.2       1 <0>        -0.0231
      4 N1          1.0038   -2.0851   -0.7079 N.pl3     1 <0>        -0.4953
      5 H1          1.5753   -2.6368   -1.2646 H         1 <0>         0.4239
      6 C4          0.8368   -2.2279    0.6175 C.2       1 <0>         0.1153
      7 C5         -0.0448   -1.2585    1.0606 C.2       1 <0>        -0.2237
      8 C6         -0.4974   -1.0570    2.4490 C.2       1 <0>         0.5982
      9 O1         -1.4888   -1.6326    2.8550 O.2       1 <0>        -0.5334
     10 N2          0.1874   -0.2348    3.2685 N.am      1 <0>        -0.6074
     11 C7          1.3854    0.4757    2.7960 C.3       1 <0>         0.1160
     12 C8          1.2315    1.9637    3.1283 C.3       1 <0>         0.0400
     13 N3          0.9441    2.1151    4.5609 N.3       1 <0>        -0.5431
     14 C9         -0.3331    1.4833    4.9178 C.3       1 <0>         0.0404
     15 C10        -0.2469   -0.0196    4.6571 C.3       1 <0>         0.1151
     16 C11         0.9595    3.5304    4.9542 C.3       1 <0>         0.0247
     17 C12         1.5039   -3.2684    1.4796 C.3       1 <0>        -0.0994
     18 C13         0.1439   -0.5716   -2.4846 C.2       1 <0>         0.0901
     19 C14         0.2532   -1.4658   -3.5309 C.2       1 <0>        -0.2083
     20 C15         0.3360   -1.1553   -4.9755 C.ar      1 <0>        -0.1117
     21 C16         0.3319    0.0339   -5.6972 C.ar      1 <0>         0.0376
     22 C17         0.4254   -0.0007   -7.0737 C.ar      1 <0>        -0.6977
     23 C18         0.5224   -1.2150   -7.7330 C.ar      1 <0>         0.0132
     24 C19         0.5268   -2.4004   -7.0263 C.ar      1 <0>        -0.1530
     25 C20         0.4344   -2.3860   -5.6388 C.ar      1 <0>         0.1981
     26 N4          0.4170   -3.4120   -4.7020 N.am      1 <0>        -0.6497
     27 C21         0.3187   -2.9314   -3.4509 C.2       1 <0>         0.5589
     28 O2          0.2868   -3.5947   -2.4297 O.2       1 <0>        -0.5027
     29 S1          0.4208    1.5020   -7.9939 S.o2      1 <0>         2.6866
     30 O3         -0.0301    1.1761   -9.3014 O.2       1 <0>        -0.9426
     31 O4         -0.2285    2.4722   -7.1838 O.2       1 <0>        -0.9399
     32 N5          1.9965    1.9888   -8.1442 N.pl3     1 <0>        -0.9503
     33 C22         2.7673    1.6183   -9.3337 C.3       1 <0>         0.0873
     34 C23         2.5905    2.7527   -7.1370 C.ar      1 <0>         0.1435
     35 C24         3.6993    2.2655   -6.4561 C.ar      1 <0>        -0.1129
     36 C25         4.2850    3.0229   -5.4610 C.ar      1 <0>        -0.0974
     37 C26         3.7691    4.2655   -5.1412 C.ar      1 <0>        -0.1057
     38 C27         2.6650    4.7543   -5.8171 C.ar      1 <0>        -0.0228
     39 C28         2.0777    4.0032   -6.8181 C.ar      1 <0>        -0.0987
     40 Cl1         2.0205    6.3145   -5.4118 Cl        1 <0>        -0.0584
     41 H2         -0.8300    1.5912    0.0831 H         1 <0>         0.0744
     42 H3         -1.8943    0.7109   -1.0396 H         1 <0>         0.0716
     43 H4         -2.1213    0.5434    0.7179 H         1 <0>         0.0707
     44 H5          2.2682    0.0781    3.2967 H         1 <0>         0.0757
     45 H6          1.4845    0.3496    1.7179 H         1 <0>         0.0918
     46 H7          2.1557    2.4881    2.8853 H         1 <0>         0.0877
     47 H8          0.4109    2.3833    2.5463 H         1 <0>         0.0402
     48 H9         -0.5437    1.6593    5.9727 H         1 <0>         0.0893
     49 H10        -1.1319    1.9097    4.3110 H         1 <0>         0.0393
     50 H11        -1.2265   -0.4731    4.8089 H         1 <0>         0.0971
     51 H12         0.4760   -0.4657    5.3402 H         1 <0>         0.0765
     52 H13         0.2036    4.0734    4.3868 H         1 <0>         0.0266
     53 H14         0.7438    3.6138    6.0194 H         1 <0>         0.0707
     54 H15         1.9424    3.9541    4.7482 H         1 <0>         0.0708
     55 H16         2.4491   -2.8769    1.8558 H         1 <0>         0.0828
     56 H17         0.8537   -3.5164    2.3186 H         1 <0>         0.0876
     57 H18         1.6916   -4.1645    0.8881 H         1 <0>         0.0764
     58 H19        -0.0106    0.4782   -2.6854 H         1 <0>         0.1582
     59 H20         0.2556    0.9803   -5.1825 H         1 <0>         0.1456
     60 H21         0.5948   -1.2344   -8.8104 H         1 <0>         0.1495
     61 H22         0.6025   -3.3409   -7.5518 H         1 <0>         0.1409
     62 H23         0.4731   -4.3549   -4.9227 H         1 <0>         0.4223
     63 H24         2.6480    2.3865  -10.0978 H         1 <0>         0.0705
     64 H25         3.8212    1.5285   -9.0702 H         1 <0>         0.0805
     65 H26         2.4063    0.6644   -9.7180 H         1 <0>         0.0815
     66 H27         4.1025    1.2949   -6.7045 H         1 <0>         0.1343
     67 H28         5.1468    2.6443   -4.9317 H         1 <0>         0.1385
     68 H29         4.2288    4.8555   -4.3621 H         1 <0>         0.1384
     69 H30         1.2187    4.3867   -7.3487 H         1 <0>         0.1454
@<TRIPOS>BOND
     1    1    2 1
     2    1   41 1
     3    1   42 1
     4    1   43 1
     5    2    7 1
     6    2    3 2
     7    3    4 1
     8    3   18 1
     9    4    5 1
    10    4    6 1
    11    6    7 2
    12    6   17 1
    13    7    8 1
    14    8    9 2
    15    8   10 am
    16   10   15 1
    17   10   11 1
    18   11   12 1
    19   11   44 1
    20   11   45 1
    21   12   13 1
    22   12   46 1
    23   12   47 1
    24   13   14 1
    25   13   16 1
    26   14   15 1
    27   14   48 1
    28   14   49 1
    29   15   50 1
    30   15   51 1
    31   16   52 1
    32   16   53 1
    33   16   54 1
    34   17   55 1
    35   17   56 1
    36   17   57 1
    37   18   19 2
    38   18   58 1
    39   19   27 1
    40   19   20 1
    41   20   25 ar
    42   20   21 ar
    43   21   22 ar
    44   21   59 1
    45   22   23 ar
    46   22   29 1
    47   23   24 ar
    48   23   60 1
    49   24   25 ar
    50   24   61 1
    51   25   26 1
    52   26   27 am
    53   26   62 1
    54   27   28 2
    55   29   30 2
    56   29   31 2
    57   29   32 1
    58   32   33 1
    59   32   34 1
    60   33   63 1
    61   33   64 1
    62   33   65 1
    63   34   39 ar
    64   34   35 ar
    65   35   36 ar
    66   35   66 1
    67   36   37 ar
    68   36   67 1
    69   37   38 ar
    70   37   68 1
    71   38   39 ar
    72   38   40 1
    73   39   69 1
@<TRIPOS>MOLECULE
ZINC03870413
   51    54     0     0     0
SMALL
USER_CHARGES

@<TRIPOS>ATOM
      1 C1         -0.0167    1.3824    0.0096 C.ar      1 <0>        -0.1111
      2 C2          1.1697    2.0917    0.0021 C.ar      1 <0>        -0.0659
      3 C3          2.3792    1.4226   -0.0135 C.ar      1 <0>        -0.1117
      4 C4          2.4066    0.0362   -0.0217 C.ar      1 <0>         0.0966
      5 C5          1.2160   -0.6806   -0.0137 C.ar      1 <0>         0.0646
      6 C6          0.0021   -0.0041    0.0020 C.ar      1 <0>         0.0987
      7 O1         -1.1658   -0.7009    0.0099 O.3       1 <0>        -0.4881
      8 O2          1.2387   -2.0413   -0.0217 O.3       1 <0>        -0.4793
      9 O3          3.5971   -0.6212   -0.0380 O.3       1 <0>        -0.4822
     10 C7          1.1446    3.5984    0.0105 C.3       1 <0>         0.1443
     11 H1          0.1709    3.9512   -0.3294 H         1 <0>         0.1023
     12 C8          1.4132    4.1118    1.4309 C.3       1 <0>         0.0650
     13 H2          2.4232    3.8377    1.7358 H         1 <0>         0.1042
     14 C9          1.2714    5.6359    1.4258 C.3       1 <0>        -0.0873
     15 C10         2.0504    6.2145    0.2717 C.ar      1 <0>        -0.1901
     16 C11         2.3697    7.5676    0.2931 C.ar      1 <0>         0.1636
     17 C12         3.0805    8.1340   -0.7521 C.ar      1 <0>        -0.1961
     18 C13         3.4754    7.3482   -1.8246 C.ar      1 <0>         0.1601
     19 C14         3.1596    5.9999   -1.8458 C.ar      1 <0>        -0.1780
     20 C15         2.4473    5.4295   -0.7959 C.ar      1 <0>         0.1584
     21 O4          2.1661    4.1013   -0.8516 O.3       1 <0>        -0.2897
     22 O5          4.1708    7.9004   -2.8533 O.3       1 <0>        -0.4911
     23 O6          1.9825    8.3377    1.3437 O.3       1 <0>        -0.4901
     24 O7          0.4655    3.5421    2.3362 O.3       1 <0>        -0.3276
     25 C16         0.8706    3.3540    3.6075 C.2       1 <0>         0.5158
     26 O8          1.9976    3.6651    3.9384 O.2       1 <0>        -0.4919
     27 C17        -0.0539    2.7705    4.5973 C.ar      1 <0>        -0.1046
     28 C18        -1.3486    2.4069    4.2168 C.ar      1 <0>        -0.0781
     29 C19        -2.2130    1.8604    5.1465 C.ar      1 <0>         0.0876
     30 C20        -1.7950    1.6722    6.4614 C.ar      1 <0>         0.0963
     31 C21        -0.5058    2.0340    6.8434 C.ar      1 <0>         0.0877
     32 C22         0.3649    2.5748    5.9163 C.ar      1 <0>        -0.0735
     33 O9         -0.1010    1.8493    8.1286 O.3       1 <0>        -0.4775
     34 O10        -2.6470    1.1351    7.3735 O.3       1 <0>        -0.4722
     35 O11        -3.4730    1.5063    4.7768 O.3       1 <0>        -0.4781
     36 H3         -0.9596    1.9089    0.0260 H         1 <0>         0.1426
     37 H4          3.3040    1.9803   -0.0197 H         1 <0>         0.1407
     38 H5         -1.5123   -0.8977   -0.8712 H         1 <0>         0.3979
     39 H6          1.2542   -2.4396    0.8593 H         1 <0>         0.3907
     40 H7          3.9506   -0.8164    0.8407 H         1 <0>         0.3909
     41 H8          0.2194    5.9019    1.3230 H         1 <0>         0.0969
     42 H9          1.6571    6.0391    2.3621 H         1 <0>         0.0935
     43 H10         3.3265    9.1854   -0.7322 H         1 <0>         0.1413
     44 H11         3.4673    5.3887   -2.6814 H         1 <0>         0.1441
     45 H12         5.1305    7.8764   -2.7370 H         1 <0>         0.3980
     46 H13         2.6278    8.3752    2.0628 H         1 <0>         0.3962
     47 H14        -1.6735    2.5533    3.1972 H         1 <0>         0.1537
     48 H15         1.3663    2.8508    6.2120 H         1 <0>         0.1533
     49 H16         0.3044    0.9870    8.2932 H         1 <0>         0.3932
     50 H17        -2.6056    0.1706    7.4302 H         1 <0>         0.3925
     51 H18        -3.5492    0.5951    4.4623 H         1 <0>         0.3937
@<TRIPOS>BOND
     1    1    6 ar
     2    1    2 ar
     3    1   36 1
     4    2    3 ar
     5    2   10 1
     6    3    4 ar
     7    3   37 1
     8    4    5 ar
     9    4    9 1
    10    5    6 ar
    11    5    8 1
    12    6    7 1
    13    7   38 1
    14    8   39 1
    15    9   40 1
    16   10   11 1
    17   10   21 1
    18   10   12 1
    19   12   13 1
    20   12   14 1
    21   12   24 1
    22   14   15 1
    23   14   41 1
    24   14   42 1
    25   15   20 ar
    26   15   16 ar
    27   16   17 ar
    28   16   23 1
    29   17   18 ar
    30   17   43 1
    31   18   19 ar
    32   18   22 1
    33   19   20 ar
    34   19   44 1
    35   20   21 1
    36   22   45 1
    37   23   46 1
    38   24   25 1
    39   25   26 2
    40   25   27 1
    41   27   32 ar
    42   27   28 ar
    43   28   29 ar
    44   28   47 1
    45   29   30 ar
    46   29   35 1
    47   30   31 ar
    48   30   34 1
    49   31   32 ar
    50   31   33 1
    51   32   48 1
    52   33   49 1
    53   34   50 1
    54   35   51 1
@<TRIPOS>MOLECULE
ZINC03870412
   51    54     0     0     0
SMALL
USER_CHARGES

@<TRIPOS>ATOM
      1 C1         -0.0167    1.3824    0.0096 C.ar      1 <0>        -0.1232
      2 C2          1.1697    2.0917    0.0021 C.ar      1 <0>        -0.0728
      3 C3          2.3792    1.4226   -0.0135 C.ar      1 <0>        -0.0978
      4 C4          2.4066    0.0362   -0.0217 C.ar      1 <0>         0.0943
      5 C5          1.2160   -0.6806   -0.0137 C.ar      1 <0>         0.0658
      6 C6          0.0021   -0.0041    0.0020 C.ar      1 <0>         0.0986
      7 O1         -1.1658   -0.7009    0.0099 O.3       1 <0>        -0.4875
      8 O2          1.2387   -2.0413   -0.0217 O.3       1 <0>        -0.4804
      9 O3          3.5971   -0.6212   -0.0380 O.3       1 <0>        -0.4833
     10 C7          1.1446    3.5984    0.0105 C.3       1 <0>         0.1463
     11 H1          0.2126    3.9475    0.4550 H         1 <0>         0.1098
     12 C8          1.2611    4.1251   -1.4256 C.3       1 <0>         0.0607
     13 H2          0.4684    3.6972   -2.0393 H         1 <0>         0.1110
     14 C9          1.1215    5.6490   -1.3913 C.3       1 <0>        -0.0887
     15 C10         2.0188    6.2172   -0.3211 C.ar      1 <0>        -0.1934
     16 C11         2.3348    7.5707   -0.3637 C.ar      1 <0>         0.1618
     17 C12         3.1535    8.1275    0.6048 C.ar      1 <0>        -0.1998
     18 C13         3.6597    7.3319    1.6220 C.ar      1 <0>         0.1590
     19 C14         3.3464    5.9836    1.6646 C.ar      1 <0>        -0.1810
     20 C15         2.5265    5.4225    0.6909 C.ar      1 <0>         0.1700
     21 O4          2.2521    4.0938    0.7639 O.3       1 <0>        -0.2919
     22 O5          4.4620    7.8746    2.5751 O.3       1 <0>        -0.4915
     23 O6          1.8385    8.3503   -1.3601 O.3       1 <0>        -0.4908
     24 O7          2.5347    3.7694   -1.9673 O.3       1 <0>        -0.3234
     25 C16         2.6005    3.5753   -3.2991 C.2       1 <0>         0.5152
     26 O8          1.6037    3.7045   -3.9818 O.2       1 <0>        -0.4949
     27 C17         3.8823    3.2060   -3.9281 C.ar      1 <0>        -0.1035
     28 C18         5.0283    3.0514   -3.1432 C.ar      1 <0>        -0.0764
     29 C19         6.2283    2.7053   -3.7353 C.ar      1 <0>         0.0874
     30 C20         6.2961    2.5111   -5.1125 C.ar      1 <0>         0.0957
     31 C21         5.1559    2.6649   -5.8970 C.ar      1 <0>         0.0871
     32 C22         3.9519    3.0043   -5.3093 C.ar      1 <0>        -0.0733
     33 O9          5.2258    2.4749   -7.2418 O.3       1 <0>        -0.4778
     34 O10         7.4772    2.1713   -5.6921 O.3       1 <0>        -0.4725
     35 O11         7.3439    2.5547   -2.9722 O.3       1 <0>        -0.4781
     36 H3         -0.9596    1.9089    0.0260 H         1 <0>         0.1412
     37 H4          3.3040    1.9803   -0.0197 H         1 <0>         0.1453
     38 H5         -1.5123   -0.8977   -0.8712 H         1 <0>         0.3973
     39 H6          1.2542   -2.4396    0.8593 H         1 <0>         0.3921
     40 H7          3.9506   -0.8164    0.8407 H         1 <0>         0.3917
     41 H8          1.4057    6.0611   -2.3595 H         1 <0>         0.0993
     42 H9          0.0865    5.9136   -1.1749 H         1 <0>         0.0973
     43 H10         3.3971    9.1790    0.5682 H         1 <0>         0.1392
     44 H11         3.7408    5.3648    2.4571 H         1 <0>         0.1416
     45 H12         3.9848    8.2124    3.3453 H         1 <0>         0.3966
     46 H13         0.9859    8.7570   -1.1536 H         1 <0>         0.3948
     47 H14         4.9764    3.2026   -2.0751 H         1 <0>         0.1522
     48 H15         3.0669    3.1188   -5.9176 H         1 <0>         0.1531
     49 H16         5.0544    1.5647   -7.5199 H         1 <0>         0.3927
     50 H17         7.6276    1.2177   -5.7487 H         1 <0>         0.3919
     51 H18         7.4749    1.6560   -2.6401 H         1 <0>         0.3928
@<TRIPOS>BOND
     1    1    6 ar
     2    1    2 ar
     3    1   36 1
     4    2    3 ar
     5    2   10 1
     6    3    4 ar
     7    3   37 1
     8    4    5 ar
     9    4    9 1
    10    5    6 ar
    11    5    8 1
    12    6    7 1
    13    7   38 1
    14    8   39 1
    15    9   40 1
    16   10   11 1
    17   10   21 1
    18   10   12 1
    19   12   13 1
    20   12   14 1
    21   12   24 1
    22   14   15 1
    23   14   41 1
    24   14   42 1
    25   15   20 ar
    26   15   16 ar
    27   16   17 ar
    28   16   23 1
    29   17   18 ar
    30   17   43 1
    31   18   19 ar
    32   18   22 1
    33   19   20 ar
    34   19   44 1
    35   20   21 1
    36   22   45 1
    37   23   46 1
    38   24   25 1
    39   25   26 2
    40   25   27 1
    41   27   32 ar
    42   27   28 ar
    43   28   29 ar
    44   28   47 1
    45   29   30 ar
    46   29   35 1
    47   30   31 ar
    48   30   34 1
    49   31   32 ar
    50   31   33 1
    51   32   48 1
    52   33   49 1
    53   34   50 1
    54   35   51 1
@<TRIPOS>MOLECULE
ZINC27439698
   59    62     0     0     0
SMALL
USER_CHARGES

@<TRIPOS>ATOM
      1 C1         -0.2063    1.0844    0.8125 C.2       1 <0>        -0.0780
      2 C2         -0.0916   -0.1284    0.2785 C.2       1 <0>        -0.2217
      3 C3          1.1892   -0.8472    0.3546 C.2       1 <0>         0.5464
      4 O1          2.1435   -0.3327    0.9059 O.2       1 <0>        -0.5301
      5 N1          1.3054   -2.0761   -0.1864 N.am      1 <0>        -0.6549
      6 C4          2.5517   -2.7129   -0.2160 C.ar      1 <0>         0.1200
      7 C5          3.7048   -1.9595   -0.1827 C.ar      1 <0>        -0.0579
      8 C6          4.9490   -2.5997   -0.2120 C.ar      1 <0>        -0.1974
      9 C7          5.0154   -4.0138   -0.2753 C.ar      1 <0>         0.2129
     10 C8          3.8313   -4.7603   -0.3083 C.ar      1 <0>        -0.1947
     11 C9          2.6164   -4.1137   -0.2734 C.ar      1 <0>         0.1622
     12 O2          1.4681   -4.8389   -0.3002 O.3       1 <0>        -0.3093
     13 C10         1.5999   -6.2606   -0.3586 C.3       1 <0>         0.0588
     14 C11         0.2106   -6.9010   -0.3813 C.3       1 <0>        -0.1156
     15 C12         0.3517   -8.4232   -0.4438 C.3       1 <0>         0.0578
     16 N2         -0.9822   -9.0382   -0.4657 N.3       1 <0>        -0.5360
     17 C13        -1.6880   -8.8108    0.8038 C.3       1 <0>         0.0125
     18 C14        -3.0921   -9.4148    0.7161 C.3       1 <0>         0.0626
     19 O3         -2.9885  -10.8047    0.3955 O.3       1 <0>        -0.3850
     20 C15        -2.3071  -11.0626   -0.8351 C.3       1 <0>         0.0628
     21 C16        -0.8951  -10.4753   -0.7631 C.3       1 <0>         0.0171
     22 N3          6.2221   -4.6015   -0.3018 N.ar      1 <0>        -0.5452
     23 C17         7.3156   -3.8777   -0.2694 C.ar      1 <0>         0.3493
     24 N4          7.3023   -2.5556   -0.2097 N.ar      1 <0>        -0.5859
     25 C18         6.1642   -1.8746   -0.1796 C.ar      1 <0>         0.4714
     26 N5          6.1650   -0.4957   -0.1182 N.pl3     1 <0>        -0.6328
     27 C19         7.3694    0.2084   -0.2227 C.ar      1 <0>         0.1581
     28 C20         7.5013    1.4536    0.3785 C.ar      1 <0>        -0.1169
     29 C21         8.6911    2.1472    0.2750 C.ar      1 <0>        -0.1176
     30 C22         9.7524    1.6027   -0.4280 C.ar      1 <0>         0.0901
     31 C23         9.6235    0.3609   -1.0292 C.ar      1 <0>        -0.0524
     32 C24         8.4363   -0.3392   -0.9225 C.ar      1 <0>        -0.0856
     33 Cl1        10.9555   -0.3188   -1.9109 Cl        1 <0>        -0.0424
     34 F1         10.9152    2.2833   -0.5284 F         1 <0>        -0.1264
     35 H1          0.6411    1.5413    1.3020 H         1 <0>         0.1166
     36 H2         -1.1456    1.6141    0.7527 H         1 <0>         0.1209
     37 H3         -0.9390   -0.5853   -0.2110 H         1 <0>         0.1323
     38 H4          0.5255   -2.5194   -0.5554 H         1 <0>         0.4201
     39 H5          3.6489   -0.8820   -0.1348 H         1 <0>         0.1596
     40 H6          3.8708   -5.8385   -0.3565 H         1 <0>         0.1517
     41 H7          2.1429   -6.5383   -1.2620 H         1 <0>         0.0720
     42 H8          2.1473   -6.6110    0.5165 H         1 <0>         0.0691
     43 H9         -0.3323   -6.6233    0.5221 H         1 <0>         0.0760
     44 H10        -0.3367   -6.5506   -1.2564 H         1 <0>         0.0860
     45 H11         0.8947   -8.7010   -1.3473 H         1 <0>         0.0821
     46 H12         0.8990   -8.7736    0.4312 H         1 <0>         0.0409
     47 H13        -1.1377   -9.2854    1.6162 H         1 <0>         0.0448
     48 H14        -1.7636   -7.7398    0.9914 H         1 <0>         0.0895
     49 H15        -3.5986   -9.2990    1.6743 H         1 <0>         0.0993
     50 H16        -3.6604   -8.9035   -0.0609 H         1 <0>         0.0609
     51 H17        -2.2459  -12.1385   -0.9988 H         1 <0>         0.1001
     52 H18        -2.8525  -10.5991   -1.6572 H         1 <0>         0.0612
     53 H19        -0.3918  -10.6192   -1.7193 H         1 <0>         0.0886
     54 H20        -0.3321  -10.9764    0.0243 H         1 <0>         0.0452
     55 H21         8.2696   -4.3834   -0.2921 H         1 <0>         0.1993
     56 H22         5.3306   -0.0149   -0.0027 H         1 <0>         0.4275
     57 H23         6.6738    1.8794    0.9265 H         1 <0>         0.1431
     58 H24         8.7936    3.1154    0.7424 H         1 <0>         0.1506
     59 H25         8.3373   -1.3092   -1.3869 H         1 <0>         0.1663
@<TRIPOS>BOND
     1    1    2 2
     2    1   35 1
     3    1   36 1
     4    2    3 1
     5    2   37 1
     6    3    4 2
     7    3    5 am
     8    5    6 1
     9    5   38 1
    10    6   11 ar
    11    6    7 ar
    12    7    8 ar
    13    7   39 1
    14    8   25 ar
    15    8    9 ar
    16    9   10 ar
    17    9   22 ar
    18   10   11 ar
    19   10   40 1
    20   11   12 1
    21   12   13 1
    22   13   14 1
    23   13   41 1
    24   13   42 1
    25   14   15 1
    26   14   43 1
    27   14   44 1
    28   15   16 1
    29   15   45 1
    30   15   46 1
    31   16   21 1
    32   16   17 1
    33   17   18 1
    34   17   47 1
    35   17   48 1
    36   18   19 1
    37   18   49 1
    38   18   50 1
    39   19   20 1
    40   20   21 1
    41   20   51 1
    42   20   52 1
    43   21   53 1
    44   21   54 1
    45   22   23 ar
    46   23   24 ar
    47   23   55 1
    48   24   25 ar
    49   25   26 1
    50   26   27 1
    51   26   56 1
    52   27   32 ar
    53   27   28 ar
    54   28   29 ar
    55   28   57 1
    56   29   30 ar
    57   29   58 1
    58   30   31 ar
    59   30   34 1
    60   31   32 ar
    61   31   33 1
    62   32   59 1
@<TRIPOS>MOLECULE
ZINC03978503
   50    53     0     0     0
SMALL
USER_CHARGES

@<TRIPOS>ATOM
      1 C1         -0.0167    1.3779    0.0096 C.ar      1 <0>        -0.0710
      2 C2          1.1696    2.0886    0.0021 C.ar      1 <0>        -0.1332
      3 C3          2.3802    1.4154   -0.0130 C.ar      1 <0>         0.0923
      4 C4          2.3990    0.0236   -0.0206 C.ar      1 <0>         0.0809
      5 C5          1.2071   -0.6822   -0.0130 C.ar      1 <0>        -0.1138
      6 C6          0.0021   -0.0041    0.0020 C.ar      1 <0>        -0.0888
      7 C7         -1.2936   -0.7736    0.0102 C.3       1 <0>         0.1463
      8 H1         -1.1302   -1.7631    0.4371 H         1 <0>         0.1070
      9 C8         -1.8224   -0.9103   -1.4233 C.3       1 <0>         0.0610
     10 H2         -1.0636   -1.3761   -2.0520 H         1 <0>         0.1107
     11 C9         -3.0759   -1.7881   -1.3913 C.3       1 <0>        -0.0890
     12 C10        -4.0042   -1.3085   -0.3042 C.ar      1 <0>        -0.1933
     13 C11        -5.3364   -1.7051   -0.3406 C.ar      1 <0>         0.1616
     14 C12        -6.2168   -1.2864    0.6434 C.ar      1 <0>        -0.2002
     15 C13        -5.7673   -0.4690    1.6698 C.ar      1 <0>         0.1586
     16 C14        -4.4409   -0.0726    1.7062 C.ar      1 <0>        -0.1813
     17 C15        -3.5564   -0.4901    0.7171 C.ar      1 <0>         0.1702
     18 O1         -2.2659   -0.0703    0.7846 O.3       1 <0>        -0.2917
     19 O2         -6.6274   -0.0572    2.6380 O.3       1 <0>        -0.4915
     20 O3         -5.7767   -2.5064   -1.3460 O.3       1 <0>        -0.4909
     21 O4         -2.1505    0.3807   -1.9409 O.3       1 <0>        -0.3234
     22 C16        -2.0274    0.5558   -3.2712 C.2       1 <0>         0.5140
     23 O5         -1.6517   -0.3624   -3.9727 O.2       1 <0>        -0.4936
     24 C17        -2.3486    1.8620   -3.8759 C.ar      1 <0>        -0.1023
     25 C18        -2.7754    2.9208   -3.0695 C.ar      1 <0>        -0.0785
     26 C19        -3.0757    4.1438   -3.6389 C.ar      1 <0>         0.0863
     27 C20        -2.9540    4.3216   -5.0146 C.ar      1 <0>         0.0952
     28 C21        -2.5294    3.2683   -5.8204 C.ar      1 <0>         0.0877
     29 C22        -2.2213    2.0451   -5.2556 C.ar      1 <0>        -0.0731
     30 O6         -2.4120    3.4452   -7.1638 O.3       1 <0>        -0.4777
     31 O7         -3.2504    5.5249   -5.5717 O.3       1 <0>        -0.4723
     32 O8         -3.4911    5.1745   -2.8548 O.3       1 <0>        -0.4778
     33 O9          3.5850   -0.6417   -0.0359 O.3       1 <0>        -0.4851
     34 O10         3.5476    2.1129   -0.0209 O.3       1 <0>        -0.4874
     35 H3         -0.9598    1.9038    0.0259 H         1 <0>         0.1390
     36 H4          1.1522    3.1684    0.0077 H         1 <0>         0.1372
     37 H5          1.2190   -1.7621   -0.0189 H         1 <0>         0.1374
     38 H6         -3.5841   -1.7300   -2.3539 H         1 <0>         0.0989
     39 H7         -2.7902   -2.8214   -1.1946 H         1 <0>         0.0968
     40 H8         -7.2509   -1.5961    0.6116 H         1 <0>         0.1390
     41 H9         -4.0917    0.5638    2.5059 H         1 <0>         0.1417
     42 H10        -6.6766   -0.6517    3.3991 H         1 <0>         0.3964
     43 H11        -5.7049   -3.4517   -1.1556 H         1 <0>         0.3947
     44 H12        -2.8707    2.7833   -2.0026 H         1 <0>         0.1528
     45 H13        -1.8875    1.2299   -5.8805 H         1 <0>         0.1534
     46 H14        -1.5394    3.7526   -7.4452 H         1 <0>         0.3929
     47 H15        -2.4976    6.1295   -5.6256 H         1 <0>         0.3917
     48 H16        -2.7726    5.7287   -2.5204 H         1 <0>         0.3921
     49 H17         3.9367   -0.8389    0.8430 H         1 <0>         0.3894
     50 H18         3.8938    2.3101    0.8602 H         1 <0>         0.3905
@<TRIPOS>BOND
     1    1    6 ar
     2    1    2 ar
     3    1   35 1
     4    2    3 ar
     5    2   36 1
     6    3    4 ar
     7    3   34 1
     8    4    5 ar
     9    4   33 1
    10    5    6 ar
    11    5   37 1
    12    6    7 1
    13    7    8 1
    14    7   18 1
    15    7    9 1
    16    9   10 1
    17    9   11 1
    18    9   21 1
    19   11   12 1
    20   11   38 1
    21   11   39 1
    22   12   17 ar
    23   12   13 ar
    24   13   14 ar
    25   13   20 1
    26   14   15 ar
    27   14   40 1
    28   15   16 ar
    29   15   19 1
    30   16   17 ar
    31   16   41 1
    32   17   18 1
    33   19   42 1
    34   20   43 1
    35   21   22 1
    36   22   23 2
    37   22   24 1
    38   24   29 ar
    39   24   25 ar
    40   25   26 ar
    41   25   44 1
    42   26   27 ar
    43   26   32 1
    44   27   28 ar
    45   27   31 1
    46   28   29 ar
    47   28   30 1
    48   29   45 1
    49   30   46 1
    50   31   47 1
    51   32   48 1
    52   33   49 1
    53   34   50 1
@<TRIPOS>MOLECULE
ZINC06718468
   60    64     0     0     0
SMALL
USER_CHARGES

@<TRIPOS>ATOM
      1 C1         -0.0958    2.0449    0.1864 C.3       1 <0>        -0.1162
      2 C2         -0.1158    0.5568   -0.0503 C.ar      1 <0>        -0.0263
      3 C3         -0.1580    0.0634   -1.3375 C.ar      1 <0>        -0.1780
      4 C4         -0.1767   -1.3108   -1.5650 C.ar      1 <0>         0.2192
      5 C5         -0.1528   -2.1955   -0.5026 C.ar      1 <0>        -0.1734
      6 C6         -0.1095   -1.7058    0.8062 C.ar      1 <0>         0.1181
      7 C7         -0.0861   -0.3174    1.0258 C.ar      1 <0>        -0.0017
      8 N1         -0.0386   -0.1439    2.3999 N.pl3     1 <0>        -0.5817
      9 H1         -0.0164    0.7025    2.8731 H         1 <0>         0.4308
     10 C8         -0.0293   -1.3922    2.9648 C.2       1 <0>         0.3944
     11 N2         -0.0785   -2.3058    2.0220 N.2       1 <0>        -0.5393
     12 C9          0.0172   -1.6677    4.4100 C.2       1 <0>        -0.3013
     13 C10         0.1458   -2.9816    4.8829 C.2       1 <0>         0.3580
     14 C11         0.1866   -3.2003    6.2729 C.2       1 <0>        -0.2732
     15 C12         0.1024   -2.1542    7.1231 C.2       1 <0>         0.1851
     16 N3         -0.0227   -0.8808    6.6652 N.am      1 <0>        -0.6204
     17 H2         -0.0812   -0.1505    7.3008 H         1 <0>         0.4194
     18 C13        -0.0611   -0.6128    5.3467 C.2       1 <0>         0.5565
     19 O1         -0.1683    0.5394    4.9609 O.2       1 <0>        -0.5654
     20 N4          0.2302   -4.0395    4.0028 N.pl3     1 <0>        -0.6842
     21 C14         0.2417   -5.4142    4.5090 C.3       1 <0>         0.0775
     22 C15         0.3412   -6.3894    3.3342 C.3       1 <0>         0.1422
     23 H3         -0.4665   -6.1925    2.6292 H         1 <0>         0.1200
     24 C16         0.2295   -7.8031    3.8440 C.ar      1 <0>        -0.1062
     25 C17         1.3276   -8.4216    4.4126 C.ar      1 <0>        -0.1060
     26 C18         1.2260   -9.7182    4.8804 C.ar      1 <0>        -0.1011
     27 C19         0.0263  -10.3976    4.7797 C.ar      1 <0>        -0.1057
     28 C20        -1.0727   -9.7794    4.2110 C.ar      1 <0>        -0.0314
     29 C21        -0.9720   -8.4791    3.7483 C.ar      1 <0>        -0.0968
     30 Cl1        -2.5797  -10.6319    4.0842 Cl        1 <0>        -0.0630
     31 O2          1.5988   -6.2177    2.6778 O.3       1 <0>        -0.5410
     32 N5         -0.2205   -1.7985   -2.8758 N.pl3     1 <0>        -0.6339
     33 C22        -0.3691   -0.8847   -4.0195 C.3       1 <0>         0.0887
     34 C23         0.7218   -1.2127   -5.0453 C.3       1 <0>         0.0454
     35 O3          0.6848   -2.6109   -5.3409 O.3       1 <0>        -0.3803
     36 C24         0.9599   -3.4537   -4.2194 C.3       1 <0>         0.0459
     37 C25        -0.1131   -3.2400   -3.1516 C.3       1 <0>         0.0883
     38 H4          0.9360    2.3955    0.2083 H         1 <0>         0.0724
     39 H5         -0.6334    2.5480   -0.6174 H         1 <0>         0.0719
     40 H6         -0.5756    2.2677    1.1394 H         1 <0>         0.0613
     41 H7         -0.1770    0.7464   -2.1739 H         1 <0>         0.1288
     42 H8         -0.1677   -3.2602   -0.6830 H         1 <0>         0.1260
     43 H9          0.2849   -4.2040    6.6593 H         1 <0>         0.1530
     44 H10         0.1348   -2.3332    8.1876 H         1 <0>         0.1731
     45 H11         0.2820   -3.8736    3.0485 H         1 <0>         0.4349
     46 H12         1.0985   -5.5514    5.1686 H         1 <0>         0.0768
     47 H13        -0.6775   -5.6052    5.0628 H         1 <0>         0.0840
     48 H14         2.2653   -7.8915    4.4909 H         1 <0>         0.1287
     49 H15         2.0841  -10.2008    5.3245 H         1 <0>         0.1363
     50 H16        -0.0528  -11.4110    5.1447 H         1 <0>         0.1362
     51 H17        -1.8309   -7.9944    3.3082 H         1 <0>         0.1367
     52 H18         2.3644   -6.3772    3.2466 H         1 <0>         0.3755
     53 H19        -1.3514   -1.0198   -4.4722 H         1 <0>         0.0694
     54 H20        -0.2583    0.1461   -3.6826 H         1 <0>         0.0918
     55 H21         0.5466   -0.6429   -5.9579 H         1 <0>         0.1036
     56 H22         1.6976   -0.9530   -4.6348 H         1 <0>         0.0554
     57 H23         0.9560   -4.4962   -4.5377 H         1 <0>         0.1043
     58 H24         1.9365   -3.2022   -3.8059 H         1 <0>         0.0552
     59 H25         0.1671   -3.7683   -2.2403 H         1 <0>         0.0936
     60 H26        -1.0692   -3.6163   -3.5155 H         1 <0>         0.0686
@<TRIPOS>BOND
     1    1    2 1
     2    1   38 1
     3    1   39 1
     4    1   40 1
     5    2    7 ar
     6    2    3 ar
     7    3    4 ar
     8    3   41 1
     9    4    5 ar
    10    4   32 1
    11    5    6 ar
    12    5   42 1
    13    6   11 1
    14    6    7 ar
    15    7    8 1
    16    8    9 1
    17    8   10 1
    18   10   11 2
    19   10   12 1
    20   12   18 1
    21   12   13 2
    22   13   14 1
    23   13   20 1
    24   14   15 2
    25   14   43 1
    26   15   16 1
    27   15   44 1
    28   16   17 1
    29   16   18 am
    30   18   19 2
    31   20   21 1
    32   20   45 1
    33   21   22 1
    34   21   46 1
    35   21   47 1
    36   22   23 1
    37   22   24 1
    38   22   31 1
    39   24   29 ar
    40   24   25 ar
    41   25   26 ar
    42   25   48 1
    43   26   27 ar
    44   26   49 1
    45   27   28 ar
    46   27   50 1
    47   28   29 ar
    48   28   30 1
    49   29   51 1
    50   31   52 1
    51   32   37 1
    52   32   33 1
    53   33   34 1
    54   33   53 1
    55   33   54 1
    56   34   35 1
    57   34   55 1
    58   34   56 1
    59   35   36 1
    60   36   37 1
    61   36   57 1
    62   36   58 1
    63   37   59 1
    64   37   60 1
@<TRIPOS>MOLECULE
ZINC06718468
   60    64     0     0     0
SMALL
USER_CHARGES

@<TRIPOS>ATOM
      1 C1          0.1861    0.9402    0.2320 C.3       1 <0>        -0.1099
      2 C2          0.1885   -0.5661    0.2760 C.ar      1 <0>         0.0105
      3 C3          0.2130   -1.2834   -0.8862 C.ar      1 <0>        -0.1934
      4 C4          0.2155   -2.6762   -0.8597 C.ar      1 <0>         0.2379
      5 C5          0.1931   -3.3524    0.3500 C.ar      1 <0>        -0.2114
      6 C6          0.1681   -2.6355    1.5366 C.ar      1 <0>         0.1009
      7 C7          0.1715   -1.2297    1.5066 C.ar      1 <0>         0.0140
      8 N1          0.1514   -0.8003    2.7941 N.2       1 <0>        -0.5153
      9 C8          0.1414   -1.8338    3.6037 C.2       1 <0>         0.3723
     10 N2          0.1421   -2.9944    2.8723 N.pl3     1 <0>        -0.5878
     11 H1          0.1365   -3.8977    3.2257 H         1 <0>         0.4313
     12 C9          0.1201   -1.7586    5.0739 C.2       1 <0>        -0.2944
     13 C10        -0.0136   -0.5236    5.7239 C.2       1 <0>         0.3534
     14 C11        -0.0298   -0.4970    7.1313 C.2       1 <0>        -0.2716
     15 C12         0.0823   -1.6480    7.8290 C.2       1 <0>         0.1820
     16 N3          0.2123   -2.8452    7.1992 N.am      1 <0>        -0.6203
     17 H2          0.2910   -3.6547    7.7279 H         1 <0>         0.4189
     18 C13         0.2280   -2.9303    5.8560 C.2       1 <0>         0.5553
     19 O1          0.3405   -4.0175    5.3144 O.2       1 <0>        -0.5664
     20 N4         -0.1266    0.6435    4.9980 N.pl3     1 <0>        -0.6861
     21 C14        -0.1433    1.9361    5.6873 C.3       1 <0>         0.0780
     22 C15        -0.2761    3.0609    4.6587 C.3       1 <0>         0.1422
     23 H3          0.5199    2.9729    3.9193 H         1 <0>         0.1199
     24 C16        -0.1701    4.3933    5.3548 C.ar      1 <0>        -0.1060
     25 C17        -1.2638    4.9136    6.0217 C.ar      1 <0>        -0.1059
     26 C18        -1.1674    6.1356    6.6604 C.ar      1 <0>        -0.1011
     27 C19         0.0226    6.8384    6.6324 C.ar      1 <0>        -0.1059
     28 C20         1.1172    6.3184    5.9653 C.ar      1 <0>        -0.0315
     29 C21         1.0218    5.0921    5.3312 C.ar      1 <0>        -0.0968
     30 Cl1         2.6119    7.2005    5.9296 Cl        1 <0>        -0.0631
     31 O2         -1.5442    2.9634    4.0072 O.3       1 <0>        -0.5411
     32 N5          0.2402   -3.3953   -2.0590 N.pl3     1 <0>        -0.6312
     33 C22         0.3654   -4.8615   -2.0606 C.3       1 <0>         0.0865
     34 C23        -0.7404   -5.4402   -2.9506 C.3       1 <0>         0.0458
     35 O3         -0.7012   -4.7983   -4.2274 O.3       1 <0>        -0.3797
     36 C24        -0.9535   -3.3918   -4.1834 C.3       1 <0>         0.0453
     37 C25         0.1357   -2.7087   -3.3563 C.3       1 <0>         0.0882
     38 H4          1.2131    1.3055    0.2367 H         1 <0>         0.0703
     39 H5         -0.3149    1.2764   -0.6758 H         1 <0>         0.0645
     40 H6         -0.3416    1.3283    1.1032 H         1 <0>         0.0739
     41 H7          0.2303   -0.7662   -1.8342 H         1 <0>         0.1282
     42 H8          0.1946   -4.4322    0.3682 H         1 <0>         0.1205
     43 H9         -0.1314    0.4433    7.6528 H         1 <0>         0.1523
     44 H10         0.0686   -1.6162    8.9085 H         1 <0>         0.1725
     45 H11        -0.1949    0.6085    4.0311 H         1 <0>         0.4342
     46 H12        -0.9888    1.9705    6.3745 H         1 <0>         0.0761
     47 H13         0.7842    2.0621    6.2458 H         1 <0>         0.0833
     48 H14        -2.1940    4.3651    6.0433 H         1 <0>         0.1287
     49 H15        -2.0220    6.5415    7.1812 H         1 <0>         0.1361
     50 H16         0.0976    7.7936    7.1308 H         1 <0>         0.1361
     51 H17         1.8773    4.6836    4.8140 H         1 <0>         0.1367
     52 H18        -2.3004    3.0335    4.6059 H         1 <0>         0.3756
     53 H19         1.3408   -5.1463   -2.4550 H         1 <0>         0.0707
     54 H20         0.2549   -5.2405   -1.0446 H         1 <0>         0.0921
     55 H21        -0.5831   -6.5114   -3.0767 H         1 <0>         0.1043
     56 H22        -1.7107   -5.2663   -2.4854 H         1 <0>         0.0557
     57 H23        -0.9495   -2.9893   -5.1964 H         1 <0>         0.1053
     58 H24        -1.9246   -3.2104   -3.7226 H         1 <0>         0.0555
     59 H25        -0.1269   -1.6627   -3.1979 H         1 <0>         0.0936
     60 H26         1.0876   -2.7730   -3.8834 H         1 <0>         0.0702
@<TRIPOS>BOND
     1    1    2 1
     2    1   38 1
     3    1   39 1
     4    1   40 1
     5    2    7 ar
     6    2    3 ar
     7    3    4 ar
     8    3   41 1
     9    4    5 ar
    10    4   32 1
    11    5    6 ar
    12    5   42 1
    13    6   10 1
    14    6    7 ar
    15    7    8 1
    16    8    9 2
    17    9   10 1
    18    9   12 1
    19   10   11 1
    20   12   18 1
    21   12   13 2
    22   13   14 1
    23   13   20 1
    24   14   15 2
    25   14   43 1
    26   15   16 1
    27   15   44 1
    28   16   17 1
    29   16   18 am
    30   18   19 2
    31   20   21 1
    32   20   45 1
    33   21   22 1
    34   21   46 1
    35   21   47 1
    36   22   23 1
    37   22   24 1
    38   22   31 1
    39   24   29 ar
    40   24   25 ar
    41   25   26 ar
    42   25   48 1
    43   26   27 ar
    44   26   49 1
    45   27   28 ar
    46   27   50 1
    47   28   29 ar
    48   28   30 1
    49   29   51 1
    50   31   52 1
    51   32   37 1
    52   32   33 1
    53   33   34 1
    54   33   53 1
    55   33   54 1
    56   34   35 1
    57   34   55 1
    58   34   56 1
    59   35   36 1
    60   36   37 1
    61   36   57 1
    62   36   58 1
    63   37   59 1
    64   37   60 1
@<TRIPOS>MOLECULE
ZINC16052730
   56    60     0     0     0
SMALL
USER_CHARGES
N-(4-chlorophenyl)-6-[(6,7-dimethoxy-4-quinolyl)oxy]naphthalene-1-carboxamide
@<TRIPOS>ATOM
      1 C1          2.6893    6.4089    4.7046 C.3       1 <0>         0.0224
      2 O1          2.2948    7.7772    4.5854 O.3       1 <0>        -0.2990
      3 C2          2.1900    8.2821    3.3272 C.ar      1 <0>         0.1299
      4 C3          2.4587    7.4829    2.2539 C.ar      1 <0>        -0.1690
      5 C4          2.3501    8.0038    0.9558 C.ar      1 <0>        -0.1013
      6 C5          2.6199    7.2065   -0.1791 C.ar      1 <0>         0.1416
      7 C6          2.4858    7.7883   -1.4274 C.ar      1 <0>        -0.1800
      8 C7          2.1014    9.1193   -1.5294 C.ar      1 <0>         0.1403
      9 N1          1.8581    9.8525   -0.4685 N.ar      1 <0>        -0.4668
     10 C8          1.9680    9.3547    0.7690 C.ar      1 <0>         0.1528
     11 C9          1.7032   10.1536    1.8937 C.ar      1 <0>        -0.1720
     12 C10         1.8065    9.6185    3.1454 C.ar      1 <0>         0.1457
     13 O2          1.5442   10.3943    4.2298 O.3       1 <0>        -0.2992
     14 C11         1.1580   11.7475    3.9813 C.3       1 <0>         0.0206
     15 O3          2.9932    5.9094   -0.0491 O.3       1 <0>        -0.2514
     16 C12         2.0160    4.9669    0.0061 C.ar      1 <0>         0.1272
     17 C13         0.6756    5.3630    0.0344 C.ar      1 <0>        -0.1711
     18 C14        -0.3245    4.4408    0.0888 C.ar      1 <0>        -0.0761
     19 C15        -0.0107    3.0747    0.1179 C.ar      1 <0>        -0.0333
     20 C16         1.3458    2.6686    0.0894 C.ar      1 <0>        -0.0239
     21 C17         2.3557    3.6437    0.0328 C.ar      1 <0>        -0.1440
     22 C18         1.6598    1.2985    0.1178 C.ar      1 <0>        -0.0725
     23 C19         0.6642    0.3695    0.1722 C.ar      1 <0>        -0.1204
     24 C20        -0.6720    0.7481    0.1954 C.ar      1 <0>        -0.0743
     25 C21        -1.0277    2.0889    0.1749 C.ar      1 <0>        -0.1205
     26 C22        -2.4478    2.4839    0.2049 C.2       1 <0>         0.5656
     27 O4         -2.7561    3.6543    0.0854 O.2       1 <0>        -0.5074
     28 N2         -3.4044    1.5480    0.3648 N.am      1 <0>        -0.6646
     29 C23        -4.7402    1.9327    0.5207 C.ar      1 <0>         0.1524
     30 C24        -5.0479    3.1782    1.0527 C.ar      1 <0>        -0.1162
     31 C25        -6.3676    3.5576    1.2007 C.ar      1 <0>        -0.0870
     32 C26        -7.3829    2.6934    0.8301 C.ar      1 <0>        -0.0520
     33 C27        -7.0792    1.4497    0.3046 C.ar      1 <0>        -0.0872
     34 C28        -5.7612    1.0676    0.1492 C.ar      1 <0>        -0.1366
     35 Cl1        -9.0408    3.1706    1.0241 Cl        1 <0>        -0.0681
     36 H1          2.7339    6.1341    5.7584 H         1 <0>         0.1067
     37 H2          1.9633    5.7758    4.1944 H         1 <0>         0.0576
     38 H3          3.6714    6.2731    4.2517 H         1 <0>         0.0591
     39 H4          2.7532    6.4546    2.4031 H         1 <0>         0.1459
     40 H5          2.6796    7.2101   -2.3188 H         1 <0>         0.1476
     41 H6          2.0003    9.5631   -2.5088 H         1 <0>         0.1693
     42 H7          1.4071   11.1846    1.7681 H         1 <0>         0.1552
     43 H8          1.9544   12.2592    3.4408 H         1 <0>         0.0611
     44 H9          0.2464   11.7613    3.3840 H         1 <0>         0.0611
     45 H10         0.9788   12.2541    4.9296 H         1 <0>         0.1066
     46 H11         0.4301    6.4145    0.0125 H         1 <0>         0.1293
     47 H12        -1.3558    4.7605    0.1095 H         1 <0>         0.1742
     48 H13         3.3945    3.3491    0.0101 H         1 <0>         0.1420
     49 H14         2.6921    0.9816    0.0960 H         1 <0>         0.1370
     50 H15         0.9186   -0.6799    0.1931 H         1 <0>         0.1357
     51 H16        -1.4415   -0.0087    0.2344 H         1 <0>         0.1287
     52 H17        -3.1665    0.6077    0.3717 H         1 <0>         0.4133
     53 H18        -4.2559    3.8512    1.3461 H         1 <0>         0.1517
     54 H19        -6.6074    4.5277    1.6101 H         1 <0>         0.1381
     55 H20        -7.8735    0.7775    0.0156 H         1 <0>         0.1390
     56 H21        -5.5247    0.0970   -0.2613 H         1 <0>         0.1362
@<TRIPOS>BOND
     1    1    2 1
     2    1   36 1
     3    1   37 1
     4    1   38 1
     5    2    3 1
     6    3   12 ar
     7    3    4 ar
     8    4    5 ar
     9    4   39 1
    10    5   10 ar
    11    5    6 ar
    12    6    7 ar
    13    6   15 1
    14    7    8 ar
    15    7   40 1
    16    8    9 ar
    17    8   41 1
    18    9   10 ar
    19   10   11 ar
    20   11   12 ar
    21   11   42 1
    22   12   13 1
    23   13   14 1
    24   14   43 1
    25   14   44 1
    26   14   45 1
    27   15   16 1
    28   16   21 ar
    29   16   17 ar
    30   17   18 ar
    31   17   46 1
    32   18   19 ar
    33   18   47 1
    34   19   25 ar
    35   19   20 ar
    36   20   21 ar
    37   20   22 ar
    38   21   48 1
    39   22   23 ar
    40   22   49 1
    41   23   24 ar
    42   23   50 1
    43   24   25 ar
    44   24   51 1
    45   25   26 1
    46   26   27 2
    47   26   28 am
    48   28   29 1
    49   28   52 1
    50   29   34 ar
    51   29   30 ar
    52   30   31 ar
    53   30   53 1
    54   31   32 ar
    55   31   54 1
    56   32   33 ar
    57   32   35 1
    58   33   34 ar
    59   33   55 1
    60   34   56 1
@<TRIPOS>MOLECULE
ZINC03938668
   78    83     0     0     0
SMALL
USER_CHARGES
(3Z)-5-[(2,6-dichlorophenyl)methylsulfonyl]-3-[[3,5-dimethyl-4-[(2R)-2-(pyrrolidin-1-ylmethyl)pyrrolidine-1-carbonyl]-1H-pyrrol-2-yl]methylene]indolin-2-one
@<TRIPOS>ATOM
      1 C1         -0.7804    4.1238    1.6079 C.3       1 <0>        -0.0960
      2 C2         -0.9726    4.6897    0.2244 C.2       1 <0>        -0.0607
      3 C3         -0.9678    6.0252   -0.1267 C.2       1 <0>        -0.0103
      4 N1         -1.1776    6.1091   -1.4877 N.pl3     1 <0>        -0.5058
      5 H1         -1.2151    7.0927   -1.9788 H         1 <0>         0.4526
      6 C4         -1.3063    4.8709   -1.9930 C.2       1 <0>         0.1214
      7 C5         -1.1916    3.9565   -0.9615 C.2       1 <0>        -0.2390
      8 C6         -1.2760    2.4895   -1.0798 C.2       1 <0>         0.6263
      9 O1         -2.3332    1.9231   -0.8791 O.2       1 <0>        -0.5312
     10 N2         -0.1814    1.7760   -1.4104 N.am      1 <0>        -0.6102
     11 C7          1.1289    2.3374   -1.7862 C.3       1 <0>         0.0945
     12 C8          2.1473    1.2140   -1.4689 C.3       1 <0>        -0.1313
     13 C9          1.3462   -0.0540   -1.8662 C.3       1 <0>        -0.1476
     14 C10        -0.0982    0.3091   -1.4621 C.3       1 <0>         0.1232
     15 H2         -0.3668   -0.0907   -0.4732 H         1 <0>         0.0985
     16 C11        -1.0811   -0.2315   -2.5027 C.3       1 <0>        -0.0300
     17 N3         -1.0687   -1.7001   -2.4715 N.4       1 <0>        -0.4055
     18 C12        -1.4282   -2.2069   -1.1224 C.3       1 <0>        -0.0070
     19 C13        -1.8742   -3.6648   -1.3986 C.3       1 <0>        -0.1422
     20 C14        -2.6181   -3.5488   -2.7488 C.3       1 <0>        -0.1420
     21 C15        -2.0804   -2.2584   -3.3947 C.3       1 <0>         0.0003
     22 C16        -1.5403    4.5341   -3.4431 C.3       1 <0>        -0.0982
     23 C17        -0.7809    7.1139    0.7528 C.2       1 <0>         0.0674
     24 C18        -0.0436    8.2091    0.3488 C.2       1 <0>        -0.1862
     25 C19         0.1315    9.4910    1.0671 C.ar      1 <0>        -0.1261
     26 C20        -0.3451    9.9774    2.2802 C.ar      1 <0>         0.0349
     27 C21         0.0020   11.2481    2.6918 C.ar      1 <0>        -0.6830
     28 C22         0.8216   12.0351    1.8996 C.ar      1 <0>         0.0160
     29 C23         1.2993   11.5622    0.6943 C.ar      1 <0>        -0.1533
     30 C24         0.9609   10.2842    0.2627 C.ar      1 <0>         0.1949
     31 N4          1.2972    9.5757   -0.8843 N.am      1 <0>        -0.6619
     32 C25         0.7421    8.3519   -0.8845 C.2       1 <0>         0.5661
     33 O2          0.8659    7.5098   -1.7560 O.2       1 <0>        -0.5064
     34 S1         -0.5977   11.8700    4.2274 S.o2      1 <0>         2.4923
     35 O3         -0.6057   13.2821    4.0685 O.2       1 <0>        -0.9142
     36 O4         -1.8068   11.1602    4.4587 O.2       1 <0>        -0.9168
     37 C26         0.6543   11.3856    5.4474 C.3       1 <0>        -0.5804
     38 C27         0.2398   11.8713    6.8125 C.ar      1 <0>        -0.0824
     39 C28         0.6370   13.1213    7.2522 C.ar      1 <0>        -0.0134
     40 C29         0.2525   13.5684    8.5039 C.ar      1 <0>        -0.1017
     41 C30        -0.5202   12.7625    9.3187 C.ar      1 <0>        -0.0801
     42 C31        -0.9129   11.5113    8.8819 C.ar      1 <0>        -0.1026
     43 C32        -0.5331   11.0650    7.6285 C.ar      1 <0>        -0.0131
     44 Cl1        -1.0260    9.4933    7.0804 Cl        1 <0>        -0.0402
     45 Cl2         1.6131   14.1310    6.2316 Cl        1 <0>        -0.0366
     46 H3         -0.6314    4.9463    2.3230 H         1 <0>         0.0714
     47 H4          0.1016    3.4666    1.6159 H         1 <0>         0.0679
     48 H5         -1.6712    3.5455    1.8945 H         1 <0>         0.0744
     49 H6          1.1249    2.5935   -2.8560 H         1 <0>         0.0745
     50 H7          1.3235    3.2432   -1.1931 H         1 <0>         0.0913
     51 H8          3.0552    1.3610   -2.0723 H         1 <0>         0.0968
     52 H9          2.4078    1.2462   -0.4007 H         1 <0>         0.0864
     53 H10         1.4517   -0.2307   -2.9468 H         1 <0>         0.0891
     54 H11         1.7351   -0.9217   -1.3131 H         1 <0>         0.0968
     55 H12        -2.0939    0.1316   -2.2738 H         1 <0>         0.1409
     56 H13        -0.7842    0.1165   -3.5031 H         1 <0>         0.1304
     57 H14        -0.5485   -2.1534   -0.4642 H         1 <0>         0.1309
     58 H15        -2.2377   -1.5913   -0.7032 H         1 <0>         0.1330
     59 H16        -0.9884   -4.3143   -1.4576 H         1 <0>         0.0978
     60 H17        -2.5276   -4.0091   -0.5834 H         1 <0>         0.1154
     61 H18        -2.3979   -4.4324   -3.3658 H         1 <0>         0.1062
     62 H19        -3.7013   -3.4894   -2.5667 H         1 <0>         0.1046
     63 H20        -2.8908   -1.5280   -3.5357 H         1 <0>         0.1285
     64 H21        -1.6106   -2.4766   -4.3651 H         1 <0>         0.1311
     65 H22        -1.6040    3.4422   -3.5602 H         1 <0>         0.0747
     66 H23        -0.7066    4.9198   -4.0482 H         1 <0>         0.0827
     67 H24        -2.4811    4.9945   -3.7792 H         1 <0>         0.0818
     68 H25        -1.2227    7.0895    1.7599 H         1 <0>         0.1616
     69 H26        -0.9843    9.3632    2.8971 H         1 <0>         0.1477
     70 H27         1.0890   13.0286    2.2281 H         1 <0>         0.1534
     71 H28         1.9375   12.1854    0.0856 H         1 <0>         0.1429
     72 H29         1.9432   10.0368   -1.6460 H         1 <0>         0.4510
     73 H30         0.7482   10.2897    5.4610 H         1 <0>         0.1539
     74 H31         1.6221   11.8332    5.1772 H         1 <0>         0.1551
     75 H32         0.5597   14.5456    8.8460 H         1 <0>         0.1501
     76 H33        -0.8169   13.1104   10.2971 H         1 <0>         0.1513
     77 H34        -1.5167   10.8820    9.5190 H         1 <0>         0.1494
     78 H35        -0.0502   -1.9971   -2.7620 H         1 <0>         0.4439
@<TRIPOS>BOND
     1    1    2 1
     2    1   46 1
     3    1   47 1
     4    1   48 1
     5    2    7 1
     6    2    3 2
     7    3    4 1
     8    3   23 1
     9    4    5 1
    10    4    6 1
    11    6    7 2
    12    6   22 1
    13    7    8 1
    14    8    9 2
    15    8   10 am
    16   10   14 1
    17   10   11 1
    18   11   12 1
    19   11   49 1
    20   11   50 1
    21   12   13 1
    22   12   51 1
    23   12   52 1
    24   13   14 1
    25   13   53 1
    26   13   54 1
    27   14   15 1
    28   14   16 1
    29   16   17 1
    30   16   55 1
    31   16   56 1
    32   17   21 1
    33   17   18 1
    34   17   78 1
    35   18   19 1
    36   18   57 1
    37   18   58 1
    38   19   20 1
    39   19   59 1
    40   19   60 1
    41   20   21 1
    42   20   61 1
    43   20   62 1
    44   21   63 1
    45   21   64 1
    46   22   65 1
    47   22   66 1
    48   22   67 1
    49   23   24 2
    50   23   68 1
    51   24   32 1
    52   24   25 1
    53   25   30 ar
    54   25   26 ar
    55   26   27 ar
    56   26   69 1
    57   27   28 ar
    58   27   34 1
    59   28   29 ar
    60   28   70 1
    61   29   30 ar
    62   29   71 1
    63   30   31 1
    64   31   32 am
    65   31   72 1
    66   32   33 2
    67   34   35 2
    68   34   36 2
    69   34   37 1
    70   37   38 1
    71   37   73 1
    72   37   74 1
    73   38   43 ar
    74   38   39 ar
    75   39   40 ar
    76   39   45 1
    77   40   41 ar
    78   40   75 1
    79   41   42 ar
    80   41   76 1
    81   42   43 ar
    82   42   77 1
    83   43   44 1
@<TRIPOS>MOLECULE
ZINC14761282
   30    32     0     0     0
SMALL
USER_CHARGES
2,3,6,8-tetrahydroxy-1-methyl-xanthen-9-one
@<TRIPOS>ATOM
      1 C1         -4.9185    5.5078    0.0779 C.3       1 <0>        -0.1280
      2 C2         -3.5589    6.1577    0.0694 C.ar      1 <0>         0.0027
      3 C3         -2.4048    5.3710    0.0883 C.ar      1 <0>        -0.2276
      4 C4         -1.1351    5.9695    0.0801 C.ar      1 <0>         0.1781
      5 C5         -1.0400    7.3557    0.0535 C.ar      1 <0>        -0.1694
      6 C6         -2.1856    8.1307    0.0344 C.ar      1 <0>         0.1596
      7 C7         -3.4480    7.5321    0.0426 C.ar      1 <0>         0.0442
      8 O1         -4.5676    8.3049    0.0246 O.3       1 <0>        -0.4751
      9 O2         -2.0823    9.4845    0.0080 O.3       1 <0>        -0.4786
     10 O3         -0.0131    5.2197    0.0996 O.3       1 <0>        -0.2248
     11 C8         -0.0194    3.8712    0.1264 C.ar      1 <0>         0.1996
     12 C9          1.1807    3.1742    0.1442 C.ar      1 <0>        -0.1877
     13 C10         1.1827    1.7884    0.1728 C.ar      1 <0>         0.1985
     14 C11        -0.0121    1.0771    0.1840 C.ar      1 <0>        -0.2101
     15 C12        -1.2187    1.7514    0.1609 C.ar      1 <0>         0.2237
     16 C13        -1.2274    3.1533    0.1372 C.ar      1 <0>        -0.2714
     17 C14        -2.4972    3.8983    0.1181 C.2       1 <0>         0.4404
     18 O4         -3.5727    3.3265    0.1261 O.2       1 <0>        -0.4278
     19 O5         -2.3868    1.0612    0.1665 O.3       1 <0>        -0.4737
     20 O6          2.3631    1.1188    0.1904 O.3       1 <0>        -0.4885
     21 H1         -5.1981    5.2636    1.1027 H         1 <0>         0.0812
     22 H2         -5.6520    6.1943   -0.3451 H         1 <0>         0.0771
     23 H3         -4.8888    4.5955   -0.5179 H         1 <0>         0.1005
     24 H4         -0.0693    7.8290    0.0476 H         1 <0>         0.1557
     25 H5         -4.8934    8.5457    0.9026 H         1 <0>         0.3881
     26 H6         -2.0550    9.8940    0.8835 H         1 <0>         0.3991
     27 H7          2.1163    3.7136    0.1362 H         1 <0>         0.1540
     28 H8          0.0026   -0.0026    0.2063 H         1 <0>         0.1507
     29 H9         -2.7320    0.8796    1.0513 H         1 <0>         0.4040
     30 H10         2.7079    0.9062   -0.6877 H         1 <0>         0.4055
@<TRIPOS>BOND
     1    1    2 1
     2    1   21 1
     3    1   22 1
     4    1   23 1
     5    2    7 ar
     6    2    3 ar
     7    3   17 1
     8    3    4 ar
     9    4    5 ar
    10    4   10 1
    11    5    6 ar
    12    5   24 1
    13    6    7 ar
    14    6    9 1
    15    7    8 1
    16    8   25 1
    17    9   26 1
    18   10   11 1
    19   11   16 ar
    20   11   12 ar
    21   12   13 ar
    22   12   27 1
    23   13   14 ar
    24   13   20 1
    25   14   15 ar
    26   14   28 1
    27   15   16 ar
    28   15   19 1
    29   16   17 1
    30   17   18 2
    31   19   29 1
    32   20   30 1
@<TRIPOS>MOLECULE
ZINC39716080
   55    58     0     0     0
SMALL
USER_CHARGES

@<TRIPOS>ATOM
      1 C1          1.3709    0.9111    1.0902 C.3       1 <0>        -0.1500
      2 C2          0.8626   -0.4828    0.7164 C.3       1 <0>        -0.0138
      3 O1          1.5780   -0.9605   -0.4246 O.3       1 <0>        -0.2863
      4 C3          1.2738   -2.2022   -0.8641 C.2       1 <0>         0.2884
      5 C4          1.9722   -2.7703   -1.9417 C.2       1 <0>        -0.2388
      6 C5          1.6579   -4.0136   -2.3716 C.2       1 <0>         0.1912
      7 N1          0.6716   -4.7371   -1.7802 N.am      1 <0>        -0.4588
      8 C6         -0.0307   -4.2436   -0.7433 C.2       1 <0>         0.5583
      9 O2         -0.9109   -4.9119   -0.2287 O.2       1 <0>        -0.5208
     10 C7          0.2582   -2.9493   -0.2479 C.2       1 <0>        -0.3934
     11 C8         -0.4935   -2.3973    0.8847 C.2       1 <0>         0.6183
     12 O3         -0.0910   -2.5638    2.0211 O.2       1 <0>        -0.5010
     13 N2         -1.6297   -1.7060    0.6666 N.am      1 <0>        -0.6687
     14 C9         -2.2973   -1.1003    1.7381 C.ar      1 <0>         0.1889
     15 C10        -1.5939   -0.7393    2.8798 C.ar      1 <0>        -0.1353
     16 C11        -2.2520   -0.1418    3.9369 C.ar      1 <0>        -0.0623
     17 C12        -3.6157    0.0981    3.8594 C.ar      1 <0>         0.0222
     18 C13        -4.3209   -0.2625    2.7179 C.ar      1 <0>         0.1272
     19 C14        -3.6616   -0.8554    1.6571 C.ar      1 <0>        -0.1748
     20 F1         -5.6496   -0.0295    2.6427 F         1 <0>        -0.1204
     21 O4         -4.2629    0.6861    4.9011 O.3       1 <0>        -0.2283
     22 C15        -4.8804   -0.1183    5.8035 C.ar      1 <0>         0.2111
     23 C16        -4.7587   -1.5058    5.7249 C.ar      1 <0>        -0.2962
     24 C17        -5.3988   -2.2921    6.6581 C.ar      1 <0>         0.1928
     25 N3         -6.1224   -1.7502    7.6209 N.ar      1 <0>        -0.5470
     26 C18        -6.2644   -0.4378    7.7323 C.ar      1 <0>         0.4493
     27 C19        -5.6448    0.4207    6.8319 C.ar      1 <0>        -0.1891
     28 Cl1        -5.8279    2.1401    6.9855 Cl        1 <0>        -0.0463
     29 N4         -7.0368    0.0864    8.7636 N.pl3     1 <0>        -0.8375
     30 C20         0.3796   -6.0211   -2.2590 C.ar      1 <0>         0.0846
     31 C21        -0.8417   -6.2745   -2.8691 C.ar      1 <0>        -0.0573
     32 C22        -1.1277   -7.5407   -3.3403 C.ar      1 <0>        -0.1416
     33 C23        -0.1974   -8.5575   -3.2043 C.ar      1 <0>         0.1182
     34 C24         1.0213   -8.3069   -2.5961 C.ar      1 <0>        -0.1418
     35 C25         1.3134   -7.0405   -2.1291 C.ar      1 <0>        -0.0757
     36 F2         -0.4793   -9.7958   -3.6651 F         1 <0>        -0.1305
     37 H1          2.4344    0.8595    1.3235 H         1 <0>         0.0712
     38 H2          1.2153    1.5912    0.2527 H         1 <0>         0.0688
     39 H3          0.8252    1.2755    1.9605 H         1 <0>         0.0855
     40 H4          1.0182   -1.1629    1.5538 H         1 <0>         0.1059
     41 H5         -0.2009   -0.4312    0.4830 H         1 <0>         0.0892
     42 H6          2.7603   -2.2141   -2.4276 H         1 <0>         0.1700
     43 H7          2.2016   -4.4397   -3.2018 H         1 <0>         0.1815
     44 H8         -1.9850   -1.6281   -0.2326 H         1 <0>         0.4184
     45 H9         -0.5320   -0.9261    2.9413 H         1 <0>         0.1608
     46 H10        -1.7044    0.1383    4.8246 H         1 <0>         0.1504
     47 H11        -4.2083   -1.1319    0.7676 H         1 <0>         0.1503
     48 H12        -4.1696   -1.9586    4.9412 H         1 <0>         0.1433
     49 H13        -5.3078   -3.3667    6.6012 H         1 <0>         0.1690
     50 H14        -7.4683   -0.5084    9.3968 H         1 <0>         0.4115
     51 H15        -7.1439    1.0466    8.8495 H         1 <0>         0.4122
     52 H16        -1.5677   -5.4819   -2.9747 H         1 <0>         0.1389
     53 H17        -2.0775   -7.7381   -3.8149 H         1 <0>         0.1476
     54 H18         1.7454   -9.1012   -2.4910 H         1 <0>         0.1484
     55 H19         2.2658   -6.8442   -1.6592 H         1 <0>         0.1425
@<TRIPOS>BOND
     1    1    2 1
     2    1   37 1
     3    1   38 1
     4    1   39 1
     5    2    3 1
     6    2   40 1
     7    2   41 1
     8    3    4 1
     9    4   10 2
    10    4    5 1
    11    5    6 2
    12    5   42 1
    13    6    7 1
    14    6   43 1
    15    7    8 am
    16    7   30 1
    17    8    9 2
    18    8   10 1
    19   10   11 1
    20   11   12 2
    21   11   13 am
    22   13   14 1
    23   13   44 1
    24   14   19 ar
    25   14   15 ar
    26   15   16 ar
    27   15   45 1
    28   16   17 ar
    29   16   46 1
    30   17   18 ar
    31   17   21 1
    32   18   19 ar
    33   18   20 1
    34   19   47 1
    35   21   22 1
    36   22   27 ar
    37   22   23 ar
    38   23   24 ar
    39   23   48 1
    40   24   25 ar
    41   24   49 1
    42   25   26 ar
    43   26   27 ar
    44   26   29 1
    45   27   28 1
    46   29   50 1
    47   29   51 1
    48   30   35 ar
    49   30   31 ar
    50   31   32 ar
    51   31   52 1
    52   32   33 ar
    53   32   53 1
    54   33   34 ar
    55   33   36 1
    56   34   35 ar
    57   34   54 1
    58   35   55 1
@<TRIPOS>MOLECULE
ZINC04904223
   36    39     0     0     0
SMALL
USER_CHARGES
9-(2,3-dichlorophenyl)-2,6,7-trihydroxy-xanthen-3-one
@<TRIPOS>ATOM
      1 C1         -0.0603    4.5092    0.0269 C.ar      1 <0>        -0.0973
      2 C2          1.1497    3.8487    0.0118 C.ar      1 <0>        -0.0777
      3 C3          1.1798    2.4504    0.0040 C.ar      1 <0>        -0.0603
      4 C4         -0.0215    1.7317    0.0116 C.ar      1 <0>        -0.0130
      5 C5         -1.2258    2.4085    0.0209 C.ar      1 <0>        -0.0300
      6 C6         -1.2450    3.7931    0.0349 C.ar      1 <0>        -0.0818
      7 Cl1        -2.7180    1.5213    0.0231 Cl        1 <0>        -0.0327
      8 Cl2         0.0021   -0.0041    0.0020 Cl        1 <0>        -0.0266
      9 C7          2.4694    1.7374   -0.0118 C.2       1 <0>         0.0946
     10 C8          3.1185    1.3714   -1.2731 C.ar      1 <0>        -0.1380
     11 C9          2.5282    1.6912   -2.5033 C.ar      1 <0>        -0.0595
     12 C10         3.1524    1.3393   -3.6672 C.ar      1 <0>         0.0665
     13 C11         4.3771    0.6619   -3.6342 C.ar      1 <0>         0.1565
     14 C12         4.9759    0.3486   -2.4265 C.ar      1 <0>        -0.1534
     15 C13         4.3538    0.6938   -1.2341 C.ar      1 <0>         0.1649
     16 O1          4.9240    0.3787   -0.0533 O.3       1 <0>        -0.2065
     17 C14         4.3579    0.6929    1.1303 C.2       1 <0>         0.1954
     18 C15         4.9930    0.3419    2.3072 C.2       1 <0>        -0.2800
     19 C16         4.4121    0.6637    3.5371 C.2       1 <0>         0.3936
     20 O2          4.9774    0.3518    4.5789 O.2       1 <0>        -0.4661
     21 C17         3.1749    1.3483    3.5854 C.2       1 <0>         0.0396
     22 C18         2.5430    1.6971    2.4335 C.2       1 <0>        -0.0881
     23 C19         3.1207    1.3775    1.1888 C.2       1 <0>        -0.1130
     24 O3          2.6166    1.6576    4.7864 O.3       1 <0>        -0.4763
     25 O4          4.9874    0.3183   -4.7968 O.3       1 <0>        -0.4763
     26 O5          2.5813    1.6482   -4.8623 O.3       1 <0>        -0.4781
     27 H1         -0.0840    5.5889    0.0330 H         1 <0>         0.1497
     28 H2          2.0724    4.4098    0.0064 H         1 <0>         0.1459
     29 H3         -2.1893    4.3171    0.0467 H         1 <0>         0.1506
     30 H4          1.5832    2.2134   -2.5316 H         1 <0>         0.1490
     31 H5          5.9208   -0.1742   -2.4114 H         1 <0>         0.1610
     32 H6          5.9374   -0.1811    2.2762 H         1 <0>         0.1545
     33 H7          1.5984    2.2193    2.4724 H         1 <0>         0.1446
     34 H8          2.8829    2.5201    5.1334 H         1 <0>         0.3946
     35 H9          5.5920    0.9918   -5.1377 H         1 <0>         0.4013
     36 H10         2.8435    2.5106   -5.2124 H         1 <0>         0.3925
@<TRIPOS>BOND
     1    1    6 ar
     2    1    2 ar
     3    1   27 1
     4    2    3 ar
     5    2   28 1
     6    3    4 ar
     7    3    9 1
     8    4    5 ar
     9    4    8 1
    10    5    6 ar
    11    5    7 1
    12    6   29 1
    13    9   23 2
    14    9   10 1
    15   10   15 ar
    16   10   11 ar
    17   11   12 ar
    18   11   30 1
    19   12   13 ar
    20   12   26 1
    21   13   14 ar
    22   13   25 1
    23   14   15 ar
    24   14   31 1
    25   15   16 1
    26   16   17 1
    27   17   23 1
    28   17   18 2
    29   18   19 1
    30   18   32 1
    31   19   20 2
    32   19   21 1
    33   21   22 2
    34   21   24 1
    35   22   23 1
    36   22   33 1
    37   24   34 1
    38   25   35 1
    39   26   36 1
@<TRIPOS>MOLECULE
ZINC00155806
   36    39     0     0     0
SMALL
USER_CHARGES

@<TRIPOS>ATOM
      1 C1         -0.0168    1.3847    0.0097 C.ar      1 <0>        -0.0734
      2 C2          1.1616    2.1028    0.0023 C.ar      1 <0>        -0.1509
      3 C3          2.3808    1.4427   -0.0114 C.ar      1 <0>         0.1127
      4 C4          2.4085    0.0532   -0.0117 C.ar      1 <0>         0.0607
      5 C5          1.2174   -0.6637   -0.0015 C.ar      1 <0>         0.1096
      6 C6          0.0021   -0.0041    0.0020 C.ar      1 <0>        -0.1291
      7 C7         -1.3116   -0.7345   -0.0163 C.3       1 <0>         0.0091
      8 H1         -1.9318   -0.4037    0.8168 H         1 <0>         0.1097
      9 C8         -2.0129   -0.4571   -1.3205 C.ar      1 <0>        -0.0779
     10 C9         -2.6959    0.6838   -1.7124 C.ar      1 <0>        -0.1043
     11 C10        -3.2557    0.6821   -2.9862 C.ar      1 <0>         0.0796
     12 C11        -3.1345   -0.4159   -3.8281 C.ar      1 <0>         0.0844
     13 C12        -2.4489   -1.5604   -3.4334 C.ar      1 <0>        -0.1119
     14 C13        -1.8915   -1.5584   -2.1635 C.ar      1 <0>        -0.0767
     15 C14        -1.1086   -2.6429   -1.4764 C.3       1 <0>        -0.1092
     16 C15        -1.1367   -2.2593    0.0349 C.3       1 <0>         0.1052
     17 C16         0.1665   -2.6533    0.7137 C.3       1 <0>         0.0380
     18 O1          1.2602   -2.0251    0.0116 O.3       1 <0>        -0.2900
     19 O2         -2.2545   -2.8668    0.6855 O.3       1 <0>        -0.5371
     20 O3         -3.6985   -0.3715   -5.0648 O.3       1 <0>        -0.4881
     21 O4         -3.9361    1.7784   -3.4157 O.3       1 <0>        -0.4873
     22 O5          3.5998   -0.6047   -0.0226 O.3       1 <0>        -0.4731
     23 O6          3.5420    2.1503   -0.0247 O.3       1 <0>        -0.4824
     24 H2         -0.9619    1.9071    0.0260 H         1 <0>         0.1342
     25 H3          1.1341    3.1825    0.0068 H         1 <0>         0.1393
     26 H4         -2.7898    1.5371   -1.0570 H         1 <0>         0.1407
     27 H5         -2.3551   -2.4142   -4.0881 H         1 <0>         0.1413
     28 H6         -1.5859   -3.6108   -1.6293 H         1 <0>         0.0896
     29 H7         -0.0828   -2.6620   -1.8446 H         1 <0>         0.1013
     30 H8          0.1476   -2.3287    1.7541 H         1 <0>         0.0810
     31 H9          0.2860   -3.7359    0.6715 H         1 <0>         0.1177
     32 H10        -2.1981   -3.8303    0.7466 H         1 <0>         0.3851
     33 H11        -3.1135   -0.0237   -5.7517 H         1 <0>         0.3880
     34 H12        -3.3848    2.4308   -3.8691 H         1 <0>         0.3873
     35 H13         3.9521   -0.7949    0.8577 H         1 <0>         0.3853
     36 H14         3.8879    2.3553    0.8547 H         1 <0>         0.3918
@<TRIPOS>BOND
     1    1    6 ar
     2    1    2 ar
     3    1   24 1
     4    2    3 ar
     5    2   25 1
     6    3    4 ar
     7    3   23 1
     8    4    5 ar
     9    4   22 1
    10    5   18 1
    11    5    6 ar
    12    6    7 1
    13    7    8 1
    14    7   16 1
    15    7    9 1
    16    9   14 ar
    17    9   10 ar
    18   10   11 ar
    19   10   26 1
    20   11   12 ar
    21   11   21 1
    22   12   13 ar
    23   12   20 1
    24   13   14 ar
    25   13   27 1
    26   14   15 1
    27   15   16 1
    28   15   28 1
    29   15   29 1
    30   16   17 1
    31   16   19 1
    32   17   18 1
    33   17   30 1
    34   17   31 1
    35   19   32 1
    36   20   33 1
    37   21   34 1
    38   22   35 1
    39   23   36 1
@<TRIPOS>MOLECULE
ZINC34285235
   46    50     0     0     0
SMALL
USER_CHARGES

@<TRIPOS>ATOM
      1 C1         -0.0173    1.4248    0.0099 C.3       1 <0>         0.0239
      2 O1          0.0021   -0.0041    0.0020 O.3       1 <0>        -0.3109
      3 C2         -1.1997   -0.6371    0.0101 C.ar      1 <0>         0.1595
      4 C3         -2.3776    0.1163    0.0196 C.ar      1 <0>        -0.2023
      5 C4         -3.5937   -0.4934    0.0273 C.ar      1 <0>        -0.0324
      6 C5         -3.6726   -1.8942    0.0257 C.ar      1 <0>        -0.1515
      7 C6         -4.9201   -2.5578    0.0330 C.ar      1 <0>         0.2075
      8 C7         -4.9192   -3.9414    0.0306 C.ar      1 <0>        -0.2938
      9 C8         -3.7127   -4.6295    0.0212 C.ar      1 <0>         0.1827
     10 N1         -2.5592   -4.0035    0.0149 N.ar      1 <0>        -0.5031
     11 C9         -2.4862   -2.6672    0.0163 C.ar      1 <0>         0.1991
     12 C10        -1.2438   -2.0126    0.0031 C.ar      1 <0>        -0.1531
     13 O2         -6.0825   -1.8600    0.0425 O.3       1 <0>        -0.2984
     14 C11        -7.2941   -2.6177    0.0494 C.3       1 <0>         0.1541
     15 C12        -8.4733   -1.6795    0.0595 C.2       1 <0>         0.1918
     16 N2         -9.0673   -1.1960    1.1220 N.2       1 <0>        -0.2245
     17 N3        -10.0396   -0.4261    0.7769 N.2       1 <0>        -0.2437
     18 C13       -10.1135   -0.3809   -0.5433 C.2       1 <0>         0.1451
     19 N4         -9.1048   -1.1808   -1.0257 N.pl3     1 <0>        -0.2833
     20 N5         -8.9258   -1.3279   -2.4027 N.2       1 <0>        -0.2539
     21 C14        -9.7150   -0.7028   -3.2481 C.2       1 <0>         0.2212
     22 C15       -10.7570    0.1278   -2.7841 C.2       1 <0>        -0.1522
     23 C16       -10.9612    0.2841   -1.4494 C.2       1 <0>         0.0012
     24 C17        -9.5073   -0.8724   -4.7073 C.ar      1 <0>        -0.0645
     25 C18       -10.3340   -0.2103   -5.6129 C.ar      1 <0>        -0.0811
     26 C19       -10.1359   -0.3713   -6.9692 C.ar      1 <0>        -0.1216
     27 C20        -9.1191   -1.1880   -7.4302 C.ar      1 <0>        -0.0895
     28 C21        -8.2956   -1.8476   -6.5357 C.ar      1 <0>        -0.1231
     29 C22        -8.4812   -1.6898   -5.1773 C.ar      1 <0>        -0.0704
     30 H1          1.0053    1.8021    0.0021 H         1 <0>         0.1045
     31 H2         -0.5445    1.7859   -0.8732 H         1 <0>         0.0580
     32 H3         -0.5275    1.7763    0.9067 H         1 <0>         0.0587
     33 H4         -2.3213    1.1949    0.0211 H         1 <0>         0.1365
     34 H5         -4.4964    0.0995    0.0349 H         1 <0>         0.1357
     35 H6         -5.8529   -4.4842    0.0363 H         1 <0>         0.1424
     36 H7         -3.7240   -5.7095    0.0194 H         1 <0>         0.1645
     37 H8         -0.3282   -2.5853   -0.0083 H         1 <0>         0.1478
     38 H9         -7.3359   -3.2442   -0.8417 H         1 <0>         0.0970
     39 H10        -7.3235   -3.2479    0.9383 H         1 <0>         0.1121
     40 H11       -11.3972    0.6352   -3.4905 H         1 <0>         0.1676
     41 H12       -11.7562    0.9198   -1.0886 H         1 <0>         0.1764
     42 H13       -11.1284    0.4274   -5.2541 H         1 <0>         0.1341
     43 H14       -10.7762    0.1411   -7.6720 H         1 <0>         0.1344
     44 H15        -8.9679   -1.3114   -8.4924 H         1 <0>         0.1311
     45 H16        -7.5035   -2.4844   -6.9011 H         1 <0>         0.1324
     46 H17        -7.8350   -2.2020   -4.4798 H         1 <0>         0.1342
@<TRIPOS>BOND
     1    1    2 1
     2    1   30 1
     3    1   31 1
     4    1   32 1
     5    2    3 1
     6    3   12 ar
     7    3    4 ar
     8    4    5 ar
     9    4   33 1
    10    5    6 ar
    11    5   34 1
    12    6   11 ar
    13    6    7 ar
    14    7    8 ar
    15    7   13 1
    16    8    9 ar
    17    8   35 1
    18    9   10 ar
    19    9   36 1
    20   10   11 ar
    21   11   12 ar
    22   12   37 1
    23   13   14 1
    24   14   15 1
    25   14   38 1
    26   14   39 1
    27   15   19 1
    28   15   16 2
    29   16   17 1
    30   17   18 2
    31   18   23 1
    32   18   19 1
    33   19   20 1
    34   20   21 2
    35   21   22 1
    36   21   24 1
    37   22   23 2
    38   22   40 1
    39   23   41 1
    40   24   29 ar
    41   24   25 ar
    42   25   26 ar
    43   25   42 1
    44   26   27 ar
    45   26   43 1
    46   27   28 ar
    47   27   44 1
    48   28   29 ar
    49   28   45 1
    50   29   46 1
@<TRIPOS>MOLECULE
ZINC34285235
   47    51     0     0     0
SMALL
USER_CHARGES

@<TRIPOS>ATOM
      1 C1         -0.0173    1.4248    0.0099 C.3       1 <0>         0.0137
      2 O1          0.0021   -0.0041    0.0020 O.3       1 <0>        -0.2927
      3 C2          0.6255   -0.6181    1.0410 C.ar      1 <0>         0.2296
      4 C3          1.2034    0.1537    2.0537 C.ar      1 <0>        -0.1928
      5 C4          1.8331   -0.4367    3.1052 C.ar      1 <0>         0.0030
      6 C5          1.9064   -1.8359    3.1792 C.ar      1 <0>        -0.1442
      7 C6          2.5528   -2.4797    4.2583 C.ar      1 <0>         0.3094
      8 C7          2.5849   -3.8629    4.2636 C.ar      1 <0>        -0.2910
      9 C8          1.9911   -4.5698    3.2257 C.ar      1 <0>         0.2473
     10 N1          1.3936   -3.9620    2.2278 N.ar      1 <0>        -0.4928
     11 C9          1.3247   -2.6273    2.1592 C.ar      1 <0>         0.2088
     12 C10         0.6761   -1.9925    1.0875 C.ar      1 <0>        -0.2028
     13 O2          3.1244   -1.7638    5.2578 O.3       1 <0>        -0.2706
     14 C11         3.7547   -2.5023    6.3063 C.3       1 <0>         0.1486
     15 C12         4.3293   -1.5458    7.3192 C.2       1 <0>         0.1658
     16 N2          5.5339   -1.0320    7.3007 N.2       1 <0>        -0.2152
     17 N3          5.7016   -0.2540    8.3126 N.2       1 <0>        -0.2375
     18 C13         4.5944   -0.2341    9.0365 C.2       1 <0>         0.1586
     19 N4          3.6927   -1.0591    8.4069 N.pl3     1 <0>        -0.2820
     20 N5          2.4147   -1.2365    8.9408 N.2       1 <0>        -0.2664
     21 C14         2.0615   -0.6162   10.0448 C.2       1 <0>         0.2330
     22 C15         2.9631    0.2396   10.7123 C.2       1 <0>        -0.1475
     23 C16         4.2168    0.4257   10.2213 C.2       1 <0>         0.0007
     24 C17         0.6985   -0.8181   10.5950 C.ar      1 <0>        -0.0709
     25 C18         0.3109   -0.1615   11.7614 C.ar      1 <0>        -0.0775
     26 C19        -0.9584   -0.3526   12.2686 C.ar      1 <0>        -0.1184
     27 C20        -1.8451   -1.1941   11.6213 C.ar      1 <0>        -0.0843
     28 C21        -1.4656   -1.8485   10.4632 C.ar      1 <0>        -0.1246
     29 C22        -0.2007   -1.6606    9.9442 C.ar      1 <0>        -0.0713
     30 H1          1.0053    1.8021    0.0021 H         1 <0>         0.0712
     31 H2         -0.5445    1.7859   -0.8732 H         1 <0>         0.1201
     32 H3         -0.5275    1.7763    0.9067 H         1 <0>         0.0706
     33 H4          1.1496    1.2311    2.0004 H         1 <0>         0.1601
     34 H5          2.2760    0.1702    3.8811 H         1 <0>         0.1624
     35 H6          3.0701   -4.3908    5.0712 H         1 <0>         0.1863
     36 H7          2.0224   -5.6493    3.2402 H         1 <0>         0.2143
     37 H8          0.2230   -2.5795    0.3023 H         1 <0>         0.1677
     38 H9          3.0199   -3.1457    6.7901 H         1 <0>         0.1122
     39 H10         4.5549   -3.1140    5.8895 H         1 <0>         0.1273
     40 H11         2.6586    0.7428   11.6182 H         1 <0>         0.1715
     41 H12         4.9105    1.0809   10.7273 H         1 <0>         0.1807
     42 H13         1.0025    0.4955   12.2678 H         1 <0>         0.1360
     43 H14        -1.2597    0.1555   13.1727 H         1 <0>         0.1377
     44 H15        -2.8372   -1.3411   12.0218 H         1 <0>         0.1337
     45 H16        -2.1618   -2.5047    9.9621 H         1 <0>         0.1324
     46 H17         0.0932   -2.1689    9.0377 H         1 <0>         0.1307
     47 H18         0.9919   -4.4933    1.5226 H         1 <0>         0.4493
@<TRIPOS>BOND
     1    1    2 1
     2    1   30 1
     3    1   31 1
     4    1   32 1
     5    2    3 1
     6    3   12 ar
     7    3    4 ar
     8    4    5 ar
     9    4   33 1
    10    5    6 ar
    11    5   34 1
    12    6   11 ar
    13    6    7 ar
    14    7    8 ar
    15    7   13 1
    16    8    9 ar
    17    8   35 1
    18    9   10 ar
    19    9   36 1
    20   10   11 ar
    21   10   47 1
    22   11   12 ar
    23   12   37 1
    24   13   14 1
    25   14   15 1
    26   14   38 1
    27   14   39 1
    28   15   19 1
    29   15   16 2
    30   16   17 1
    31   17   18 2
    32   18   23 1
    33   18   19 1
    34   19   20 1
    35   20   21 2
    36   21   22 1
    37   21   24 1
    38   22   23 2
    39   22   40 1
    40   23   41 1
    41   24   29 ar
    42   24   25 ar
    43   25   26 ar
    44   25   42 1
    45   26   27 ar
    46   26   43 1
    47   27   28 ar
    48   27   44 1
    49   28   29 ar
    50   28   45 1
    51   29   46 1
@<TRIPOS>MOLECULE
ZINC55760827
   83    87     0     0     0
SMALL
USER_CHARGES

@<TRIPOS>ATOM
      1 C1          0.1308    1.2757   -1.5114 C.3       1 <0>        -0.1457
      2 C2          0.0489   -0.2316   -1.2617 C.3       1 <0>        -0.5666
      3 C3          1.2691   -0.6821   -0.4560 C.3       1 <0>        -0.1409
      4 S1         -1.4624   -0.6093   -0.3323 S.o2      1 <0>         2.4858
      5 O1         -1.4234    0.0188    0.9418 O.2       1 <0>        -0.9268
      6 O2         -2.6005   -0.4734   -1.1723 O.2       1 <0>        -0.9405
      7 C4         -1.3622   -2.3341    0.0135 C.ar      1 <0>        -0.6839
      8 C5         -1.2554   -2.7725    1.3190 C.ar      1 <0>        -0.0030
      9 C6         -1.1772   -4.1258    1.5912 C.ar      1 <0>        -0.1503
     10 C7         -1.2056   -5.0450    0.5581 C.ar      1 <0>        -0.0467
     11 C8         -1.3123   -4.6135   -0.7492 C.ar      1 <0>        -0.1331
     12 C9         -1.3964   -3.2546   -1.0259 C.ar      1 <0>         0.2443
     13 N1         -1.5099   -2.8147   -2.3478 N.pl3     1 <0>        -0.6616
     14 C10        -0.8607   -3.4990   -3.3646 C.ar      1 <0>         0.4830
     15 C11        -0.8842   -3.0123   -4.6745 C.ar      1 <0>        -0.2526
     16 C12        -0.2236   -3.7275   -5.6550 C.ar      1 <0>         0.2363
     17 N2          0.4082   -4.8455   -5.3272 N.ar      1 <0>        -0.5723
     18 C13         0.4137   -5.2832   -4.0770 C.ar      1 <0>         0.5997
     19 N3         -0.2026   -4.6244   -3.1067 N.ar      1 <0>        -0.5908
     20 N4          1.0856   -6.4561   -3.7754 N.pl3     1 <0>        -0.6151
     21 C14         1.8542   -7.0973   -4.7591 C.ar      1 <0>         0.0827
     22 C15         2.3739   -6.3680   -5.8182 C.ar      1 <0>        -0.0385
     23 C16         3.1307   -6.9985   -6.7873 C.ar      1 <0>        -0.2089
     24 C17         3.3726   -8.3634   -6.7029 C.ar      1 <0>         0.2363
     25 C18         2.8541   -9.0969   -5.6442 C.ar      1 <0>        -0.2647
     26 C19         2.1002   -8.4653   -4.6693 C.ar      1 <0>         0.1479
     27 O3          1.5961   -9.1808   -3.6285 O.3       1 <0>        -0.3171
     28 C20         1.8884  -10.5793   -3.6006 C.3       1 <0>         0.0308
     29 N5          4.1389   -8.9999   -7.6857 N.pl3     1 <0>        -0.6295
     30 C21         4.7972   -8.2205   -8.7431 C.3       1 <0>         0.1228
     31 C22         4.3883   -8.7923  -10.1042 C.3       1 <0>        -0.1329
     32 C23         4.7023  -10.2897  -10.1391 C.3       1 <0>         0.0908
     33 C24         3.8977  -11.0068   -9.0526 C.3       1 <0>        -0.1308
     34 C25         4.3056  -10.4596   -7.6763 C.3       1 <0>         0.1234
     35 N6          4.3421  -10.8347  -11.4549 N.3       1 <0>        -0.5357
     36 C26         5.0321  -10.1106  -12.5318 C.3       1 <0>         0.0201
     37 C27         4.5853  -10.6681  -13.8850 C.3       1 <0>        -0.0022
     38 N7          4.9025  -12.1007  -13.9534 N.4       1 <0>        -0.3883
     39 C28         4.1869  -12.8138  -12.8872 C.3       1 <0>        -0.0021
     40 C29         4.6303  -12.2741  -11.5256 C.3       1 <0>         0.0207
     41 C30         4.4898  -12.6315  -15.2595 C.3       1 <0>        -0.0459
     42 Cl1        -1.7246   -1.5432   -5.0610 Cl        1 <0>        -0.0377
     43 H1          1.0389    1.5027   -2.0698 H         1 <0>         0.0885
     44 H2         -0.7385    1.5967   -2.0853 H         1 <0>         0.0736
     45 H3          0.1503    1.8016   -0.5568 H         1 <0>         0.0788
     46 H4          0.0294   -0.7574   -2.2162 H         1 <0>         0.1318
     47 H5          2.1772   -0.4551   -1.0145 H         1 <0>         0.0814
     48 H6          1.2886   -0.1562    0.4985 H         1 <0>         0.0798
     49 H7          1.2107   -1.7559   -0.2782 H         1 <0>         0.0704
     50 H8         -1.2325   -2.0574    2.1279 H         1 <0>         0.1501
     51 H9         -1.0933   -4.4659    2.6128 H         1 <0>         0.1365
     52 H10        -1.1440   -6.1014    0.7741 H         1 <0>         0.1352
     53 H11        -1.3341   -5.3318   -1.5555 H         1 <0>         0.1523
     54 H12        -2.0426   -2.0307   -2.5540 H         1 <0>         0.4348
     55 H13        -0.2223   -3.3794   -6.6774 H         1 <0>         0.1828
     56 H14         1.0250   -6.8344   -2.8843 H         1 <0>         0.4275
     57 H15         2.1866   -5.3065   -5.8858 H         1 <0>         0.1583
     58 H16         3.5343   -6.4292   -7.6115 H         1 <0>         0.1269
     59 H17         3.0423  -10.1584   -5.5787 H         1 <0>         0.1320
     60 H18         1.4922  -11.0513   -4.4997 H         1 <0>         0.0544
     61 H19         2.9680  -10.7241   -3.5600 H         1 <0>         0.0558
     62 H20         1.4281  -11.0293   -2.7210 H         1 <0>         0.1025
     63 H21         4.4859   -7.1780   -8.6762 H         1 <0>         0.0942
     64 H22         5.8789   -8.2891   -8.6279 H         1 <0>         0.0623
     65 H23         3.3196   -8.6410  -10.2562 H         1 <0>         0.0830
     66 H24         4.9438   -8.2856  -10.8934 H         1 <0>         0.0745
     67 H25         5.7671  -10.4417   -9.9625 H         1 <0>         0.0537
     68 H26         2.8336  -10.8347   -9.2145 H         1 <0>         0.0823
     69 H27         4.1040  -12.0763   -9.0933 H         1 <0>         0.0730
     70 H28         5.3481  -10.7071   -7.4760 H         1 <0>         0.0623
     71 H29         3.6699  -10.8950   -6.9053 H         1 <0>         0.0877
     72 H30         4.7834   -9.0509  -12.4750 H         1 <0>         0.1272
     73 H31         6.1092  -10.2381  -12.4236 H         1 <0>         0.0603
     74 H32         3.5103  -10.5282  -13.9986 H         1 <0>         0.1375
     75 H33         5.1067  -10.1420  -14.6847 H         1 <0>         0.1357
     76 H34         3.1139  -12.6629  -13.0058 H         1 <0>         0.1374
     77 H35         4.4128  -13.8785  -12.9471 H         1 <0>         0.1354
     78 H36         5.7008  -12.4372  -11.4009 H         1 <0>         0.0602
     79 H37         4.0885  -12.7929  -10.7348 H         1 <0>         0.1256
     80 H38         5.0217  -12.1033  -16.0508 H         1 <0>         0.1244
     81 H39         4.7251  -13.6946  -15.3105 H         1 <0>         0.1242
     82 H40         3.4165  -12.4904  -15.3864 H         1 <0>         0.1232
     83 H41         5.8962  -12.2309  -13.8366 H         1 <0>         0.4222
@<TRIPOS>BOND
     1    1    2 1
     2    1   43 1
     3    1   44 1
     4    1   45 1
     5    2    3 1
     6    2    4 1
     7    2   46 1
     8    3   47 1
     9    3   48 1
    10    3   49 1
    11    4    5 2
    12    4    6 2
    13    4    7 1
    14    7   12 ar
    15    7    8 ar
    16    8    9 ar
    17    8   50 1
    18    9   10 ar
    19    9   51 1
    20   10   11 ar
    21   10   52 1
    22   11   12 ar
    23   11   53 1
    24   12   13 1
    25   13   14 1
    26   13   54 1
    27   14   19 ar
    28   14   15 ar
    29   15   16 ar
    30   15   42 1
    31   16   17 ar
    32   16   55 1
    33   17   18 ar
    34   18   19 ar
    35   18   20 1
    36   20   21 1
    37   20   56 1
    38   21   26 ar
    39   21   22 ar
    40   22   23 ar
    41   22   57 1
    42   23   24 ar
    43   23   58 1
    44   24   25 ar
    45   24   29 1
    46   25   26 ar
    47   25   59 1
    48   26   27 1
    49   27   28 1
    50   28   60 1
    51   28   61 1
    52   28   62 1
    53   29   34 1
    54   29   30 1
    55   30   31 1
    56   30   63 1
    57   30   64 1
    58   31   32 1
    59   31   65 1
    60   31   66 1
    61   32   33 1
    62   32   35 1
    63   32   67 1
    64   33   34 1
    65   33   68 1
    66   33   69 1
    67   34   70 1
    68   34   71 1
    69   35   40 1
    70   35   36 1
    71   36   37 1
    72   36   72 1
    73   36   73 1
    74   37   38 1
    75   37   74 1
    76   37   75 1
    77   38   39 1
    78   38   41 1
    79   38   83 1
    80   39   40 1
    81   39   76 1
    82   39   77 1
    83   40   78 1
    84   40   79 1
    85   41   80 1
    86   41   81 1
    87   41   82 1
@<TRIPOS>MOLECULE
ZINC20148998
   50    54     0     0     0
SMALL
USER_CHARGES
1-(4-fluorophenyl)-N-[3-fluoro-4-(1H-pyrrolo[2,3-b]pyridin-4-yloxy)phenyl]-2-oxo-pyridine-3-carboxamide
@<TRIPOS>ATOM
      1 C1         -0.0410    3.7981   -0.9654 C.2       1 <0>        -0.2336
      2 C2          1.1247    3.0375   -1.0537 C.2       1 <0>         0.0785
      3 C3          1.1266    1.7425   -0.5381 C.2       1 <0>        -0.2846
      4 C4         -0.0586    1.2421    0.0593 C.2       1 <0>         0.5356
      5 O1         -0.0826    0.1126    0.5171 O.2       1 <0>        -0.5324
      6 N1         -1.1589    2.0165    0.1143 N.am      1 <0>        -0.4427
      7 C5         -1.1521    3.2773   -0.3847 C.2       1 <0>         0.1712
      8 C6         -2.3271    1.5136    0.7010 C.ar      1 <0>         0.0765
      9 C7         -3.4539    1.2859   -0.0780 C.ar      1 <0>        -0.0736
     10 C8         -4.6029    0.7846    0.5013 C.ar      1 <0>        -0.1422
     11 C9         -4.6355    0.5199    1.8603 C.ar      1 <0>         0.1210
     12 C10        -3.5147    0.7518    2.6400 C.ar      1 <0>        -0.1413
     13 C11        -2.3619    1.2476    2.0635 C.ar      1 <0>        -0.0555
     14 F1         -5.7622    0.0344    2.4261 F         1 <0>        -0.1293
     15 C12         2.3360    0.9094   -0.6127 C.2       1 <0>         0.5849
     16 O2          3.3119    1.3068   -1.2209 O.2       1 <0>        -0.5208
     17 N2          2.3634   -0.2945   -0.0074 N.am      1 <0>        -0.6616
     18 C13         3.5603   -1.0180    0.0581 C.ar      1 <0>         0.1927
     19 C14         4.7744   -0.3473    0.1274 C.ar      1 <0>        -0.1240
     20 C15         5.9549   -1.0607    0.1973 C.ar      1 <0>        -0.0665
     21 C16         5.9299   -2.4473    0.1869 C.ar      1 <0>         0.0221
     22 C17         4.7164   -3.1199    0.1124 C.ar      1 <0>         0.1203
     23 C18         3.5339   -2.4063    0.0481 C.ar      1 <0>        -0.1749
     24 F2          4.6920   -4.4706    0.1022 F         1 <0>        -0.1231
     25 O3          7.0933   -3.1488    0.2502 O.3       1 <0>        -0.2355
     26 C19         7.6150   -3.6228   -0.9090 C.ar      1 <0>         0.2102
     27 C20         7.0432   -3.3049   -2.1348 C.ar      1 <0>        -0.2829
     28 C21         7.6045   -3.8078   -3.2953 C.ar      1 <0>         0.1776
     29 N3          8.6697   -4.5818   -3.2686 N.ar      1 <0>        -0.5183
     30 C22         9.2606   -4.9204   -2.1285 C.ar      1 <0>         0.3158
     31 C23         8.7516   -4.4439   -0.9078 C.ar      1 <0>        -0.1774
     32 C24         9.6131   -4.9952    0.1392 C.2       1 <0>        -0.1745
     33 C25        10.5527   -5.7296   -0.4767 C.2       1 <0>         0.0508
     34 N4         10.3560   -5.6951   -1.8321 N.pl3     1 <0>        -0.5789
     35 H1         10.9087   -6.1505   -2.4862 H         1 <0>         0.4228
     36 H2         -0.0599    4.8032   -1.3601 H         1 <0>         0.1644
     37 H3          2.0123    3.4457   -1.5141 H         1 <0>         0.1576
     38 H4         -2.0483    3.8767   -0.3227 H         1 <0>         0.1750
     39 H5         -3.4303    1.4964   -1.1371 H         1 <0>         0.1424
     40 H6         -5.4781    0.6035   -0.1049 H         1 <0>         0.1491
     41 H7         -3.5422    0.5450    3.6997 H         1 <0>         0.1488
     42 H8         -1.4882    1.4286    2.6720 H         1 <0>         0.1401
     43 H9          1.5539   -0.6597    0.3828 H         1 <0>         0.4282
     44 H10         4.7952    0.7325    0.1311 H         1 <0>         0.1520
     45 H11         6.8985   -0.5384    0.2553 H         1 <0>         0.1480
     46 H12         2.5903   -2.9284   -0.0102 H         1 <0>         0.1479
     47 H13         6.1693   -2.6720   -2.1813 H         1 <0>         0.1398
     48 H14         7.1580   -3.5592   -4.2467 H         1 <0>         0.1657
     49 H15         9.5146   -4.8372    1.2030 H         1 <0>         0.1530
     50 H16        11.3455   -6.2675    0.0218 H         1 <0>         0.1812
@<TRIPOS>BOND
     1    1    7 2
     2    1    2 1
     3    1   36 1
     4    2    3 2
     5    2   37 1
     6    3    4 1
     7    3   15 1
     8    4    5 2
     9    4    6 am
    10    6    7 1
    11    6    8 1
    12    7   38 1
    13    8   13 ar
    14    8    9 ar
    15    9   10 ar
    16    9   39 1
    17   10   11 ar
    18   10   40 1
    19   11   12 ar
    20   11   14 1
    21   12   13 ar
    22   12   41 1
    23   13   42 1
    24   15   16 2
    25   15   17 am
    26   17   18 1
    27   17   43 1
    28   18   23 ar
    29   18   19 ar
    30   19   20 ar
    31   19   44 1
    32   20   21 ar
    33   20   45 1
    34   21   22 ar
    35   21   25 1
    36   22   23 ar
    37   22   24 1
    38   23   46 1
    39   25   26 1
    40   26   31 ar
    41   26   27 ar
    42   27   28 ar
    43   27   47 1
    44   28   29 ar
    45   28   48 1
    46   29   30 ar
    47   30   34 1
    48   30   31 ar
    49   31   32 1
    50   32   33 2
    51   32   49 1
    52   33   34 1
    53   33   50 1
    54   34   35 1
@<TRIPOS>MOLECULE
ZINC03964325
   57    59     0     0     0
SMALL
USER_CHARGES

@<TRIPOS>ATOM
      1 C1          0.1489    2.0884    0.1150 C.3       1 <0>        -0.1876
      2 C2          0.1348    0.5603    0.1888 C.3       1 <0>        -0.0191
      3 N1         -1.2520    0.0881    0.2979 N.4       1 <0>        -0.3822
      4 C3         -1.9779    0.4111   -0.9377 C.3       1 <0>        -0.0142
      5 C4         -3.4549    0.0484   -0.7712 C.3       1 <0>        -0.1895
      6 C5         -1.2593   -1.3663    0.5041 C.3       1 <0>        -0.0265
      7 C6         -0.6131   -1.6936    1.8518 C.3       1 <0>         0.0952
      8 N2         -0.6203   -3.1440    2.0575 N.am      1 <0>        -0.7289
      9 C7         -0.0988   -3.6675    3.1846 C.2       1 <0>         0.6111
     10 O1          0.3779   -2.9358    4.0309 O.2       1 <0>        -0.5184
     11 C8         -0.1061   -5.1270    3.3915 C.2       1 <0>        -0.2420
     12 C9          0.9071   -6.0320    3.0089 C.2       1 <0>        -0.0577
     13 C10         0.4868   -7.2892    3.3960 C.2       1 <0>        -0.0075
     14 N3         -0.7476   -7.1595    3.9982 N.pl3     1 <0>        -0.4910
     15 H1         -1.2731   -7.8879    4.3645 H         1 <0>         0.4270
     16 C11        -1.1044   -5.8642    4.0022 C.2       1 <0>         0.1158
     17 C12        -2.3825   -5.3072    4.5743 C.3       1 <0>        -0.0999
     18 C13         1.1957   -8.4957    3.2079 C.2       1 <0>         0.0729
     19 C14         0.5100   -9.6674    2.9570 C.2       1 <0>        -0.1889
     20 C15         1.0648  -11.0377    2.8871 C.ar      1 <0>        -0.0736
     21 C16         2.3472  -11.5557    3.0375 C.ar      1 <0>        -0.1000
     22 C17         2.5553  -12.9162    2.9116 C.ar      1 <0>         0.0861
     23 C18         1.4888  -13.7593    2.6366 C.ar      1 <0>        -0.1139
     24 C19         0.2139  -13.2531    2.4856 C.ar      1 <0>        -0.1021
     25 C20        -0.0144  -11.8871    2.6092 C.ar      1 <0>         0.1282
     26 N4         -1.1765  -11.1301    2.5069 N.am      1 <0>        -0.6466
     27 C21        -0.9294   -9.8245    2.7079 C.2       1 <0>         0.5595
     28 O2         -1.7538   -8.9280    2.6842 O.2       1 <0>        -0.5156
     29 F1          3.7984  -13.4252    3.0561 F         1 <0>        -0.1318
     30 C22         2.1990   -5.6919    2.3116 C.3       1 <0>        -0.0931
     31 H2          1.1793    2.4435    0.1331 H         1 <0>         0.1076
     32 H3         -0.3308    2.4121   -0.8087 H         1 <0>         0.0811
     33 H4         -0.3916    2.4984    0.9682 H         1 <0>         0.0809
     34 H5          0.5888    0.1488   -0.7126 H         1 <0>         0.1317
     35 H6          0.6996    0.2334    1.0619 H         1 <0>         0.1337
     36 H7         -1.8867    1.4775   -1.1444 H         1 <0>         0.1351
     37 H8         -1.5554   -0.1571   -1.7664 H         1 <0>         0.1307
     38 H9         -3.5537   -1.0316   -0.6617 H         1 <0>         0.0802
     39 H10        -3.8523    0.5414    0.1160 H         1 <0>         0.0808
     40 H11        -4.0109    0.3769   -1.6492 H         1 <0>         0.1074
     41 H12        -2.2871   -1.7292    0.4963 H         1 <0>         0.1397
     42 H13        -0.6973   -1.8494   -0.2952 H         1 <0>         0.1376
     43 H14         0.4147   -1.3306    1.8596 H         1 <0>         0.0893
     44 H15        -1.1751   -1.2105    2.6511 H         1 <0>         0.0890
     45 H16        -1.0005   -3.7277    1.3824 H         1 <0>         0.4099
     46 H17        -3.1529   -5.3000    3.8032 H         1 <0>         0.0840
     47 H18        -2.7087   -5.9289    5.4080 H         1 <0>         0.0782
     48 H19        -2.2103   -4.2898    4.9254 H         1 <0>         0.0840
     49 H20         2.2744   -8.5020    3.2604 H         1 <0>         0.1589
     50 H21         3.1765  -10.8977    3.2512 H         1 <0>         0.1436
     51 H22         1.6578  -14.8215    2.5394 H         1 <0>         0.1485
     52 H23        -0.6084  -13.9196    2.2712 H         1 <0>         0.1415
     53 H24        -2.0541  -11.4980    2.3189 H         1 <0>         0.4217
     54 H25         2.9686   -5.4822    3.0545 H         1 <0>         0.0785
     55 H26         2.5107   -6.5337    1.6932 H         1 <0>         0.0726
     56 H27         2.0522   -4.8138    1.6827 H         1 <0>         0.0634
     57 H28        -1.7009    0.5410    1.0799 H         1 <0>         0.4247
@<TRIPOS>BOND
     1    1    2 1
     2    1   31 1
     3    1   32 1
     4    1   33 1
     5    2    3 1
     6    2   34 1
     7    2   35 1
     8    3    4 1
     9    3    6 1
    10    3   57 1
    11    4    5 1
    12    4   36 1
    13    4   37 1
    14    5   38 1
    15    5   39 1
    16    5   40 1
    17    6    7 1
    18    6   41 1
    19    6   42 1
    20    7    8 1
    21    7   43 1
    22    7   44 1
    23    8    9 am
    24    8   45 1
    25    9   10 2
    26    9   11 1
    27   11   16 2
    28   11   12 1
    29   12   13 2
    30   12   30 1
    31   13   14 1
    32   13   18 1
    33   14   15 1
    34   14   16 1
    35   16   17 1
    36   17   46 1
    37   17   47 1
    38   17   48 1
    39   18   19 2
    40   18   49 1
    41   19   27 1
    42   19   20 1
    43   20   25 ar
    44   20   21 ar
    45   21   22 ar
    46   21   50 1
    47   22   23 ar
    48   22   29 1
    49   23   24 ar
    50   23   51 1
    51   24   25 ar
    52   24   52 1
    53   25   26 1
    54   26   27 am
    55   26   53 1
    56   27   28 2
    57   30   54 1
    58   30   55 1
    59   30   56 1
@<TRIPOS>MOLECULE
ZINC01546066
   52    54     0     0     0
SMALL
USER_CHARGES

@<TRIPOS>ATOM
      1 C1          1.3190    1.4185    0.8998 C.3       1 <0>         0.0308
      2 O1          1.1221    0.0121    0.7412 O.3       1 <0>        -0.3842
      3 C2          1.6336   -0.7719    1.8209 C.3       1 <0>         0.0626
      4 C3          1.3686   -2.2534    1.5456 C.3       1 <0>         0.0560
      5 O2          2.1105   -2.6643    0.3955 O.3       1 <0>        -0.2877
      6 C4          1.9861   -3.9631    0.0122 C.ar      1 <0>         0.1163
      7 C5          1.1727   -4.8014    0.7206 C.ar      1 <0>        -0.1508
      8 C6          1.0439   -6.1386    0.3269 C.ar      1 <0>        -0.1822
      9 C7          1.7562   -6.6146   -0.8018 C.ar      1 <0>         0.2018
     10 C8          2.5842   -5.7378   -1.5132 C.ar      1 <0>        -0.1867
     11 C9          2.6894   -4.4253   -1.1088 C.ar      1 <0>         0.1692
     12 O3          3.4878   -3.5711   -1.8004 O.3       1 <0>        -0.2847
     13 C10         4.1782   -4.1019   -2.9333 C.3       1 <0>         0.0544
     14 C11         5.0210   -3.0002   -3.5791 C.3       1 <0>         0.0626
     15 O4          6.0448   -2.5894   -2.6708 O.3       1 <0>        -0.3848
     16 C12         6.8933   -1.5581   -3.1792 C.3       1 <0>         0.0309
     17 N1          1.6146   -7.9009   -1.1583 N.ar      1 <0>        -0.5426
     18 C13         0.8310   -8.6986   -0.4725 C.ar      1 <0>         0.3422
     19 N2          0.1465   -8.2987    0.5874 N.ar      1 <0>        -0.5807
     20 C14         0.2146   -7.0483    1.0253 C.ar      1 <0>         0.4641
     21 N3         -0.5043   -6.6451    2.1328 N.pl3     1 <0>        -0.6417
     22 C15        -1.2223   -7.5837    2.8797 C.ar      1 <0>         0.1534
     23 C16        -2.4417   -7.2339    3.4483 C.ar      1 <0>        -0.1365
     24 C17        -3.1548   -8.1581    4.1879 C.ar      1 <0>        -0.0976
     25 C18        -2.6612   -9.4349    4.3666 C.ar      1 <0>        -0.1098
     26 C19        -1.4382   -9.7960    3.7995 C.ar      1 <0>         0.0290
     27 C20        -0.7210   -8.8652    3.0488 C.ar      1 <0>        -0.0846
     28 C21        -0.9239  -11.1197    3.9839 C.1       1 <0>        -0.1518
     29 C22        -0.5023  -12.2049    4.1351 C.1       1 <0>        -0.1689
     30 H1          2.3858    1.6300    0.9737 H         1 <0>         0.0438
     31 H2          0.9034    1.9430    0.0394 H         1 <0>         0.0882
     32 H3          0.8182    1.7554    1.8074 H         1 <0>         0.0421
     33 H4          2.7069   -0.6059    1.9138 H         1 <0>         0.0642
     34 H5          1.1392   -0.4804    2.7476 H         1 <0>         0.0738
     35 H6          1.6782   -2.8442    2.4078 H         1 <0>         0.0797
     36 H7          0.3045   -2.4047    1.3647 H         1 <0>         0.0731
     37 H8          0.6320   -4.4344    1.5804 H         1 <0>         0.1376
     38 H9          3.1329   -6.0870   -2.3754 H         1 <0>         0.1546
     39 H10         4.8282   -4.9164   -2.6138 H         1 <0>         0.0783
     40 H11         3.4545   -4.4770   -3.6569 H         1 <0>         0.0849
     41 H12         5.4773   -3.3804   -4.4931 H         1 <0>         0.0752
     42 H13         4.3841   -2.1485   -3.8181 H         1 <0>         0.0638
     43 H14         6.2953   -0.6764   -3.4098 H         1 <0>         0.0434
     44 H15         7.6433   -1.3027   -2.4306 H         1 <0>         0.0879
     45 H16         7.3884   -1.9084   -4.0848 H         1 <0>         0.0424
     46 H17         0.7401   -9.7278   -0.7869 H         1 <0>         0.1966
     47 H18        -0.5113   -5.7106    2.3927 H         1 <0>         0.4197
     48 H19        -2.8329   -6.2365    3.3119 H         1 <0>         0.1281
     49 H20        -4.1012   -7.8805    4.6278 H         1 <0>         0.1331
     50 H21        -3.2213  -10.1542    4.9456 H         1 <0>         0.1284
     51 H22         0.2239   -9.1405    2.6039 H         1 <0>         0.1386
     52 H23        -0.1252  -13.1754    4.2703 H         1 <0>         0.2249
@<TRIPOS>BOND
     1    1    2 1
     2    1   30 1
     3    1   31 1
     4    1   32 1
     5    2    3 1
     6    3    4 1
     7    3   33 1
     8    3   34 1
     9    4    5 1
    10    4   35 1
    11    4   36 1
    12    5    6 1
    13    6   11 ar
    14    6    7 ar
    15    7    8 ar
    16    7   37 1
    17    8   20 ar
    18    8    9 ar
    19    9   10 ar
    20    9   17 ar
    21   10   11 ar
    22   10   38 1
    23   11   12 1
    24   12   13 1
    25   13   14 1
    26   13   39 1
    27   13   40 1
    28   14   15 1
    29   14   41 1
    30   14   42 1
    31   15   16 1
    32   16   43 1
    33   16   44 1
    34   16   45 1
    35   17   18 ar
    36   18   19 ar
    37   18   46 1
    38   19   20 ar
    39   20   21 1
    40   21   22 1
    41   21   47 1
    42   22   27 ar
    43   22   23 ar
    44   23   24 ar
    45   23   48 1
    46   24   25 ar
    47   24   49 1
    48   25   26 ar
    49   25   50 1
    50   26   27 ar
    51   26   28 1
    52   27   51 1
    53   28   29 3
    54   29   52 1
@<TRIPOS>MOLECULE
ZINC03820040
   62    66     0     0     0
SMALL
USER_CHARGES
N-[4-[4-(4-methylpiperazin-1-yl)-6-[(5-methyl-2H-pyrazol-3-yl)amino]pyrimidin-2-yl]sulfanylphenyl]cyclopropanecarboxamide
@<TRIPOS>ATOM
      1 C1          1.8035   -7.6837    0.5070 C.3       1 <0>        -0.0779
      2 C2          2.3685   -6.3674    0.0389 C.2       1 <0>         0.0949
      3 C3          1.9325   -5.1020    0.4407 C.2       1 <0>        -0.2905
      4 C4          2.6904   -4.1743   -0.2066 C.2       1 <0>         0.3252
      5 N1          3.5799   -4.8447   -0.9836 N.pl3     1 <0>        -0.4853
      6 H1          4.2729   -4.4328   -1.5753 H         1 <0>         0.4473
      7 N2          3.3537   -6.2159   -0.8085 N.2       1 <0>        -0.2711
      8 N3          2.5778   -2.7905   -0.0888 N.pl3     1 <0>        -0.6296
      9 C5          1.3376   -2.2123    0.1391 C.ar      1 <0>         0.4706
     10 C6          0.1755   -2.9717    0.0343 C.ar      1 <0>        -0.2983
     11 C7         -1.0466   -2.3490    0.2714 C.ar      1 <0>         0.3791
     12 N4         -1.0643   -1.0564    0.5886 N.ar      1 <0>        -0.5664
     13 C8          0.0620   -0.3646    0.6795 C.ar      1 <0>         0.3511
     14 N5          1.2425   -0.9231    0.4557 N.ar      1 <0>        -0.5606
     15 S1         -0.0125    1.3444    1.1018 S.3       1 <0>         0.1303
     16 C9          1.7078    1.7032    1.2298 C.ar      1 <0>        -0.1638
     17 C10         2.3806    1.4637    2.4214 C.ar      1 <0>        -0.0284
     18 C11         3.7293    1.7409    2.5200 C.ar      1 <0>        -0.1315
     19 C12         4.4114    2.2681    1.4313 C.ar      1 <0>         0.1902
     20 C13         3.7379    2.5125    0.2417 C.ar      1 <0>        -0.1573
     21 C14         2.3903    2.2311    0.1410 C.ar      1 <0>        -0.0288
     22 N6          5.7793    2.5539    1.5333 N.am      1 <0>        -0.6744
     23 C15         6.5739    1.7808    2.2997 C.2       1 <0>         0.5466
     24 O1          6.1269    0.7811    2.8213 O.2       1 <0>        -0.5140
     25 C16         8.0178    2.1584    2.5086 C.3       1 <0>        -0.2022
     26 C17         9.0818    1.2604    1.8742 C.3       1 <0>        -0.1494
     27 C18         8.8679    1.2402    3.3890 C.3       1 <0>        -0.1425
     28 N7         -2.2296   -3.0657    0.1789 N.pl3     1 <0>        -0.4710
     29 C19        -2.3617   -3.6957   -1.1422 C.3       1 <0>         0.0277
     30 C20        -3.6379   -4.5399   -1.1765 C.3       1 <0>         0.0040
     31 C21        -4.6643   -3.0537    0.4349 C.3       1 <0>        -0.0004
     32 C22        -3.3881   -2.2095    0.4692 C.3       1 <0>         0.0347
     33 C23        -6.0501   -4.4431   -0.9842 C.3       1 <0>        -0.0407
     34 H2          2.3381   -8.0122    1.3982 H         1 <0>         0.0831
     35 H3          0.7460   -7.5623    0.7417 H         1 <0>         0.0784
     36 H4          1.9177   -8.4287   -0.2805 H         1 <0>         0.0774
     37 H5          1.1347   -4.8964    1.1389 H         1 <0>         0.1550
     38 H6          3.3667   -2.2314   -0.1662 H         1 <0>         0.4241
     39 H7          0.2211   -4.0192   -0.2246 H         1 <0>         0.1631
     40 H8          1.8494    1.0573    3.2693 H         1 <0>         0.1319
     41 H9          4.2533    1.5509    3.4451 H         1 <0>         0.1405
     42 H10         4.2686    2.9225   -0.6049 H         1 <0>         0.1339
     43 H11         1.8666    2.4209   -0.7843 H         1 <0>         0.1341
     44 H12         6.1543    3.3081    1.0523 H         1 <0>         0.4168
     45 H13         8.2224    3.2282    2.5520 H         1 <0>         0.1306
     46 H14         8.7374    0.3965    1.3057 H         1 <0>         0.0995
     47 H15         9.9866    1.7393    1.5000 H         1 <0>         0.1100
     48 H16         9.6320    1.7059    4.0114 H         1 <0>         0.1092
     49 H17         8.3827    0.3633    3.8175 H         1 <0>         0.1093
     50 H18        -2.4158   -2.9234   -1.9095 H         1 <0>         0.0737
     51 H19        -1.4982   -4.3342   -1.3286 H         1 <0>         0.1318
     52 H20        -3.5722   -5.3290   -0.4274 H         1 <0>         0.1439
     53 H21        -3.7533   -4.9852   -2.1646 H         1 <0>         0.1412
     54 H22        -4.6102   -3.8259    1.2022 H         1 <0>         0.1407
     55 H23        -5.5278   -2.4152    0.6217 H         1 <0>         0.1407
     56 H24        -3.2729   -1.7645    1.4575 H         1 <0>         0.1357
     57 H25        -3.4537   -1.4201   -0.2796 H         1 <0>         0.0793
     58 H26        -6.8948   -3.7714   -0.8313 H         1 <0>         0.1238
     59 H27        -6.1225   -4.8989   -1.9717 H         1 <0>         0.1230
     60 H28        -6.0632   -5.2226   -0.2224 H         1 <0>         0.1251
     61 N8         -4.7966   -3.6630   -0.9051 N.4       1 <0>        -0.4014
     62 H29        -4.8229   -2.9169   -1.6099 H         1 <0>         0.4281
@<TRIPOS>BOND
     1    1    2 1
     2    1   34 1
     3    1   35 1
     4    1   36 1
     5    2    7 2
     6    2    3 1
     7    3    4 2
     8    3   37 1
     9    4    5 1
    10    4    8 1
    11    5    6 1
    12    5    7 1
    13    8    9 1
    14    8   38 1
    15    9   14 ar
    16    9   10 ar
    17   10   11 ar
    18   10   39 1
    19   11   12 ar
    20   11   28 1
    21   12   13 ar
    22   13   14 ar
    23   13   15 1
    24   15   16 1
    25   16   21 ar
    26   16   17 ar
    27   17   18 ar
    28   17   40 1
    29   18   19 ar
    30   18   41 1
    31   19   20 ar
    32   19   22 1
    33   20   21 ar
    34   20   42 1
    35   21   43 1
    36   22   23 am
    37   22   44 1
    38   23   24 2
    39   23   25 1
    40   25   27 1
    41   25   26 1
    42   25   45 1
    43   26   27 1
    44   26   46 1
    45   26   47 1
    46   27   48 1
    47   27   49 1
    48   28   32 1
    49   28   29 1
    50   29   30 1
    51   29   50 1
    52   29   51 1
    53   30   52 1
    54   30   53 1
    55   30   61 1
    56   31   32 1
    57   31   54 1
    58   31   55 1
    59   31   61 1
    60   32   56 1
    61   32   57 1
    62   33   58 1
    63   33   59 1
    64   33   60 1
    65   33   61 1
    66   61   62 1
@<TRIPOS>MOLECULE
ZINC23247639
   69    72     0     0     0
SMALL
USER_CHARGES
1-[4-[(4-ethylpiperazin-1-yl)methyl]-3-(trifluoromethyl)phenyl]-3-[4-(6-methylaminopyrimidin-4-yl)oxyphenyl]urea
@<TRIPOS>ATOM
      1 C1          8.9417    3.3719    8.2172 C.3       1 <0>        -0.1901
      2 C2         10.1498    2.9102    7.3997 C.3       1 <0>        -0.0070
      3 N1          9.9972    3.3533    6.0075 N.4       1 <0>        -0.4011
      4 C3         11.2367    3.1387    5.2477 C.3       1 <0>         0.0016
      5 C4         11.0629    3.6845    3.8284 C.3       1 <0>         0.0271
      6 N2          9.9288    3.0094    3.1822 N.3       1 <0>        -0.5300
      7 C5          8.6893    3.2240    3.9420 C.3       1 <0>         0.0232
      8 C6          8.8631    2.6781    5.3612 C.3       1 <0>        -0.0016
      9 C7          9.7762    3.4524    1.7899 C.3       1 <0>         0.0786
     10 C8          8.7879    2.5601    1.0842 C.ar      1 <0>        -0.0666
     11 C9          7.5022    3.0092    0.8434 C.ar      1 <0>        -0.0932
     12 C10         6.5958    2.1959    0.1923 C.ar      1 <0>        -0.0888
     13 C11         6.9731    0.9214   -0.2106 C.ar      1 <0>         0.1880
     14 C12         8.2646    0.4735    0.0326 C.ar      1 <0>        -0.1043
     15 C13         9.1683    1.2940    0.6793 C.ar      1 <0>        -0.1369
     16 C14        10.5702    0.8086    0.9441 C.3       1 <0>         0.5111
     17 F1         10.7250   -0.4786    0.4184 F         1 <0>        -0.1776
     18 F2         11.4860    1.6739    0.3362 F         1 <0>        -0.1774
     19 F3         10.8008    0.7797    2.3237 F         1 <0>        -0.1628
     20 N3          6.0552    0.0926   -0.8655 N.am      1 <0>        -0.6979
     21 C15         4.7513    0.1311   -0.5266 C.2       1 <0>         0.7117
     22 O1          4.3858    0.8194    0.4067 O.2       1 <0>        -0.5623
     23 N4          3.8526   -0.5934   -1.2222 N.am      1 <0>        -0.6900
     24 C16         2.4863   -0.4790   -0.9335 C.ar      1 <0>         0.1635
     25 C17         1.5516   -0.5518   -1.9576 C.ar      1 <0>        -0.1265
     26 C18         0.2052   -0.4394   -1.6724 C.ar      1 <0>        -0.0923
     27 C19        -0.2137   -0.2543   -0.3628 C.ar      1 <0>         0.0841
     28 C20         0.7198   -0.1815    0.6609 C.ar      1 <0>        -0.0957
     29 C21         2.0665   -0.2932    0.3769 C.ar      1 <0>        -0.1058
     30 O2         -1.5393   -0.1385   -0.0833 O.3       1 <0>        -0.2424
     31 C22        -2.3129   -1.2454   -0.1983 C.ar      1 <0>         0.3836
     32 C23        -3.6894   -1.1637   -0.0277 C.ar      1 <0>        -0.3134
     33 C24        -4.4409   -2.3284   -0.1601 C.ar      1 <0>         0.4631
     34 N5         -3.8165   -3.4721   -0.4341 N.ar      1 <0>        -0.5936
     35 C25        -2.5082   -3.5081   -0.5840 C.ar      1 <0>         0.3760
     36 N6         -1.7644   -2.4263   -0.4707 N.ar      1 <0>        -0.6039
     37 N7         -5.8178   -2.2988   -0.0034 N.pl3     1 <0>        -0.7218
     38 C26        -6.4937   -1.0344    0.2979 C.3       1 <0>         0.0891
     39 H1          9.0560    3.0401    9.2597 H         1 <0>         0.1066
     40 H2          8.0243    2.9380    7.7928 H         1 <0>         0.0798
     41 H3          8.8763    4.4695    8.1868 H         1 <0>         0.0803
     42 H4         11.0672    3.3441    7.8241 H         1 <0>         0.1306
     43 H5         10.2153    1.8126    7.4301 H         1 <0>         0.1269
     44 H6         12.0665    3.6630    5.7442 H         1 <0>         0.1361
     45 H7         11.4577    2.0621    5.2031 H         1 <0>         0.1357
     46 H8         10.8699    4.7665    3.8728 H         1 <0>         0.0625
     47 H9         11.9796    3.4990    3.2494 H         1 <0>         0.1239
     48 H10         8.4684    4.3007    3.9867 H         1 <0>         0.0621
     49 H11         7.8594    2.6998    3.4455 H         1 <0>         0.1239
     50 H12         9.0569    1.5962    5.3178 H         1 <0>         0.1351
     51 H13         7.9470    2.8635    5.9412 H         1 <0>         0.1359
     52 H14         9.4106    4.4897    1.7732 H         1 <0>         0.0663
     53 H15        10.7489    3.3982    1.2791 H         1 <0>         0.1073
     54 H16         7.2082    3.9988    1.1607 H         1 <0>         0.1358
     55 H17         5.5933    2.5489    0.0003 H         1 <0>         0.1466
     56 H18         8.5625   -0.5152   -0.2838 H         1 <0>         0.1447
     57 H19         6.3979   -0.5903   -1.6569 H         1 <0>         0.4387
     58 H20         4.1917   -1.2745   -2.0166 H         1 <0>         0.4355
     59 H21         1.8775   -0.6959   -2.9771 H         1 <0>         0.1334
     60 H22        -0.5220   -0.4960   -2.4689 H         1 <0>         0.1303
     61 H23         0.3932   -0.0371    1.6801 H         1 <0>         0.1327
     62 H24         2.7931   -0.2369    1.1740 H         1 <0>         0.1442
     63 H25        -4.1646   -0.2205    0.1982 H         1 <0>         0.1466
     64 H26        -2.0315   -4.4515   -0.8058 H         1 <0>         0.2000
     65 H27        -6.4030   -3.2246   -0.1053 H         1 <0>         0.4376
     66 H28        -7.5762   -1.2091    0.3856 H         1 <0>         0.0864
     67 H29        -6.3028   -0.3146   -0.5117 H         1 <0>         0.0603
     68 H30        -6.1096   -0.6302    1.2461 H         1 <0>         0.0599
     69 H31         9.7882    4.4332    6.0188 H         1 <0>         0.4364
@<TRIPOS>BOND
     1    1    2 1
     2    1   39 1
     3    1   40 1
     4    1   41 1
     5    2    3 1
     6    2   42 1
     7    2   43 1
     8    3    8 1
     9    3    4 1
    10    3   69 1
    11    4    5 1
    12    4   44 1
    13    4   45 1
    14    5    6 1
    15    5   46 1
    16    5   47 1
    17    6    7 1
    18    6    9 1
    19    7    8 1
    20    7   48 1
    21    7   49 1
    22    8   50 1
    23    8   51 1
    24    9   10 1
    25    9   52 1
    26    9   53 1
    27   10   15 ar
    28   10   11 ar
    29   11   12 ar
    30   11   54 1
    31   12   13 ar
    32   12   55 1
    33   13   14 ar
    34   13   20 1
    35   14   15 ar
    36   14   56 1
    37   15   16 1
    38   16   17 1
    39   16   18 1
    40   16   19 1
    41   20   21 am
    42   20   57 1
    43   21   22 2
    44   21   23 am
    45   23   24 1
    46   23   58 1
    47   24   29 ar
    48   24   25 ar
    49   25   26 ar
    50   25   59 1
    51   26   27 ar
    52   26   60 1
    53   27   28 ar
    54   27   30 1
    55   28   29 ar
    56   28   61 1
    57   29   62 1
    58   30   31 1
    59   31   36 ar
    60   31   32 ar
    61   32   33 ar
    62   32   63 1
    63   33   34 ar
    64   33   37 1
    65   34   35 ar
    66   35   36 ar
    67   35   64 1
    68   37   38 1
    69   37   65 1
    70   38   66 1
    71   38   67 1
    72   38   68 1
@<TRIPOS>MOLECULE
ZINC23247639
   69    72     0     0     0
SMALL
USER_CHARGES
1-[4-[(4-ethylpiperazin-1-yl)methyl]-3-(trifluoromethyl)phenyl]-3-[4-(6-methylaminopyrimidin-4-yl)oxyphenyl]urea
@<TRIPOS>ATOM
      1 C1          8.9417    3.3719    8.2172 C.3       1 <0>        -0.1569
      2 C2         10.1498    2.9102    7.3997 C.3       1 <0>         0.0486
      3 N1          9.9972    3.3533    6.0075 N.3       1 <0>        -0.5379
      4 C3         11.2367    3.1387    5.2477 C.3       1 <0>         0.0250
      5 C4         11.0629    3.6845    3.8284 C.3       1 <0>         0.0004
      6 N2          9.9288    3.0094    3.1822 N.4       1 <0>        -0.4202
      7 C5          8.6893    3.2240    3.9420 C.3       1 <0>        -0.0009
      8 C6          8.8631    2.6781    5.3612 C.3       1 <0>         0.0222
      9 C7          9.7762    3.4524    1.7899 C.3       1 <0>         0.0266
     10 C8          8.7879    2.5601    1.0842 C.ar      1 <0>        -0.1272
     11 C9          7.5022    3.0092    0.8434 C.ar      1 <0>        -0.0630
     12 C10         6.5958    2.1959    0.1923 C.ar      1 <0>        -0.0846
     13 C11         6.9731    0.9214   -0.2106 C.ar      1 <0>         0.2154
     14 C12         8.2646    0.4735    0.0326 C.ar      1 <0>        -0.0955
     15 C13         9.1683    1.2940    0.6793 C.ar      1 <0>        -0.1507
     16 C14        10.5702    0.8086    0.9441 C.3       1 <0>         0.5109
     17 F1         10.7250   -0.4786    0.4184 F         1 <0>        -0.1491
     18 F2         11.4860    1.6739    0.3362 F         1 <0>        -0.1584
     19 F3         10.8008    0.7797    2.3237 F         1 <0>        -0.1724
     20 N3          6.0552    0.0926   -0.8655 N.am      1 <0>        -0.6988
     21 C15         4.7513    0.1311   -0.5266 C.2       1 <0>         0.7114
     22 O1          4.3858    0.8194    0.4067 O.2       1 <0>        -0.5584
     23 N4          3.8526   -0.5934   -1.2222 N.am      1 <0>        -0.6858
     24 C16         2.4863   -0.4790   -0.9335 C.ar      1 <0>         0.1577
     25 C17         1.5516   -0.5518   -1.9576 C.ar      1 <0>        -0.1240
     26 C18         0.2052   -0.4394   -1.6724 C.ar      1 <0>        -0.0926
     27 C19        -0.2137   -0.2543   -0.3628 C.ar      1 <0>         0.0883
     28 C20         0.7198   -0.1815    0.6609 C.ar      1 <0>        -0.0957
     29 C21         2.0665   -0.2932    0.3769 C.ar      1 <0>        -0.1046
     30 O2         -1.5393   -0.1385   -0.0833 O.3       1 <0>        -0.2426
     31 C22        -2.3129   -1.2454   -0.1983 C.ar      1 <0>         0.3832
     32 C23        -3.6894   -1.1637   -0.0277 C.ar      1 <0>        -0.3126
     33 C24        -4.4409   -2.3284   -0.1601 C.ar      1 <0>         0.4635
     34 N5         -3.8165   -3.4721   -0.4341 N.ar      1 <0>        -0.5931
     35 C25        -2.5082   -3.5081   -0.5840 C.ar      1 <0>         0.3762
     36 N6         -1.7644   -2.4263   -0.4707 N.ar      1 <0>        -0.6049
     37 N7         -5.8178   -2.2988   -0.0034 N.pl3     1 <0>        -0.7212
     38 C26        -6.4937   -1.0344    0.2979 C.3       1 <0>         0.0887
     39 H1          9.0560    3.0401    9.2597 H         1 <0>         0.0714
     40 H2          8.0243    2.9380    7.7928 H         1 <0>         0.0562
     41 H3          8.8763    4.4695    8.1868 H         1 <0>         0.0696
     42 H4         11.0672    3.3441    7.8241 H         1 <0>         0.0895
     43 H5         10.2153    1.8126    7.4301 H         1 <0>         0.0455
     44 H6         12.0665    3.6630    5.7442 H         1 <0>         0.1253
     45 H7         11.4577    2.0621    5.2031 H         1 <0>         0.0582
     46 H8         10.8699    4.7665    3.8728 H         1 <0>         0.1369
     47 H9         11.9796    3.4990    3.2494 H         1 <0>         0.1329
     48 H10         8.4684    4.3007    3.9867 H         1 <0>         0.1355
     49 H11         7.8594    2.6998    3.4455 H         1 <0>         0.1312
     50 H12         9.0569    1.5962    5.3178 H         1 <0>         0.0572
     51 H13         7.9470    2.8635    5.9412 H         1 <0>         0.1266
     52 H14         9.4106    4.4897    1.7732 H         1 <0>         0.1472
     53 H15        10.7489    3.3982    1.2791 H         1 <0>         0.1420
     54 H16         7.2082    3.9988    1.1607 H         1 <0>         0.1512
     55 H17         5.5933    2.5489    0.0003 H         1 <0>         0.1583
     56 H18         8.5625   -0.5152   -0.2838 H         1 <0>         0.1556
     57 H19         6.3979   -0.5903   -1.6569 H         1 <0>         0.4440
     58 H20         4.1917   -1.2745   -2.0166 H         1 <0>         0.4371
     59 H21         1.8775   -0.6959   -2.9771 H         1 <0>         0.1338
     60 H22        -0.5220   -0.4960   -2.4689 H         1 <0>         0.1313
     61 H23         0.3932   -0.0371    1.6801 H         1 <0>         0.1341
     62 H24         2.7931   -0.2369    1.1740 H         1 <0>         0.1440
     63 H25        -4.1646   -0.2205    0.1982 H         1 <0>         0.1470
     64 H26        -2.0315   -4.4515   -0.8058 H         1 <0>         0.2001
     65 H27        -6.4030   -3.2246   -0.1053 H         1 <0>         0.4380
     66 H28        -7.5762   -1.2091    0.3856 H         1 <0>         0.0868
     67 H29        -6.3028   -0.3146   -0.5117 H         1 <0>         0.0604
     68 H30        -6.1096   -0.6302    1.2461 H         1 <0>         0.0603
     69 H31        10.1379    1.9295    3.1711 H         1 <0>         0.4253
@<TRIPOS>BOND
     1    1    2 1
     2    1   39 1
     3    1   40 1
     4    1   41 1
     5    2    3 1
     6    2   42 1
     7    2   43 1
     8    3    8 1
     9    3    4 1
    10    4    5 1
    11    4   44 1
    12    4   45 1
    13    5    6 1
    14    5   46 1
    15    5   47 1
    16    6    7 1
    17    6    9 1
    18    6   69 1
    19    7    8 1
    20    7   48 1
    21    7   49 1
    22    8   50 1
    23    8   51 1
    24    9   10 1
    25    9   52 1
    26    9   53 1
    27   10   15 ar
    28   10   11 ar
    29   11   12 ar
    30   11   54 1
    31   12   13 ar
    32   12   55 1
    33   13   14 ar
    34   13   20 1
    35   14   15 ar
    36   14   56 1
    37   15   16 1
    38   16   17 1
    39   16   18 1
    40   16   19 1
    41   20   21 am
    42   20   57 1
    43   21   22 2
    44   21   23 am
    45   23   24 1
    46   23   58 1
    47   24   29 ar
    48   24   25 ar
    49   25   26 ar
    50   25   59 1
    51   26   27 ar
    52   26   60 1
    53   27   28 ar
    54   27   30 1
    55   28   29 ar
    56   28   61 1
    57   29   62 1
    58   30   31 1
    59   31   36 ar
    60   31   32 ar
    61   32   33 ar
    62   32   63 1
    63   33   34 ar
    64   33   37 1
    65   34   35 ar
    66   35   36 ar
    67   35   64 1
    68   37   38 1
    69   37   65 1
    70   38   66 1
    71   38   67 1
    72   38   68 1
@<TRIPOS>MOLECULE
ZINC23247639
   68    71     0     0     0
SMALL
USER_CHARGES
1-[4-[(4-ethylpiperazin-1-yl)methyl]-3-(trifluoromethyl)phenyl]-3-[4-(6-methylaminopyrimidin-4-yl)oxyphenyl]urea
@<TRIPOS>ATOM
      1 C1          8.9417    3.3719    8.2172 C.3       1 <0>        -0.1510
      2 C2         10.1498    2.9102    7.3997 C.3       1 <0>         0.0499
      3 N1          9.9972    3.3533    6.0075 N.3       1 <0>        -0.5402
      4 C3         11.2367    3.1387    5.2477 C.3       1 <0>         0.0569
      5 C4         11.0629    3.6845    3.8284 C.3       1 <0>         0.0590
      6 N2          9.9288    3.0094    3.1822 N.3       1 <0>        -0.5268
      7 C5          8.6893    3.2240    3.9420 C.3       1 <0>         0.0561
      8 C6          8.8631    2.6781    5.3612 C.3       1 <0>         0.0550
      9 C7          9.7762    3.4524    1.7899 C.3       1 <0>         0.0729
     10 C8          8.7879    2.5601    1.0842 C.ar      1 <0>        -0.0447
     11 C9          7.5022    3.0092    0.8434 C.ar      1 <0>        -0.0942
     12 C10         6.5958    2.1959    0.1923 C.ar      1 <0>        -0.0884
     13 C11         6.9731    0.9214   -0.2106 C.ar      1 <0>         0.1720
     14 C12         8.2646    0.4735    0.0326 C.ar      1 <0>        -0.1038
     15 C13         9.1683    1.2940    0.6793 C.ar      1 <0>        -0.1404
     16 C14        10.5702    0.8086    0.9441 C.3       1 <0>         0.5095
     17 F1         10.7250   -0.4786    0.4184 F         1 <0>        -0.1841
     18 F2         11.4860    1.6739    0.3362 F         1 <0>        -0.1795
     19 F3         10.8008    0.7797    2.3237 F         1 <0>        -0.1519
     20 N3          6.0552    0.0926   -0.8655 N.am      1 <0>        -0.6948
     21 C15         4.7513    0.1311   -0.5266 C.2       1 <0>         0.7096
     22 O1          4.3858    0.8194    0.4067 O.2       1 <0>        -0.5587
     23 N4          3.8526   -0.5934   -1.2222 N.am      1 <0>        -0.6930
     24 C16         2.4863   -0.4790   -0.9335 C.ar      1 <0>         0.1697
     25 C17         1.5516   -0.5518   -1.9576 C.ar      1 <0>        -0.1297
     26 C18         0.2052   -0.4394   -1.6724 C.ar      1 <0>        -0.0930
     27 C19        -0.2137   -0.2543   -0.3628 C.ar      1 <0>         0.0783
     28 C20         0.7198   -0.1815    0.6609 C.ar      1 <0>        -0.0936
     29 C21         2.0665   -0.2932    0.3769 C.ar      1 <0>        -0.1059
     30 O2         -1.5393   -0.1385   -0.0833 O.3       1 <0>        -0.2412
     31 C22        -2.3129   -1.2454   -0.1983 C.ar      1 <0>         0.3851
     32 C23        -3.6894   -1.1637   -0.0277 C.ar      1 <0>        -0.3141
     33 C24        -4.4409   -2.3284   -0.1601 C.ar      1 <0>         0.4620
     34 N5         -3.8165   -3.4721   -0.4341 N.ar      1 <0>        -0.5954
     35 C25        -2.5082   -3.5081   -0.5840 C.ar      1 <0>         0.3753
     36 N6         -1.7644   -2.4263   -0.4707 N.ar      1 <0>        -0.6017
     37 N7         -5.8178   -2.2988   -0.0034 N.pl3     1 <0>        -0.7231
     38 C26        -6.4937   -1.0344    0.2979 C.3       1 <0>         0.0898
     39 H1          9.0560    3.0401    9.2597 H         1 <0>         0.0595
     40 H2          8.0243    2.9380    7.7928 H         1 <0>         0.0547
     41 H3          8.8763    4.4695    8.1868 H         1 <0>         0.0631
     42 H4         11.0672    3.3441    7.8241 H         1 <0>         0.0746
     43 H5         10.2153    1.8126    7.4301 H         1 <0>         0.0335
     44 H6         12.0665    3.6630    5.7442 H         1 <0>         0.0800
     45 H7         11.4577    2.0621    5.2031 H         1 <0>         0.0441
     46 H8         10.8699    4.7665    3.8728 H         1 <0>         0.0445
     47 H9         11.9796    3.4990    3.2494 H         1 <0>         0.0809
     48 H10         8.4684    4.3007    3.9867 H         1 <0>         0.0435
     49 H11         7.8594    2.6998    3.4455 H         1 <0>         0.0808
     50 H12         9.0569    1.5962    5.3178 H         1 <0>         0.0425
     51 H13         7.9470    2.8635    5.9412 H         1 <0>         0.0819
     52 H14         9.4106    4.4897    1.7732 H         1 <0>         0.0550
     53 H15        10.7489    3.3982    1.2791 H         1 <0>         0.0962
     54 H16         7.2082    3.9988    1.1607 H         1 <0>         0.1355
     55 H17         5.5933    2.5489    0.0003 H         1 <0>         0.1427
     56 H18         8.5625   -0.5152   -0.2838 H         1 <0>         0.1409
     57 H19         6.3979   -0.5903   -1.6569 H         1 <0>         0.4343
     58 H20         4.1917   -1.2745   -2.0166 H         1 <0>         0.4332
     59 H21         1.8775   -0.6959   -2.9771 H         1 <0>         0.1323
     60 H22        -0.5220   -0.4960   -2.4689 H         1 <0>         0.1282
     61 H23         0.3932   -0.0371    1.6801 H         1 <0>         0.1328
     62 H24         2.7931   -0.2369    1.1740 H         1 <0>         0.1466
     63 H25        -4.1646   -0.2205    0.1982 H         1 <0>         0.1463
     64 H26        -2.0315   -4.4515   -0.8058 H         1 <0>         0.1996
     65 H27        -6.4030   -3.2246   -0.1053 H         1 <0>         0.4362
     66 H28        -7.5762   -1.2091    0.3856 H         1 <0>         0.0851
     67 H29        -6.3028   -0.3146   -0.5117 H         1 <0>         0.0598
     68 H30        -6.1096   -0.6302    1.2461 H         1 <0>         0.0599
@<TRIPOS>BOND
     1    1    2 1
     2    1   39 1
     3    1   40 1
     4    1   41 1
     5    2    3 1
     6    2   42 1
     7    2   43 1
     8    3    8 1
     9    3    4 1
    10    4    5 1
    11    4   44 1
    12    4   45 1
    13    5    6 1
    14    5   46 1
    15    5   47 1
    16    6    7 1
    17    6    9 1
    18    7    8 1
    19    7   48 1
    20    7   49 1
    21    8   50 1
    22    8   51 1
    23    9   10 1
    24    9   52 1
    25    9   53 1
    26   10   15 ar
    27   10   11 ar
    28   11   12 ar
    29   11   54 1
    30   12   13 ar
    31   12   55 1
    32   13   14 ar
    33   13   20 1
    34   14   15 ar
    35   14   56 1
    36   15   16 1
    37   16   17 1
    38   16   18 1
    39   16   19 1
    40   20   21 am
    41   20   57 1
    42   21   22 2
    43   21   23 am
    44   23   24 1
    45   23   58 1
    46   24   29 ar
    47   24   25 ar
    48   25   26 ar
    49   25   59 1
    50   26   27 ar
    51   26   60 1
    52   27   28 ar
    53   27   30 1
    54   28   29 ar
    55   28   61 1
    56   29   62 1
    57   30   31 1
    58   31   36 ar
    59   31   32 ar
    60   32   33 ar
    61   32   63 1
    62   33   34 ar
    63   33   37 1
    64   34   35 ar
    65   35   36 ar
    66   35   64 1
    67   37   38 1
    68   37   65 1
    69   38   66 1
    70   38   67 1
    71   38   68 1
@<TRIPOS>MOLECULE
ZINC00602803
   57    59     0     0     0
SMALL
USER_CHARGES

@<TRIPOS>ATOM
      1 C1         -1.3402   -4.8618    1.2145 C.3       1 <0>        -0.1534
      2 C2         -0.8181   -3.6495    0.4408 C.3       1 <0>         0.0511
      3 O1         -0.7742   -2.5142    1.3074 O.3       1 <0>        -0.3148
      4 C3         -0.3304   -1.3470    0.7727 C.ar      1 <0>         0.1525
      5 C4          0.0498   -1.3049   -0.5488 C.ar      1 <0>        -0.1831
      6 C5          0.5092   -0.1023   -1.1071 C.ar      1 <0>         0.1876
      7 C6          0.5748    1.0570   -0.2965 C.ar      1 <0>        -0.1304
      8 C7          0.1883    0.9932    1.0499 C.ar      1 <0>        -0.0592
      9 C8         -0.2650   -0.1967    1.5740 C.ar      1 <0>         0.1185
     10 N1         -0.6575   -0.2608    2.9161 N.am      1 <0>        -0.6449
     11 C9         -0.1566    0.6173    3.8075 C.2       1 <0>         0.5328
     12 O2          0.7152    1.3957    3.4703 O.2       1 <0>        -0.5071
     13 C10        -0.6641    0.6344    5.1877 C.2       1 <0>        -0.1271
     14 C11        -0.1697    1.5011    6.0673 C.2       1 <0>        -0.1492
     15 C12        -0.6897    1.5186    7.4817 C.3       1 <0>         0.0302
     16 C13         1.3312    2.5206    8.3617 C.3       1 <0>        -0.0486
     17 C14        -0.0528    1.1357    9.7861 C.3       1 <0>        -0.0433
     18 C15         1.0386    2.2666   -0.8642 C.ar      1 <0>         0.2844
     19 C16         1.4144    2.2536   -2.2161 C.ar      1 <0>        -0.1029
     20 C17         1.3165    1.0573   -2.9447 C.ar      1 <0>         0.2010
     21 N2          0.8834   -0.0478   -2.3940 N.ar      1 <0>        -0.4743
     22 C18         1.8922    3.4476   -2.8459 C.1       1 <0>         0.2469
     23 N3          2.2712    4.3948   -3.3456 N.1       1 <0>        -0.3851
     24 N4          1.1194    3.4219   -0.1130 N.pl3     1 <0>        -0.6979
     25 C19         2.3677    3.9814    0.1773 C.ar      1 <0>         0.1846
     26 C20         3.4715    3.1592    0.3659 C.ar      1 <0>        -0.1231
     27 C21         4.7048    3.7137    0.6463 C.ar      1 <0>        -0.1069
     28 C22         4.8398    5.0877    0.7520 C.ar      1 <0>         0.0844
     29 C23         3.7394    5.9099    0.5700 C.ar      1 <0>        -0.0407
     30 C24         2.5044    5.3592    0.2831 C.ar      1 <0>        -0.1222
     31 Cl1         3.9119    7.6322    0.7020 Cl        1 <0>        -0.0373
     32 F1          6.0462    5.6274    1.0324 F         1 <0>        -0.1244
     33 H1         -2.3423   -4.6506    1.5877 H         1 <0>         0.0676
     34 H2         -1.3737   -5.7279    0.5535 H         1 <0>         0.0859
     35 H3         -0.6765   -5.0706    2.0536 H         1 <0>         0.0665
     36 H4         -1.4818   -3.4407   -0.3983 H         1 <0>         0.0727
     37 H5          0.1840   -3.8607    0.0676 H         1 <0>         0.0719
     38 H6         -0.0049   -2.1965   -1.1558 H         1 <0>         0.1557
     39 H7          0.2375    1.8756    1.6707 H         1 <0>         0.1646
     40 H8         -1.2900   -0.9373    3.2047 H         1 <0>         0.4221
     41 H9         -1.4381   -0.0567    5.4870 H         1 <0>         0.1454
     42 H10         0.6043    2.1922    5.7680 H         1 <0>         0.1533
     43 H11        -1.1915    2.4672    7.6726 H         1 <0>         0.1468
     44 H12        -1.3959    0.6999    7.6193 H         1 <0>         0.1366
     45 H13         0.7789    3.4221    8.6269 H         1 <0>         0.1257
     46 H14         2.1523    2.3777    9.0642 H         1 <0>         0.1250
     47 H15         1.7302    2.6227    7.3524 H         1 <0>         0.1232
     48 H16        -0.6601    0.2309    9.8124 H         1 <0>         0.1226
     49 H17         0.7976    1.0222   10.4584 H         1 <0>         0.1252
     50 H18        -0.6553    1.9870   10.1029 H         1 <0>         0.1250
     51 H19         1.6056    1.0492   -3.9853 H         1 <0>         0.1765
     52 H20         0.3102    3.8456    0.2136 H         1 <0>         0.4201
     53 H21         3.3660    2.0871    0.2888 H         1 <0>         0.1375
     54 H22         5.5639    3.0747    0.7881 H         1 <0>         0.1500
     55 H23         1.6466    6.0000    0.1416 H         1 <0>         0.1457
     56 N5          0.4465    1.3376    8.4096 N.4       1 <0>        -0.3970
     57 H24         0.9816    0.5092    8.1241 H         1 <0>         0.4334
@<TRIPOS>BOND
     1    1    2 1
     2    1   33 1
     3    1   34 1
     4    1   35 1
     5    2    3 1
     6    2   36 1
     7    2   37 1
     8    3    4 1
     9    4    9 ar
    10    4    5 ar
    11    5    6 ar
    12    5   38 1
    13    6   21 ar
    14    6    7 ar
    15    7    8 ar
    16    7   18 ar
    17    8    9 ar
    18    8   39 1
    19    9   10 1
    20   10   11 am
    21   10   40 1
    22   11   12 2
    23   11   13 1
    24   13   14 2
    25   13   41 1
    26   14   15 1
    27   14   42 1
    28   15   43 1
    29   15   44 1
    30   15   56 1
    31   16   45 1
    32   16   46 1
    33   16   47 1
    34   16   56 1
    35   17   48 1
    36   17   49 1
    37   17   50 1
    38   17   56 1
    39   18   19 ar
    40   18   24 1
    41   19   20 ar
    42   19   22 1
    43   20   21 ar
    44   20   51 1
    45   22   23 3
    46   24   25 1
    47   24   52 1
    48   25   30 ar
    49   25   26 ar
    50   26   27 ar
    51   26   53 1
    52   27   28 ar
    53   27   54 1
    54   28   29 ar
    55   28   32 1
    56   29   30 ar
    57   29   31 1
    58   30   55 1
    59   56   57 1
