@<TRIPOS>MOLECULE
ZINC03157191
   28    28     0     0     0
SMALL
USER_CHARGES
3,3,3-trifluoro-N-(o-tolyl)-2-(trifluoromethyl)propanamide
@<TRIPOS>ATOM
      1 C1         -3.6708    3.2495   -0.1642 C.3       1 <0>        -0.1202
      2 C2         -3.5958    1.7443   -0.1642 C.ar      1 <0>        -0.1070
      3 C3         -4.7523    0.9944   -0.2548 C.ar      1 <0>        -0.0997
      4 C4         -4.6842   -0.3865   -0.2557 C.ar      1 <0>        -0.1252
      5 C5         -3.4589   -1.0215   -0.1656 C.ar      1 <0>        -0.1030
      6 C6         -2.2987   -0.2775   -0.0797 C.ar      1 <0>        -0.1234
      7 C7         -2.3640    1.1099   -0.0736 C.ar      1 <0>         0.1356
      8 N1         -1.1906    1.8666    0.0178 N.am      1 <0>        -0.6532
      9 C8         -0.0892    1.3363    0.5854 C.2       1 <0>         0.5241
     10 O1         -0.1422    0.2420    1.1058 O.2       1 <0>        -0.4667
     11 C9          1.2097    2.1003    0.5681 C.3       1 <0>        -0.2296
     12 C10         1.0280    3.4318    1.2995 C.3       1 <0>         0.4728
     13 F1          0.6478    3.1884    2.6237 F         1 <0>        -0.1546
     14 F2          2.2337    4.1410    1.2834 F         1 <0>        -0.1531
     15 F3          0.0362    4.1835    0.6602 F         1 <0>        -0.1642
     16 C11         2.2943    1.2782    1.2672 C.3       1 <0>         0.4852
     17 F4          2.4604    0.0607    0.5984 F         1 <0>        -0.1534
     18 F5          3.5000    1.9875    1.2511 F         1 <0>        -0.1611
     19 F6          1.9141    1.0348    2.5914 F         1 <0>        -0.1537
     20 H1         -3.6115    3.6162   -1.1889 H         1 <0>         0.0748
     21 H2         -4.6139    3.5662    0.2811 H         1 <0>         0.0768
     22 H3         -2.8412    3.6546    0.4153 H         1 <0>         0.0625
     23 H4         -5.7106    1.4873   -0.3252 H         1 <0>         0.1295
     24 H5         -5.5898   -0.9706   -0.3274 H         1 <0>         0.1266
     25 H6         -3.4090   -2.1003   -0.1667 H         1 <0>         0.1289
     26 H7         -1.3418   -0.7739   -0.0138 H         1 <0>         0.1453
     27 H8         -1.1698    2.7729   -0.3273 H         1 <0>         0.4167
     28 H9          1.5059    2.2899   -0.4636 H         1 <0>         0.1892
@<TRIPOS>BOND
     1    1    2 1
     2    1   20 1
     3    1   21 1
     4    1   22 1
     5    2    7 ar
     6    2    3 ar
     7    3    4 ar
     8    3   23 1
     9    4    5 ar
    10    4   24 1
    11    5    6 ar
    12    5   25 1
    13    6    7 ar
    14    6   26 1
    15    7    8 1
    16    8    9 am
    17    8   27 1
    18    9   10 2
    19    9   11 1
    20   11   12 1
    21   11   16 1
    22   11   28 1
    23   12   13 1
    24   12   14 1
    25   12   15 1
    26   16   17 1
    27   16   18 1
    28   16   19 1
@<TRIPOS>MOLECULE
ZINC00150351
   27    27     0     0     0
SMALL
USER_CHARGES
N-(aminocarbamoylmethyl)-2-nitro-benzamide
@<TRIPOS>ATOM
      1 C1          0.3439   -2.2564    1.0276 C.ar      1 <0>        -0.0693
      2 C2          1.1771   -2.1408   -0.0713 C.ar      1 <0>        -0.0974
      3 C3          0.8513   -1.2833   -1.1068 C.ar      1 <0>        -0.0566
      4 C4         -0.3026   -0.5294   -1.0451 C.ar      1 <0>        -0.0072
      5 C5         -1.1472   -0.6412    0.0602 C.ar      1 <0>        -0.0667
      6 C6         -0.8153   -1.5124    1.0993 C.ar      1 <0>        -0.0870
      7 C7         -2.3884    0.1590    0.1301 C.2       1 <0>         0.5612
      8 O1         -2.3387    1.3685    0.0200 O.2       1 <0>        -0.4935
      9 N1         -3.5750   -0.4526    0.3161 N.am      1 <0>        -0.7081
     10 C8         -4.8048    0.3404    0.3854 C.3       1 <0>         0.1074
     11 C9         -5.9823   -0.5762    0.5966 C.2       1 <0>         0.5112
     12 O2         -5.8109   -1.7738    0.6810 O.2       1 <0>        -0.5256
     13 N2         -7.2257   -0.0649    0.6918 N.am      1 <0>        -0.5714
     14 N3         -8.2929   -0.8958    0.8833 N.3       1 <0>        -0.6019
     15 N4         -0.6470    0.3914   -2.1516 N.pl3     1 <0>         0.0204
     16 O3          0.1434    0.5744   -3.0600 O.2       1 <0>        -0.1611
     17 O4         -1.7230    0.9623   -2.1563 O.3       1 <0>        -0.1247
     18 H1          0.6017   -2.9310    1.8306 H         1 <0>         0.1525
     19 H2          2.0836   -2.7257   -0.1225 H         1 <0>         0.1545
     20 H3          1.5038   -1.2007   -1.9635 H         1 <0>         0.1612
     21 H4         -1.4649   -1.6038    1.9572 H         1 <0>         0.1541
     22 H5         -3.6146   -1.4178    0.4040 H         1 <0>         0.4137
     23 H6         -4.7378    1.0431    1.2159 H         1 <0>         0.1073
     24 H7         -4.9354    0.8907   -0.5464 H         1 <0>         0.1089
     25 H8         -7.3627    0.8930    0.6244 H         1 <0>         0.4065
     26 H9         -9.1540   -0.3723    0.9346 H         1 <0>         0.3621
     27 H10        -8.3390   -1.5978    0.1600 H         1 <0>         0.3496
@<TRIPOS>BOND
     1    1    6 ar
     2    1    2 ar
     3    1   18 1
     4    2    3 ar
     5    2   19 1
     6    3    4 ar
     7    3   20 1
     8    4    5 ar
     9    4   15 1
    10    5    6 ar
    11    5    7 1
    12    6   21 1
    13    7    8 2
    14    7    9 am
    15    9   10 1
    16    9   22 1
    17   10   11 1
    18   10   23 1
    19   10   24 1
    20   11   12 2
    21   11   13 am
    22   13   14 1
    23   13   25 1
    24   14   26 1
    25   14   27 1
    26   15   16 2
    27   15   17 1
@<TRIPOS>MOLECULE
ZINC02455295
   28    28     0     0     0
SMALL
USER_CHARGES
N-(aminocarbamoylmethyl)-2-(trifluoromethyl)benzamide
@<TRIPOS>ATOM
      1 C1         -3.6308   -1.2284    0.0112 C.ar      1 <0>        -0.0941
      2 C2         -4.8367   -0.5498    0.0206 C.ar      1 <0>        -0.0918
      3 C3         -4.8590    0.8334    0.0291 C.ar      1 <0>        -0.0806
      4 C4         -3.6772    1.5454    0.0279 C.ar      1 <0>        -0.1287
      5 C5         -2.4575    0.8672    0.0184 C.ar      1 <0>        -0.0900
      6 C6         -2.4421   -0.5286    0.0049 C.ar      1 <0>        -0.0858
      7 C7         -1.1873    1.6238    0.0165 C.2       1 <0>         0.5540
      8 O1         -1.2038    2.8392    0.0232 O.2       1 <0>        -0.5131
      9 N1         -0.0111    0.9658    0.0074 N.am      1 <0>        -0.7100
     10 C8          1.2475    1.7155   -0.0006 C.3       1 <0>         0.1071
     11 C9          2.4061    0.7519   -0.0169 C.2       1 <0>         0.5109
     12 O2          2.2007   -0.4434   -0.0213 O.2       1 <0>        -0.5251
     13 N2          3.6705    1.2184   -0.0264 N.am      1 <0>        -0.5714
     14 N3          4.7207    0.3450   -0.0412 N.3       1 <0>        -0.6018
     15 C10        -3.7033    3.0522    0.0362 C.3       1 <0>         0.5154
     16 F1         -5.0302    3.4955    0.0449 F         1 <0>        -0.1835
     17 F2         -3.0466    3.5237    1.1780 F         1 <0>        -0.1644
     18 F3         -3.0575    3.5361   -1.1065 F         1 <0>        -0.1647
     19 H1         -3.6202   -2.3084    0.0042 H         1 <0>         0.1424
     20 H2         -5.7646   -1.1025    0.0209 H         1 <0>         0.1428
     21 H3         -5.8035    1.3570    0.0365 H         1 <0>         0.1476
     22 H4         -1.5016   -1.0594   -0.0069 H         1 <0>         0.1405
     23 H5          0.0021   -0.0041    0.0020 H         1 <0>         0.4130
     24 H6          1.2883    2.3477   -0.8877 H         1 <0>         0.1053
     25 H7          1.3053    2.3381    0.8922 H         1 <0>         0.1078
     26 H8          3.8348    2.1744   -0.0229 H         1 <0>         0.4062
     27 H9          4.6548   -0.2865   -0.8253 H         1 <0>         0.3496
     28 H10         5.6010    0.8380   -0.0469 H         1 <0>         0.3622
@<TRIPOS>BOND
     1    1    6 ar
     2    1    2 ar
     3    1   19 1
     4    2    3 ar
     5    2   20 1
     6    3    4 ar
     7    3   21 1
     8    4    5 ar
     9    4   15 1
    10    5    6 ar
    11    5    7 1
    12    6   22 1
    13    7    8 2
    14    7    9 am
    15    9   10 1
    16    9   23 1
    17   10   11 1
    18   10   24 1
    19   10   25 1
    20   11   12 2
    21   11   13 am
    22   13   14 1
    23   13   26 1
    24   14   27 1
    25   14   28 1
    26   15   16 1
    27   15   17 1
    28   15   18 1
@<TRIPOS>MOLECULE
ZINC03073566
   29    29     0     0     0
SMALL
USER_CHARGES
N-(2-hydrazino-2-oxo-ethyl)-3,5-dinitro-benzamide
@<TRIPOS>ATOM
      1 C1          2.3966    0.0113   -0.0212 C.ar      1 <0>         0.0479
      2 C2          2.3848    1.4070   -0.0136 C.ar      1 <0>        -0.1237
      3 C3          1.1667    2.0884    0.0021 C.ar      1 <0>         0.0199
      4 C4         -0.0167    1.3794    0.0096 C.ar      1 <0>        -0.0449
      5 C5          0.0021   -0.0041    0.0020 C.ar      1 <0>         0.0284
      6 C6          1.2061   -0.6856   -0.0131 C.ar      1 <0>        -0.0462
      7 N1          1.2167   -2.1658   -0.0212 N.pl3     1 <0>         0.0235
      8 O1          0.1663   -2.7824   -0.0145 O.2       1 <0>        -0.1310
      9 O2          2.2758   -2.7671   -0.0345 O.3       1 <0>        -0.1276
     10 N2         -1.3094    2.1003    0.0196 N.pl3     1 <0>         0.0231
     11 O3         -2.3550    1.4757    0.0212 O.2       1 <0>        -0.1299
     12 O4         -1.3274    3.3182    0.0264 O.3       1 <0>        -0.1295
     13 C7          3.6569    2.1603   -0.0226 C.2       1 <0>         0.5707
     14 O5          4.7161    1.5642   -0.0367 O.2       1 <0>        -0.5090
     15 N3          3.6420    3.5080   -0.0152 N.am      1 <0>        -0.7080
     16 C8          4.9026    4.2544   -0.0242 C.3       1 <0>         0.1056
     17 C9          4.6109    5.7329   -0.0133 C.2       1 <0>         0.5087
     18 O6          3.4631    6.1245    0.0006 O.2       1 <0>        -0.5220
     19 N4          5.6256    6.6200   -0.0190 N.am      1 <0>        -0.5692
     20 N5          5.3612    7.9601   -0.0091 N.3       1 <0>        -0.6014
     21 H1          3.3358   -0.5219   -0.0337 H         1 <0>         0.1886
     22 H2          1.1508    3.1682    0.0077 H         1 <0>         0.1777
     23 H3         -0.9272   -0.5544    0.0083 H         1 <0>         0.1910
     24 H4          2.7968    3.9836   -0.0040 H         1 <0>         0.4145
     25 H5          5.4861    3.9927    0.8584 H         1 <0>         0.1120
     26 H6          5.4678    4.0022   -0.9214 H         1 <0>         0.1096
     27 H7          6.5435    6.3068   -0.0301 H         1 <0>         0.4065
     28 H8          6.2153    8.4972   -0.0150 H         1 <0>         0.3635
     29 H9          4.7670    8.2172   -0.7830 H         1 <0>         0.3510
@<TRIPOS>BOND
     1    1    6 ar
     2    1    2 ar
     3    1   21 1
     4    2    3 ar
     5    2   13 1
     6    3    4 ar
     7    3   22 1
     8    4    5 ar
     9    4   10 1
    10    5    6 ar
    11    5   23 1
    12    6    7 1
    13    7    8 2
    14    7    9 1
    15   10   11 2
    16   10   12 1
    17   13   14 2
    18   13   15 am
    19   15   16 1
    20   15   24 1
    21   16   17 1
    22   16   25 1
    23   16   26 1
    24   17   18 2
    25   17   19 am
    26   19   20 1
    27   19   27 1
    28   20   28 1
    29   20   29 1
@<TRIPOS>MOLECULE
ZINC08637042
   44    47     0     0     0
SMALL
USER_CHARGES
(2-bromophenyl)methyl 9-hydroxyimino-2,7-dinitro-fluorene-4-carboxylate
@<TRIPOS>ATOM
      1 C1          0.6731    2.0513   -3.1872 C.ar      1 <0>        -0.0998
      2 C2         -0.5057    2.7655   -3.2960 C.ar      1 <0>        -0.1081
      3 C3         -0.6816    3.9246   -2.5642 C.ar      1 <0>        -0.0853
      4 C4          0.3262    4.3758   -1.7307 C.ar      1 <0>        -0.0862
      5 C5          1.5073    3.6638   -1.6262 C.ar      1 <0>        -0.0720
      6 C6          1.6803    2.5017   -2.3546 C.ar      1 <0>        -0.0944
      7 C7          2.6056    4.1551   -0.7188 C.3       1 <0>         0.1063
      8 O1          3.7324    3.2416   -0.7844 O.3       1 <0>        -0.3386
      9 C8          4.8059    3.5389   -0.0261 C.2       1 <0>         0.5173
     10 O2          4.8005    4.5341    0.6708 O.2       1 <0>        -0.4726
     11 C9          5.9875    2.6560   -0.0420 C.ar      1 <0>        -0.0816
     12 C10         5.8311    1.2723    0.0635 C.ar      1 <0>         0.0113
     13 C11         6.9340    0.4436    0.0430 C.ar      1 <0>        -0.0391
     14 C12         8.2078    0.9723   -0.0706 C.ar      1 <0>         0.0202
     15 C13         8.3889    2.3475   -0.1712 C.ar      1 <0>        -0.0415
     16 C14         7.2773    3.2038   -0.1578 C.ar      1 <0>         0.0577
     17 C15         7.7494    4.6000   -0.2774 C.ar      1 <0>        -0.0168
     18 C16         7.0650    5.8136   -0.3130 C.ar      1 <0>        -0.0703
     19 C17         7.7654    6.9978   -0.4326 C.ar      1 <0>        -0.0378
     20 C18         9.1470    6.9909   -0.5178 C.ar      1 <0>        -0.0272
     21 C19         9.8422    5.7970   -0.4841 C.ar      1 <0>        -0.0080
     22 C20         9.1519    4.5960   -0.3640 C.ar      1 <0>        -0.0815
     23 C21         9.6048    3.1860   -0.3009 C.2       1 <0>         0.1993
     24 N1         10.8349    2.7645   -0.3503 N.2       1 <0>        -0.2564
     25 O3         11.8969    3.6926   -0.4762 O.3       1 <0>        -0.3723
     26 N2          9.8833    8.2686   -0.6461 N.pl3     1 <0>         0.0239
     27 O4         11.0990    8.2660   -0.7217 O.2       1 <0>        -0.1455
     28 O5          9.2736    9.3225   -0.6762 O.3       1 <0>        -0.1431
     29 N3          6.7537   -1.0217    0.1495 N.pl3     1 <0>         0.0251
     30 O6          7.7245   -1.7572    0.1370 O.2       1 <0>        -0.1384
     31 O7          5.6347   -1.4919    0.2497 O.3       1 <0>        -0.1377
     32 Br1         0.0887    5.9652   -0.7341 Br        1 <0>        -0.0410
     33 H1          0.8088    1.1435   -3.7564 H         1 <0>         0.1348
     34 H2         -1.2906    2.4156   -3.9501 H         1 <0>         0.1362
     35 H3         -1.6041    4.4803   -2.6461 H         1 <0>         0.1385
     36 H4          2.6027    1.9458   -2.2733 H         1 <0>         0.1408
     37 H5          2.9236    5.1477   -1.0377 H         1 <0>         0.0979
     38 H6          2.2363    4.2035    0.3055 H         1 <0>         0.1000
     39 H7          4.8420    0.8487    0.1570 H         1 <0>         0.1794
     40 H8          9.0644    0.3146   -0.0807 H         1 <0>         0.1768
     41 H9          5.9871    5.8279   -0.2475 H         1 <0>         0.1675
     42 H10         7.2313    7.9360   -0.4603 H         1 <0>         0.1695
     43 H11        10.9202    5.7969   -0.5505 H         1 <0>         0.1713
     44 H12        12.7736    3.2857   -0.5046 H         1 <0>         0.4216
@<TRIPOS>BOND
     1    1    6 ar
     2    1    2 ar
     3    1   33 1
     4    2    3 ar
     5    2   34 1
     6    3    4 ar
     7    3   35 1
     8    4    5 ar
     9    4   32 1
    10    5    6 ar
    11    5    7 1
    12    6   36 1
    13    7    8 1
    14    7   37 1
    15    7   38 1
    16    8    9 1
    17    9   10 2
    18    9   11 1
    19   11   16 ar
    20   11   12 ar
    21   12   13 ar
    22   12   39 1
    23   13   14 ar
    24   13   29 1
    25   14   15 ar
    26   14   40 1
    27   15   23 1
    28   15   16 ar
    29   16   17 1
    30   17   22 ar
    31   17   18 ar
    32   18   19 ar
    33   18   41 1
    34   19   20 ar
    35   19   42 1
    36   20   21 ar
    37   20   26 1
    38   21   22 ar
    39   21   43 1
    40   22   23 1
    41   23   24 2
    42   24   25 1
    43   25   44 1
    44   26   27 2
    45   26   28 1
    46   29   30 2
    47   29   31 1
@<TRIPOS>MOLECULE
ZINC00154720
   22    22     0     0     0
SMALL
USER_CHARGES

@<TRIPOS>ATOM
      1 C1         -0.0184    1.5028    0.0103 C.3       1 <0>        -0.1261
      2 C2          0.0021   -0.0041    0.0020 C.ar      1 <0>        -0.0274
      3 C3          0.0057   -0.6887   -1.1989 C.ar      1 <0>        -0.1443
      4 C4          0.0245   -2.0709   -1.2065 C.ar      1 <0>        -0.0155
      5 C5          0.0400   -2.7685   -0.0132 C.ar      1 <0>        -0.6700
      6 C6          0.0373   -2.0839    1.1877 C.ar      1 <0>        -0.0058
      7 C7          0.0229   -0.7016    1.1953 C.ar      1 <0>        -0.1438
      8 S1          0.0628   -4.5303   -0.0229 S.o2      1 <0>         2.7131
      9 O1         -0.4759   -4.9503    1.2232 O.2       1 <0>        -0.9563
     10 O2         -0.4897   -4.9367   -1.2674 O.2       1 <0>        -0.9522
     11 N1          1.6509   -4.9994   -0.0343 N.pl3     1 <0>        -0.9704
     12 N2          2.4791   -4.6312    0.9877 N.3       1 <0>        -0.5934
     13 H1          1.0042    1.8801    0.0026 H         1 <0>         0.0798
     14 H2         -0.5455    1.8639   -0.8728 H         1 <0>         0.0730
     15 H3         -0.5286    1.8543    0.9071 H         1 <0>         0.0732
     16 H4         -0.0064   -0.1436   -2.1312 H         1 <0>         0.1324
     17 H5          0.0266   -2.6057   -2.1448 H         1 <0>         0.1391
     18 H6          0.0491   -2.6289    2.1200 H         1 <0>         0.1396
     19 H7          0.0245   -0.1667    2.1335 H         1 <0>         0.1327
     20 H8          1.9930   -5.5357   -0.7666 H         1 <0>         0.4141
     21 H9          2.1104   -4.9308    1.8778 H         1 <0>         0.3439
     22 H10         3.4117   -4.9885    0.8439 H         1 <0>         0.3642
@<TRIPOS>BOND
     1    1    2 1
     2    1   13 1
     3    1   14 1
     4    1   15 1
     5    2    7 ar
     6    2    3 ar
     7    3    4 ar
     8    3   16 1
     9    4    5 ar
    10    4   17 1
    11    5    6 ar
    12    5    8 1
    13    6    7 ar
    14    6   18 1
    15    7   19 1
    16    8    9 2
    17    8   10 2
    18    8   11 1
    19   11   12 1
    20   11   20 1
    21   12   21 1
    22   12   22 1
@<TRIPOS>MOLECULE
ZINC00126122
   25    26     0     0     0
SMALL
USER_CHARGES

@<TRIPOS>ATOM
      1 C1         -0.0167    1.3785    0.0096 C.ar      1 <0>        -0.0679
      2 C2          1.1942    2.0586    0.0017 C.ar      1 <0>        -0.1593
      3 C3          2.3756    1.3415   -0.0134 C.ar      1 <0>         0.1090
      4 N1          2.3678    0.0238   -0.0209 N.ar      1 <0>        -0.4651
      5 C4          1.2319   -0.6654   -0.0137 C.ar      1 <0>         0.1880
      6 C5          0.0021   -0.0041    0.0020 C.ar      1 <0>        -0.1498
      7 C6          1.2701   -2.1416   -0.0230 C.2       1 <0>        -0.0728
      8 C7          2.3559   -2.9771   -0.0332 C.2       1 <0>        -0.1572
      9 C8          2.1444   -4.3372   -0.0407 C.2       1 <0>        -0.0016
     10 C9          0.8705   -4.8092   -0.0376 C.2       1 <0>        -0.7784
     11 S1         -0.0866   -3.3023   -0.0159 S.3       1 <0>         0.2134
     12 S2          0.3076   -6.4788   -0.0457 S.o2      1 <0>         2.7451
     13 O1         -1.0048   -6.4624   -0.5902 O.2       1 <0>        -0.9259
     14 O2          1.3554   -7.2579   -0.6066 O.2       1 <0>        -0.9419
     15 N2          0.1588   -6.9530    1.5339 N.pl3     1 <0>        -0.9653
     16 N3         -0.6921   -6.2871    2.3697 N.3       1 <0>        -0.5843
     17 H1         -0.9523    1.9176    0.0259 H         1 <0>         0.1450
     18 H2          1.2125    3.1384    0.0070 H         1 <0>         0.1438
     19 H3          3.3183    1.8685   -0.0196 H         1 <0>         0.1659
     20 H4         -0.9212   -0.5644    0.0078 H         1 <0>         0.1390
     21 H5          3.3587   -2.5761   -0.0358 H         1 <0>         0.1546
     22 H6          2.9807   -5.0206   -0.0491 H         1 <0>         0.1530
     23 H7          0.6758   -7.7037    1.8657 H         1 <0>         0.4146
     24 H8         -0.6763   -6.6874    3.2957 H         1 <0>         0.3650
     25 H9         -0.4743   -5.3023    2.3977 H         1 <0>         0.3331
@<TRIPOS>BOND
     1    1    6 ar
     2    1    2 ar
     3    1   17 1
     4    2    3 ar
     5    2   18 1
     6    3    4 ar
     7    3   19 1
     8    4    5 ar
     9    5    6 ar
    10    5    7 1
    11    6   20 1
    12    7   11 1
    13    7    8 2
    14    8    9 1
    15    8   21 1
    16    9   10 2
    17    9   22 1
    18   10   11 1
    19   10   12 1
    20   12   13 2
    21   12   14 2
    22   12   15 1
    23   15   16 1
    24   15   23 1
    25   16   24 1
    26   16   25 1
@<TRIPOS>MOLECULE
ZINC01324237
   19    19     0     0     0
SMALL
USER_CHARGES

@<TRIPOS>ATOM
      1 C1         -0.0167    1.3780    0.0096 C.ar      1 <0>        -0.0036
      2 C2          1.1706    2.0863    0.0021 C.ar      1 <0>        -0.1207
      3 C3          2.3780    1.4119   -0.0130 C.ar      1 <0>         0.0152
      4 C4          2.3968    0.0272   -0.0206 C.ar      1 <0>        -0.0557
      5 C5          1.2081   -0.6797   -0.0130 C.ar      1 <0>         0.0011
      6 C6          0.0021   -0.0041    0.0020 C.ar      1 <0>        -0.6061
      7 S1         -1.5120   -0.9052    0.0122 S.o2      1 <0>         2.6073
      8 O1         -1.2187   -2.1860    0.5533 O.2       1 <0>        -1.0091
      9 O2         -2.4924   -0.0458    0.5773 O.2       1 <0>        -1.0093
     10 N1         -1.9484   -1.1472   -1.5669 N.2       1 <0>        -1.0294
     11 N2         -3.0960   -1.8268   -1.8619 N.4       1 <0>        -0.3718
     12 Cl1         3.9115   -0.8207   -0.0401 Cl        1 <0>        -0.0377
     13 Cl2         3.8691    2.3008   -0.0231 Cl        1 <0>        -0.0346
     14 H1         -0.9593    1.9049    0.0259 H         1 <0>         0.1561
     15 H2          1.1552    3.1661    0.0076 H         1 <0>         0.1534
     16 H3          1.2220   -1.7596   -0.0193 H         1 <0>         0.1587
     17 H4         -3.0432   -2.7585   -1.4781 H         1 <0>         0.3765
     18 H5         -3.8858   -1.3426   -1.4622 H         1 <0>         0.3762
     19 H6         -3.2066   -1.8814   -2.8633 H         1 <0>         0.4336
@<TRIPOS>BOND
     1    1    6 ar
     2    1    2 ar
     3    1   14 1
     4    2    3 ar
     5    2   15 1
     6    3    4 ar
     7    3   13 1
     8    4    5 ar
     9    4   12 1
    10    5    6 ar
    11    5   16 1
    12    6    7 1
    13    7    8 2
    14    7    9 2
    15    7   10 1
    16   10   11 1
    17   11   17 1
    18   11   18 1
    19   11   19 1
@<TRIPOS>MOLECULE
ZINC01032576
   39    42     0     0     0
SMALL
USER_CHARGES
1-[3-(3,4-dichlorophenyl)isoxazol-5-yl]-2-[4-(2-thienyl)pyrimidin-2-yl]sulfanyl-ethanone
@<TRIPOS>ATOM
      1 C1          0.0754   12.5434    0.0690 C.2       1 <0>        -0.1680
      2 C2          0.1848   11.1723    0.0650 C.2       1 <0>        -0.0896
      3 C3         -0.9611   10.4196    0.0663 C.2       1 <0>        -0.1477
      4 S1         -2.2274   11.6780    0.0859 S.3       1 <0>         0.0877
      5 C4         -1.1605   13.1094    0.0842 C.2       1 <0>        -0.1505
      6 C5         -1.1091    8.9517    0.0597 C.ar      1 <0>         0.2830
      7 C6         -2.3814    8.3645    0.0692 C.ar      1 <0>        -0.2263
      8 C7         -2.4697    6.9858    0.0630 C.ar      1 <0>         0.1752
      9 N1         -1.3588    6.2645    0.0429 N.ar      1 <0>        -0.5333
     10 C8         -0.1668    6.8449    0.0396 C.ar      1 <0>         0.2944
     11 N2         -0.0344    8.1625    0.0451 N.ar      1 <0>        -0.4930
     12 S2          1.2785    5.8372    0.0202 S.3       1 <0>         0.0789
     13 C9          0.5168    4.1953    0.0193 C.3       1 <0>        -0.1621
     14 C10         1.5942    3.1418    0.0033 C.2       1 <0>         0.4617
     15 O1          2.7623    3.4689   -0.0065 O.2       1 <0>        -0.4001
     16 C11         1.2304    1.7203   -0.0005 C.2       1 <0>        -0.1039
     17 C12         2.0882    0.6524   -0.0144 C.2       1 <0>        -0.1274
     18 C13         1.2235   -0.4758   -0.0122 C.2       1 <0>         0.0482
     19 N3          0.0021   -0.0041    0.0020 N.2       1 <0>        -0.3204
     20 O2         -0.0143    1.2044    0.0087 O.3       1 <0>         0.1472
     21 C14         1.6253   -1.9047   -0.0244 C.ar      1 <0>        -0.0091
     22 C15         0.6540   -2.9038   -0.0208 C.ar      1 <0>        -0.0729
     23 C16         1.0316   -4.2309   -0.0327 C.ar      1 <0>        -0.0949
     24 C17         2.3735   -4.5712   -0.0478 C.ar      1 <0>        -0.0198
     25 C18         3.3433   -3.5819   -0.0510 C.ar      1 <0>        -0.0305
     26 C19         2.9744   -2.2508   -0.0454 C.ar      1 <0>        -0.0739
     27 Cl1         5.0241   -4.0157   -0.0699 Cl        1 <0>        -0.0352
     28 Cl2         2.8422   -6.2427   -0.0621 Cl        1 <0>        -0.0370
     29 H1          0.9603   13.1626    0.0645 H         1 <0>         0.1430
     30 H2          1.1549   10.6977    0.0582 H         1 <0>         0.1459
     31 H3         -1.4281   14.1557    0.0935 H         1 <0>         0.1940
     32 H4         -3.2720    8.9753    0.0814 H         1 <0>         0.1510
     33 H5         -3.4348    6.5010    0.0699 H         1 <0>         0.1792
     34 H6         -0.0591    4.0955   -0.7921 H         1 <0>         0.1247
     35 H7         -0.0934    4.0773    0.9147 H         1 <0>         0.1419
     36 H8          3.1681    0.6648   -0.0246 H         1 <0>         0.1907
     37 H9         -0.3932   -2.6398   -0.0090 H         1 <0>         0.1473
     38 H10         0.2791   -5.0055   -0.0299 H         1 <0>         0.1519
     39 H11         3.7307   -1.4799   -0.0528 H         1 <0>         0.1495
@<TRIPOS>BOND
     1    1    5 2
     2    1    2 1
     3    1   29 1
     4    2    3 2
     5    2   30 1
     6    3    4 1
     7    3    6 1
     8    4    5 1
     9    5   31 1
    10    6   11 ar
    11    6    7 ar
    12    7    8 ar
    13    7   32 1
    14    8    9 ar
    15    8   33 1
    16    9   10 ar
    17   10   11 ar
    18   10   12 1
    19   12   13 1
    20   13   14 1
    21   13   34 1
    22   13   35 1
    23   14   15 2
    24   14   16 1
    25   16   20 1
    26   16   17 2
    27   17   18 1
    28   17   36 1
    29   18   19 2
    30   18   21 1
    31   19   20 1
    32   21   26 ar
    33   21   22 ar
    34   22   23 ar
    35   22   37 1
    36   23   24 ar
    37   23   38 1
    38   24   25 ar
    39   24   28 1
    40   25   26 ar
    41   25   27 1
    42   26   39 1
@<TRIPOS>MOLECULE
ZINC01037556
   16    16     0     0     0
SMALL
USER_CHARGES

@<TRIPOS>ATOM
      1 C1         -0.0163    1.3509    0.0095 C.2       1 <0>        -0.0110
      2 C2          1.1836    2.0381    0.0017 C.2       1 <0>        -0.1713
      3 C3          2.3434    1.3347   -0.0131 C.2       1 <0>        -0.0962
      4 S1          1.7533   -0.3502   -0.0166 S.3       1 <0>         0.2174
      5 C4          0.0021   -0.0041    0.0020 C.2       1 <0>        -0.6941
      6 S2         -1.3516   -1.1319    0.0089 S.o2      1 <0>         2.6431
      7 O1         -0.8614   -2.3516    0.5485 O.2       1 <0>        -1.0059
      8 O2         -2.4555   -0.4381    0.5740 O.2       1 <0>        -1.0046
      9 N1         -1.7429   -1.4368   -1.5711 N.2       1 <0>        -1.0300
     10 N2         -2.7692   -2.2878   -1.8686 N.4       1 <0>        -0.3712
     11 Cl1         3.9774    1.9208   -0.0256 Cl        1 <0>         0.0303
     12 H1         -0.9542    1.8861    0.0257 H         1 <0>         0.1552
     13 H2          1.1971    3.1180    0.0070 H         1 <0>         0.1522
     14 H3         -2.8688   -2.3574   -2.8702 H         1 <0>         0.4338
     15 H4         -2.5712   -3.2003   -1.4860 H         1 <0>         0.3763
     16 H5         -3.6257   -1.9344   -1.4692 H         1 <0>         0.3760
@<TRIPOS>BOND
     1    1    5 2
     2    1    2 1
     3    1   12 1
     4    2    3 2
     5    2   13 1
     6    3    4 1
     7    3   11 1
     8    4    5 1
     9    5    6 1
    10    6    7 2
    11    6    8 2
    12    6    9 1
    13    9   10 1
    14   10   14 1
    15   10   15 1
    16   10   16 1
