@<TRIPOS>MOLECULE
ZINC13508995
   45    47     0     0     0
SMALL
USER_CHARGES

@<TRIPOS>ATOM
      1 C1         -0.0158    1.3119    0.0093 C.ar      1 <0>         0.3497
      2 N1          1.0888    2.0360    0.0026 N.ar      1 <0>        -0.5975
      3 C2          2.2875    1.4625   -0.0119 C.ar      1 <0>         0.5033
      4 C3          2.3582    0.0588   -0.0202 C.ar      1 <0>        -0.1040
      5 C4          1.1547   -0.6659   -0.0126 C.ar      1 <0>         0.3057
      6 N2          0.0021   -0.0041    0.0020 N.ar      1 <0>        -0.5419
      7 N3          1.5110   -1.9908   -0.0227 N.pl3     1 <0>        -0.4639
      8 C5          2.8729   -2.0476   -0.0358 C.2       1 <0>         0.2821
      9 N4          3.3680   -0.8441   -0.0343 N.2       1 <0>        -0.4709
     10 C6          0.5956   -3.1347   -0.0195 C.3       1 <0>         0.3056
     11 C7          0.2093   -3.5183   -1.4652 C.3       1 <0>         0.0376
     12 H1          0.9741   -3.1842   -2.1663 H         1 <0>         0.0814
     13 C8          0.1372   -5.0615   -1.4375 C.3       1 <0>         0.0471
     14 H2          0.8663   -5.4903   -2.1250 H         1 <0>         0.0936
     15 C9          0.4884   -5.4276    0.0216 C.3       1 <0>         0.0870
     16 H3         -0.4201   -5.5508    0.6111 H         1 <0>         0.1037
     17 O1          1.2558   -4.3054    0.5091 O.3       1 <0>        -0.3350
     18 C10         1.3265   -6.7070    0.0627 C.3       1 <0>         0.1424
     19 O2          1.5418   -7.0919    1.4219 O.3       1 <0>        -0.7633
     20 P1          2.3864   -8.3971    1.8404 P.3       1 <0>         2.2889
     21 O3          1.7937   -9.6404    1.1405 O.2       1 <0>        -1.1060
     22 O4          3.8593   -8.2171    1.4101 O.3       1 <0>        -1.1081
     23 O5          2.3139   -8.5943    3.4366 O.3       1 <0>        -1.1038
     24 P2          2.6584   -9.8138    4.4297 P.3       1 <0>         2.3682
     25 O6          4.1492  -10.1919    4.2832 O.2       1 <0>        -1.1108
     26 N5          2.3590   -9.3601    5.9770 N.pl3     1 <0>        -1.4840
     27 P3          2.6233  -10.4132    7.2061 P.3       1 <0>         2.2864
     28 O7          1.7430  -11.6674    7.0079 O.2       1 <0>        -1.1110
     29 O8          4.1121  -10.8258    7.2195 O.3       1 <0>        -1.1108
     30 O9          2.2486   -9.7102    8.6052 O.3       1 <0>        -0.9204
     31 O10         1.7802  -11.0334    4.0715 O.3       1 <0>        -1.1065
     32 O11        -1.1805   -5.5071   -1.7652 O.3       1 <0>        -0.5309
     33 O12        -1.0609   -2.9610   -1.8087 O.3       1 <0>        -0.5310
     34 N6          3.4393    2.2295   -0.0193 N.pl3     1 <0>        -0.8228
     35 H4         -0.9693    1.8187    0.0257 H         1 <0>         0.2007
     36 H5          3.4551   -2.9572   -0.0459 H         1 <0>         0.2319
     37 H6         -0.2954   -2.9051    0.5649 H         1 <0>         0.1213
     38 H7          0.7989   -7.5039   -0.4614 H         1 <0>         0.0793
     39 H8          2.2869   -6.5280   -0.4207 H         1 <0>         0.0609
     40 H9          2.0256   -8.4688    6.1652 H         1 <0>         0.3746
     41 H10         2.3807  -10.2765    9.3777 H         1 <0>         0.3966
     42 H11        -1.4734   -5.2513   -2.6506 H         1 <0>         0.3731
     43 H12        -1.3526   -3.1708   -2.7065 H         1 <0>         0.3772
     44 H13         3.3774    3.1975   -0.0138 H         1 <0>         0.4058
     45 H14         4.3085    1.7992   -0.0299 H         1 <0>         0.4184
@<TRIPOS>BOND
     1    1    6 ar
     2    1    2 ar
     3    1   35 1
     4    2    3 ar
     5    3    4 ar
     6    3   34 1
     7    4    9 1
     8    4    5 ar
     9    5    6 ar
    10    5    7 1
    11    7    8 1
    12    7   10 1
    13    8    9 2
    14    8   36 1
    15   10   17 1
    16   10   11 1
    17   10   37 1
    18   11   12 1
    19   11   13 1
    20   11   33 1
    21   13   14 1
    22   13   15 1
    23   13   32 1
    24   15   16 1
    25   15   17 1
    26   15   18 1
    27   18   19 1
    28   18   38 1
    29   18   39 1
    30   19   20 1
    31   20   21 2
    32   20   22 1
    33   20   23 1
    34   23   24 1
    35   24   25 2
    36   24   26 1
    37   24   31 1
    38   26   27 1
    39   26   40 1
    40   27   28 2
    41   27   29 1
    42   27   30 1
    43   30   41 1
    44   32   42 1
    45   33   43 1
    46   34   44 1
    47   34   45 1
@<TRIPOS>MOLECULE
ZINC13508995
   44    46     0     0     0
SMALL
USER_CHARGES

@<TRIPOS>ATOM
      1 C1         -0.0158    1.3119    0.0093 C.ar      1 <0>         0.3466
      2 N1          1.0888    2.0360    0.0026 N.ar      1 <0>        -0.5987
      3 C2          2.2875    1.4625   -0.0119 C.ar      1 <0>         0.5021
      4 C3          2.3582    0.0588   -0.0202 C.ar      1 <0>        -0.1028
      5 C4          1.1547   -0.6659   -0.0126 C.ar      1 <0>         0.3046
      6 N2          0.0021   -0.0041    0.0020 N.ar      1 <0>        -0.5398
      7 N3          1.5110   -1.9908   -0.0227 N.pl3     1 <0>        -0.4622
      8 C5          2.8729   -2.0476   -0.0358 C.2       1 <0>         0.2856
      9 N4          3.3680   -0.8441   -0.0343 N.2       1 <0>        -0.4728
     10 C6          0.5956   -3.1347   -0.0195 C.3       1 <0>         0.3038
     11 C7          0.2093   -3.5183   -1.4652 C.3       1 <0>         0.0381
     12 H1          0.9741   -3.1842   -2.1663 H         1 <0>         0.0804
     13 C8          0.1372   -5.0615   -1.4375 C.3       1 <0>         0.0475
     14 H2          0.8663   -5.4903   -2.1250 H         1 <0>         0.0934
     15 C9          0.4884   -5.4276    0.0216 C.3       1 <0>         0.0864
     16 H3         -0.4201   -5.5508    0.6111 H         1 <0>         0.1048
     17 O1          1.2558   -4.3054    0.5091 O.3       1 <0>        -0.3323
     18 C10         1.3265   -6.7070    0.0627 C.3       1 <0>         0.1421
     19 O2          1.5418   -7.0919    1.4219 O.3       1 <0>        -0.7607
     20 P1          2.3864   -8.3971    1.8404 P.3       1 <0>         2.2883
     21 O3          1.7937   -9.6404    1.1405 O.2       1 <0>        -1.1107
     22 O4          3.8593   -8.2171    1.4101 O.3       1 <0>        -1.1135
     23 O5          2.3139   -8.5943    3.4366 O.3       1 <0>        -1.1038
     24 P2          2.6584   -9.8138    4.4297 P.3       1 <0>         2.3720
     25 O6          4.1492  -10.1919    4.2832 O.2       1 <0>        -1.1267
     26 N5          2.3590   -9.3601    5.9770 N.pl3     1 <0>        -1.4882
     27 P3          2.6233  -10.4132    7.2061 P.3       1 <0>         2.2568
     28 O7          1.7307  -11.6850    7.0051 O.2       1 <0>        -1.2056
     29 O8          4.1330  -10.8316    7.2197 O.3       1 <0>        -1.2054
     30 O9          2.2586   -9.7291    8.5675 O.3       1 <0>        -1.2386
     31 O10         1.7802  -11.0334    4.0715 O.3       1 <0>        -1.1223
     32 O11        -1.1805   -5.5071   -1.7652 O.3       1 <0>        -0.5296
     33 O12        -1.0609   -2.9610   -1.8087 O.3       1 <0>        -0.5312
     34 N6          3.4393    2.2295   -0.0193 N.pl3     1 <0>        -0.8239
     35 H4         -0.9693    1.8187    0.0257 H         1 <0>         0.1997
     36 H5          3.4551   -2.9572   -0.0459 H         1 <0>         0.2331
     37 H6         -0.2954   -2.9051    0.5649 H         1 <0>         0.1216
     38 H7          0.7989   -7.5039   -0.4614 H         1 <0>         0.0776
     39 H8          2.2869   -6.5280   -0.4207 H         1 <0>         0.0585
     40 H9          2.0256   -8.4688    6.1652 H         1 <0>         0.3569
     41 H10        -1.4734   -5.2513   -2.6506 H         1 <0>         0.3705
     42 H11        -1.3526   -3.1708   -2.7065 H         1 <0>         0.3755
     43 H12         3.3774    3.1975   -0.0138 H         1 <0>         0.4045
     44 H13         4.3085    1.7992   -0.0299 H         1 <0>         0.4183
@<TRIPOS>BOND
     1    1    6 ar
     2    1    2 ar
     3    1   35 1
     4    2    3 ar
     5    3    4 ar
     6    3   34 1
     7    4    9 1
     8    4    5 ar
     9    5    6 ar
    10    5    7 1
    11    7    8 1
    12    7   10 1
    13    8    9 2
    14    8   36 1
    15   10   17 1
    16   10   11 1
    17   10   37 1
    18   11   12 1
    19   11   13 1
    20   11   33 1
    21   13   14 1
    22   13   15 1
    23   13   32 1
    24   15   16 1
    25   15   17 1
    26   15   18 1
    27   18   19 1
    28   18   38 1
    29   18   39 1
    30   19   20 1
    31   20   21 2
    32   20   22 1
    33   20   23 1
    34   23   24 1
    35   24   25 2
    36   24   26 1
    37   24   31 1
    38   26   27 1
    39   26   40 1
    40   27   28 2
    41   27   29 1
    42   27   30 1
    43   32   41 1
    44   33   42 1
    45   34   43 1
    46   34   44 1
