@<TRIPOS>MOLECULE
ZINC03794711
   37    37     0     0     0
SMALL
USER_CHARGES

@<TRIPOS>ATOM
      1 C1         -0.5626    1.3318    0.0235 C.3       1 <0>        -0.1592
      2 C2         -0.3431   -0.1823    0.0355 C.3       1 <0>        -0.1202
      3 C3          0.4110   -0.5984   -1.2291 C.3       1 <0>        -0.1495
      4 C4          0.6305   -2.1125   -1.2171 C.3       1 <0>        -0.0135
      5 N1          1.3545   -2.5120   -2.4312 N.4       1 <0>        -0.3726
      6 C5          0.5252   -2.2296   -3.6089 C.3       1 <0>        -0.0105
      7 C6          1.3061   -2.5684   -4.8805 C.3       1 <0>         0.0589
      8 H1          2.2125   -1.9645   -4.9227 H         1 <0>         0.0900
      9 C7          1.6810   -4.0530   -4.8624 C.3       1 <0>         0.0258
     10 H2          0.7744   -4.6581   -4.8718 H         1 <0>         0.0912
     11 C8          2.4827   -4.3515   -3.5921 C.3       1 <0>         0.1122
     12 H3          3.4136   -3.7847   -3.6076 H         1 <0>         0.0961
     13 C9          1.6582   -3.9467   -2.3683 C.3       1 <0>         0.0358
     14 H4          0.7277   -4.5142   -2.3537 H         1 <0>         0.1569
     15 C10         2.4551   -4.2433   -1.0964 C.3       1 <0>         0.0568
     16 O1          3.7102   -3.5623   -1.1509 O.3       1 <0>        -0.5781
     17 O2          2.7758   -5.7488   -3.5301 O.3       1 <0>        -0.5411
     18 O3          2.4724   -4.3601   -6.0119 O.3       1 <0>        -0.5475
     19 O4          0.4961   -2.2938   -6.0253 O.3       1 <0>        -0.5410
     20 H5          0.4020    1.8385   -0.0076 H         1 <0>         0.0598
     21 H6         -1.1462    1.6074   -0.8548 H         1 <0>         0.0596
     22 H7         -1.0998    1.6282    0.9244 H         1 <0>         0.0677
     23 H8          0.2405   -0.4579    0.9138 H         1 <0>         0.0739
     24 H9         -1.3077   -0.6890    0.0666 H         1 <0>         0.0741
     25 H10        -0.1727   -0.3228   -2.1074 H         1 <0>         0.0883
     26 H11         1.3756   -0.0917   -1.2601 H         1 <0>         0.0893
     27 H12         1.2141   -2.3881   -0.3387 H         1 <0>         0.1385
     28 H13        -0.3341   -2.6192   -1.1860 H         1 <0>         0.1342
     29 H14        -0.3811   -2.8337   -3.5678 H         1 <0>         0.1416
     30 H15         0.2565   -1.1733   -3.6187 H         1 <0>         0.1496
     31 H16         1.8933   -3.9008   -0.2274 H         1 <0>         0.0779
     32 H17         2.6274   -5.3168   -1.0176 H         1 <0>         0.1050
     33 H18         4.2694   -3.7053   -0.3751 H         1 <0>         0.4108
     34 H19         3.2946   -6.0754   -4.2779 H         1 <0>         0.4110
     35 H20         2.0271   -4.1891   -6.8531 H         1 <0>         0.3955
     36 H21         0.9288   -2.4859   -6.8685 H         1 <0>         0.4021
     37 H22         2.2153   -1.9895   -2.4955 H         1 <0>         0.4306
@<TRIPOS>BOND
     1    1    2 1
     2    1   20 1
     3    1   21 1
     4    1   22 1
     5    2    3 1
     6    2   23 1
     7    2   24 1
     8    3    4 1
     9    3   25 1
    10    3   26 1
    11    4    5 1
    12    4   27 1
    13    4   28 1
    14    5   13 1
    15    5    6 1
    16    5   37 1
    17    6    7 1
    18    6   29 1
    19    6   30 1
    20    7    8 1
    21    7    9 1
    22    7   19 1
    23    9   10 1
    24    9   11 1
    25    9   18 1
    26   11   12 1
    27   11   13 1
    28   11   17 1
    29   13   14 1
    30   13   15 1
    31   15   16 1
    32   15   31 1
    33   15   32 1
    34   16   33 1
    35   17   34 1
    36   18   35 1
    37   19   36 1
@<TRIPOS>MOLECULE
ZINC13719785
   37    37     0     0     0
SMALL
USER_CHARGES

@<TRIPOS>ATOM
      1 C1         -0.5154    1.3602    0.0038 C.3       1 <0>        -0.1592
      2 C2         -0.3088   -0.1557    0.0219 C.3       1 <0>        -0.1199
      3 C3          0.4399   -0.5834   -1.2420 C.3       1 <0>        -0.1494
      4 C4          0.6464   -2.0993   -1.2240 C.3       1 <0>        -0.0156
      5 N1          1.3653   -2.5100   -2.4375 N.4       1 <0>        -0.3722
      6 C5          0.5360   -2.2269   -3.6151 C.3       1 <0>        -0.0071
      7 C6          1.3120   -2.5777   -4.8864 C.3       1 <0>         0.0607
      8 H1          2.2230   -1.9809   -4.9331 H         1 <0>         0.0939
      9 C7          1.6758   -4.0650   -4.8619 C.3       1 <0>         0.0285
     10 H2          0.7646   -4.6632   -4.8669 H         1 <0>         0.0886
     11 C8          2.4774   -4.3636   -3.5916 C.3       1 <0>         0.1047
     12 H3          2.6923   -5.4309   -3.5393 H         1 <0>         0.1087
     13 C9          1.6582   -3.9467   -2.3683 C.3       1 <0>         0.0405
     14 H4          0.7235   -4.5071   -2.3493 H         1 <0>         0.1590
     15 C10         2.4551   -4.2433   -1.0964 C.3       1 <0>         0.0543
     16 O1          3.7102   -3.5623   -1.1509 O.3       1 <0>        -0.5525
     17 O2          3.7038   -3.6306   -3.6181 O.3       1 <0>        -0.5395
     18 O3          2.4628   -4.3835   -6.0113 O.3       1 <0>        -0.5478
     19 O4          0.5021   -2.3024   -6.0311 O.3       1 <0>        -0.5451
     20 H5          0.4534    1.8585   -0.0307 H         1 <0>         0.0599
     21 H6         -1.0980    1.6371   -0.8748 H         1 <0>         0.0594
     22 H7         -1.0488    1.6649    0.9043 H         1 <0>         0.0673
     23 H8          0.2738   -0.4326    0.9005 H         1 <0>         0.0735
     24 H9         -1.2776   -0.6540    0.0564 H         1 <0>         0.0734
     25 H10        -0.1427   -0.3065   -2.1207 H         1 <0>         0.0871
     26 H11         1.4087   -0.0851   -1.2766 H         1 <0>         0.0887
     27 H12         1.2290   -2.3762   -0.3454 H         1 <0>         0.1366
     28 H13        -0.3224   -2.5976   -1.1894 H         1 <0>         0.1313
     29 H14        -0.3748   -2.8240   -3.5695 H         1 <0>         0.1377
     30 H15         0.2753   -1.1687   -3.6294 H         1 <0>         0.1458
     31 H16         1.8933   -3.9008   -0.2274 H         1 <0>         0.0752
     32 H17         2.6274   -5.3168   -1.0176 H         1 <0>         0.0930
     33 H18         4.2694   -3.7053   -0.3751 H         1 <0>         0.4011
     34 H19         4.2728   -3.8429   -4.3706 H         1 <0>         0.4048
     35 H20         2.0173   -4.2131   -6.8525 H         1 <0>         0.3955
     36 H21         0.9319   -2.5017   -6.8741 H         1 <0>         0.4006
     37 H22         2.2299   -1.9944   -2.5057 H         1 <0>         0.4384
@<TRIPOS>BOND
     1    1    2 1
     2    1   20 1
     3    1   21 1
     4    1   22 1
     5    2    3 1
     6    2   23 1
     7    2   24 1
     8    3    4 1
     9    3   25 1
    10    3   26 1
    11    4    5 1
    12    4   27 1
    13    4   28 1
    14    5   13 1
    15    5    6 1
    16    5   37 1
    17    6    7 1
    18    6   29 1
    19    6   30 1
    20    7    8 1
    21    7    9 1
    22    7   19 1
    23    9   10 1
    24    9   11 1
    25    9   18 1
    26   11   12 1
    27   11   13 1
    28   11   17 1
    29   13   14 1
    30   13   15 1
    31   15   16 1
    32   15   31 1
    33   15   32 1
    34   16   33 1
    35   17   34 1
    36   18   35 1
    37   19   36 1
@<TRIPOS>MOLECULE
ZINC01636704
   25    25     0     0     0
SMALL
USER_CHARGES

@<TRIPOS>ATOM
      1 C1         -0.0178    1.4636    0.0101 C.3       1 <0>        -0.0435
      2 C2          1.4163    1.9970   -0.0007 C.3       1 <0>         0.0576
      3 H1          1.9452    1.6372    0.8818 H         1 <0>         0.0953
      4 C3          2.1299    1.5015   -1.2619 C.3       1 <0>         0.0740
      5 H2          1.6316    1.9031   -2.1442 H         1 <0>         0.0896
      6 C4          2.0795   -0.0286   -1.2972 C.3       1 <0>         0.1002
      7 H3          2.5366   -0.3867   -2.2197 H         1 <0>         0.1194
      8 C5          0.6208   -0.4870   -1.2383 C.3       1 <0>         0.0442
      9 H4          0.0792   -0.0848   -2.0945 H         1 <0>         0.1594
     10 N1          0.0021   -0.0041    0.0020 N.4       1 <0>        -0.4939
     11 C6          0.5654   -2.0156   -1.2729 C.3       1 <0>         0.0552
     12 O1         -0.7972   -2.4415   -1.3354 O.3       1 <0>        -0.5823
     13 O2          2.7918   -0.5555   -0.1760 O.3       1 <0>        -0.5657
     14 O3          3.4911    1.9360   -1.2427 O.3       1 <0>        -0.5491
     15 O4          1.3941    3.4258    0.0058 O.3       1 <0>        -0.5404
     16 H5         -0.5288    1.8147    0.9066 H         1 <0>         0.1416
     17 H6         -0.5458    1.8242   -0.8727 H         1 <0>         0.1407
     18 H7          0.5329   -0.3366    0.7931 H         1 <0>         0.4344
     19 H8          1.1002   -2.3788   -2.1504 H         1 <0>         0.0978
     20 H9          1.0304   -2.4165   -0.3722 H         1 <0>         0.0847
     21 H10        -0.9084   -3.4018   -1.3601 H         1 <0>         0.4135
     22 H11         3.7244   -0.3017   -0.1479 H         1 <0>         0.4180
     23 H12         3.5970    2.8968   -1.2145 H         1 <0>         0.4076
     24 H13         0.9534    3.8088    0.7767 H         1 <0>         0.4003
     25 H14        -0.9428   -0.3526    0.0632 H         1 <0>         0.4412
@<TRIPOS>BOND
     1    1   10 1
     2    1    2 1
     3    1   16 1
     4    1   17 1
     5    2    3 1
     6    2    4 1
     7    2   15 1
     8    4    5 1
     9    4    6 1
    10    4   14 1
    11    6    7 1
    12    6    8 1
    13    6   13 1
    14    8    9 1
    15    8   10 1
    16    8   11 1
    17   10   18 1
    18   10   25 1
    19   11   12 1
    20   11   19 1
    21   11   20 1
    22   12   21 1
    23   13   22 1
    24   14   23 1
    25   15   24 1
@<TRIPOS>MOLECULE
ZINC13836790
   38    38     0     0     0
SMALL
USER_CHARGES
[(1S,2S)-3-[(1S,2R,3S,4S)-3,4-dihydroxy-2-(hydroxymethyl)tetrahydrothiophen-1-ium-1-yl]-2-hydroxy-1-(hydroxymethyl)propyl] hydrogen sulfate
@<TRIPOS>ATOM
      1 C1          4.7962    0.8715    0.0848 C.3       1 <0>        -0.2407
      2 C2          6.1287    0.6927    0.8464 C.3       1 <0>         0.0572
      3 H1          6.5202   -0.3010    0.6285 H         1 <0>         0.1110
      4 C3          6.0012    0.8444    2.3547 C.3       1 <0>         0.1099
      5 H2          6.6545    1.6543    2.6793 H         1 <0>         0.1099
      6 C4          4.5639    1.1480    2.8337 C.3       1 <0>        -0.1848
      7 H3          4.0506    0.2351    3.1359 H         1 <0>         0.1638
      8 S1          3.8152    1.8540    1.3013 S.3       1 <0>         0.5912
      9 C5          2.1627    1.1086    1.2367 C.3       1 <0>        -0.2941
     10 C6          1.4227    1.6154   -0.0028 C.3       1 <0>         0.1229
     11 H4          1.4079    2.7053    0.0031 H         1 <0>         0.1507
     12 C7         -0.0127    1.0858    0.0080 C.3       1 <0>         0.1091
     13 H5          0.0021   -0.0041    0.0020 H         1 <0>         0.1053
     14 C8         -0.7527    1.5927   -1.2315 C.3       1 <0>         0.0552
     15 O1         -0.6718    3.0184   -1.2848 O.3       1 <0>        -0.5663
     16 O2         -0.6816    1.5467    1.1837 O.3       1 <0>        -0.7694
     17 S2         -1.6734    0.5482    1.7633 S.o2      1 <0>         2.7628
     18 O3         -2.3891    1.2319    2.7828 O.2       1 <0>        -1.0457
     19 O4         -2.3220   -0.0675    0.6590 O.2       1 <0>        -1.0798
     20 O5          2.0915    1.1546   -1.1786 O.3       1 <0>        -0.5460
     21 C9          4.5676    2.1751    3.9677 C.3       1 <0>         0.0955
     22 O6          5.2567    1.6353    5.0972 O.3       1 <0>        -0.5487
     23 O7          6.4405   -0.3681    2.9703 O.3       1 <0>        -0.5333
     24 O8          7.0614    1.6636    0.3676 O.3       1 <0>        -0.5491
     25 H6          4.3250   -0.0915   -0.1119 H         1 <0>         0.1475
     26 H7          4.9451    1.4290   -0.8399 H         1 <0>         0.1757
     27 H8          1.6044    1.3845    2.1313 H         1 <0>         0.1770
     28 H9          2.2552    0.0237    1.1863 H         1 <0>         0.1438
     29 H10        -0.2958    1.1691   -2.1259 H         1 <0>         0.0698
     30 H11        -1.7985    1.2898   -1.1795 H         1 <0>         0.0849
     31 H12        -1.1204    3.4096   -2.0469 H         1 <0>         0.3847
     32 H13         2.1422    0.1915   -1.2503 H         1 <0>         0.3839
     33 H14         5.0713    3.0825    3.6344 H         1 <0>         0.0739
     34 H15         3.5409    2.4113    4.2473 H         1 <0>         0.0788
     35 H16         5.2980    2.2337    5.8556 H         1 <0>         0.4001
     36 H17         7.3371   -0.6326    2.7226 H         1 <0>         0.3965
     37 H18         7.2021    1.6358   -0.5887 H         1 <0>         0.3993
     38 O9         -0.8644   -0.5400    2.4546 O.3       1 <0>        -1.1023
@<TRIPOS>BOND
     1    1    8 1
     2    1    2 1
     3    1   25 1
     4    1   26 1
     5    2    3 1
     6    2    4 1
     7    2   24 1
     8    4    5 1
     9    4    6 1
    10    4   23 1
    11    6    7 1
    12    6    8 1
    13    6   21 1
    14    8    9 1
    15    9   10 1
    16    9   27 1
    17    9   28 1
    18   10   11 1
    19   10   12 1
    20   10   20 1
    21   12   13 1
    22   12   14 1
    23   12   16 1
    24   14   15 1
    25   14   29 1
    26   14   30 1
    27   15   31 1
    28   16   17 1
    29   17   18 2
    30   17   19 2
    31   17   38 1
    32   20   32 1
    33   21   22 1
    34   21   33 1
    35   21   34 1
    36   22   35 1
    37   23   36 1
    38   24   37 1
@<TRIPOS>MOLECULE
ZINC04097426
   32    32     0     0     0
SMALL
USER_CHARGES

@<TRIPOS>ATOM
      1 C1          0.0582    1.4326   -0.0932 C.3       1 <0>        -0.0174
      2 C2          1.4600    2.0177   -0.2786 C.3       1 <0>         0.0589
      3 H1          2.0720    1.7790    0.5912 H         1 <0>         0.0866
      4 C3          2.0972    1.4141   -1.5335 C.3       1 <0>         0.0245
      5 H2          1.5136    1.6954   -2.4100 H         1 <0>         0.0903
      6 C4          2.1180   -0.1114   -1.4002 C.3       1 <0>         0.1132
      7 H3          2.7437   -0.3942   -0.5536 H         1 <0>         0.0954
      8 C5          0.6919   -0.6176   -1.1732 C.3       1 <0>         0.0332
      9 H4          0.0672   -0.3344   -2.0203 H         1 <0>         0.1567
     10 N1          0.1481   -0.0250    0.0547 N.4       1 <0>        -0.3697
     11 C6         -1.1906   -0.5733    0.3100 C.3       1 <0>        -0.0097
     12 C7         -1.6812   -0.1033    1.6809 C.3       1 <0>         0.0488
     13 O1         -1.9530    1.2988    1.6346 O.3       1 <0>        -0.5731
     14 C8          0.7077   -2.1416   -1.0388 C.3       1 <0>         0.0563
     15 O2          1.5849   -2.5169    0.0250 O.3       1 <0>        -0.5784
     16 O3          2.6451   -0.6878   -2.5968 O.3       1 <0>        -0.5418
     17 O4          3.4334    1.9014   -1.6725 O.3       1 <0>        -0.5488
     18 O5          1.3695    3.4364   -0.4236 O.3       1 <0>        -0.5398
     19 H5         -0.3984    1.8604    0.7993 H         1 <0>         0.1754
     20 H6         -0.5530    1.6721   -0.9634 H         1 <0>         0.1362
     21 H7         -1.8785   -0.2259   -0.4608 H         1 <0>         0.1421
     22 H8         -1.1464   -1.6622    0.2936 H         1 <0>         0.1498
     23 H9         -2.5916   -0.6414    1.9450 H         1 <0>         0.1017
     24 H10        -0.9130   -0.3000    2.4287 H         1 <0>         0.0742
     25 H11        -2.2689    1.6661    2.4715 H         1 <0>         0.4078
     26 H12        -0.2994   -2.4977   -0.8221 H         1 <0>         0.0772
     27 H13         1.0571   -2.5849   -1.9713 H         1 <0>         0.1054
     28 H14         1.6442   -3.4715    0.1676 H         1 <0>         0.4107
     29 H15         3.5471   -0.4075   -2.8042 H         1 <0>         0.4109
     30 H16         3.4946    2.8628   -1.7564 H         1 <0>         0.3952
     31 H17         2.2229    3.8746   -0.5453 H         1 <0>         0.3999
     32 H18         0.7538   -0.2466    0.8307 H         1 <0>         0.4280
@<TRIPOS>BOND
     1    1   10 1
     2    1    2 1
     3    1   19 1
     4    1   20 1
     5    2    3 1
     6    2    4 1
     7    2   18 1
     8    4    5 1
     9    4    6 1
    10    4   17 1
    11    6    7 1
    12    6    8 1
    13    6   16 1
    14    8    9 1
    15    8   10 1
    16    8   14 1
    17   10   11 1
    18   10   32 1
    19   11   12 1
    20   11   21 1
    21   11   22 1
    22   12   13 1
    23   12   23 1
    24   12   24 1
    25   13   25 1
    26   14   15 1
    27   14   26 1
    28   14   27 1
    29   15   28 1
    30   16   29 1
    31   17   30 1
    32   18   31 1
@<TRIPOS>MOLECULE
ZINC03794714
   25    25     0     0     0
SMALL
USER_CHARGES

@<TRIPOS>ATOM
      1 C1         -0.0178    1.4636    0.0101 C.3       1 <0>        -0.0466
      2 C2          1.4163    1.9970   -0.0007 C.3       1 <0>         0.0566
      3 H1          1.9452    1.6372    0.8818 H         1 <0>         0.0917
      4 C3          2.1299    1.5015   -1.2619 C.3       1 <0>         0.0695
      5 H2          1.6316    1.9031   -2.1442 H         1 <0>         0.0909
      6 C4          2.0795   -0.0286   -1.2972 C.3       1 <0>         0.1094
      7 H3          2.6221   -0.4305   -0.4415 H         1 <0>         0.0913
      8 C5          0.6208   -0.4870   -1.2383 C.3       1 <0>         0.0351
      9 H4          0.0792   -0.0848   -2.0945 H         1 <0>         0.1577
     10 N1          0.0021   -0.0041    0.0020 N.4       1 <0>        -0.4918
     11 C6          0.5654   -2.0156   -1.2729 C.3       1 <0>         0.0570
     12 O1         -0.7972   -2.4415   -1.3354 O.3       1 <0>        -0.5813
     13 O2          2.6797   -0.4981   -2.5061 O.3       1 <0>        -0.5386
     14 O3          3.4911    1.9360   -1.2427 O.3       1 <0>        -0.5488
     15 O4          1.3941    3.4258    0.0058 O.3       1 <0>        -0.5365
     16 H5         -0.5288    1.8147    0.9066 H         1 <0>         0.1451
     17 H6         -0.5458    1.8242   -0.8727 H         1 <0>         0.1438
     18 H7          0.5329   -0.3366    0.7931 H         1 <0>         0.4276
     19 H8          1.1002   -2.3788   -2.1504 H         1 <0>         0.1086
     20 H9          1.0304   -2.4165   -0.3722 H         1 <0>         0.0746
     21 H10        -0.9084   -3.4018   -1.3601 H         1 <0>         0.4135
     22 H11         3.6059   -0.2409   -2.6111 H         1 <0>         0.4148
     23 H12         3.5970    2.8968   -1.2145 H         1 <0>         0.4074
     24 H13         0.9534    3.8088    0.7767 H         1 <0>         0.4013
     25 H14        -0.9428   -0.3526    0.0632 H         1 <0>         0.4478
@<TRIPOS>BOND
     1    1   10 1
     2    1    2 1
     3    1   16 1
     4    1   17 1
     5    2    3 1
     6    2    4 1
     7    2   15 1
     8    4    5 1
     9    4    6 1
    10    4   14 1
    11    6    7 1
    12    6    8 1
    13    6   13 1
    14    8    9 1
    15    8   10 1
    16    8   11 1
    17   10   18 1
    18   10   25 1
    19   11   12 1
    20   11   19 1
    21   11   20 1
    22   12   21 1
    23   13   22 1
    24   14   23 1
    25   15   24 1
@<TRIPOS>MOLECULE
ZINC18825330
   30    32     0     0     0
SMALL
USER_CHARGES

@<TRIPOS>ATOM
      1 C1         -0.0168    1.3897    0.0097 C.ar      1 <0>        -0.0898
      2 C2          1.1691    2.0941    0.0021 C.ar      1 <0>        -0.1444
      3 C3          2.3804    1.4165   -0.0135 C.ar      1 <0>         0.1118
      4 C4          2.4026    0.0286   -0.0217 C.ar      1 <0>        -0.1437
      5 C5          1.2201   -0.6816   -0.0137 C.ar      1 <0>        -0.0707
      6 C6          0.0021   -0.0041    0.0020 C.ar      1 <0>        -0.0391
      7 C7         -1.2713   -0.7647    0.0106 C.2       1 <0>        -0.2383
      8 C8         -2.1308   -0.6985   -1.0391 C.2       1 <0>         0.1275
      9 O1         -3.2790   -1.3788   -1.0759 O.3       1 <0>        -0.2144
     10 C9         -3.8133   -1.9283    0.0323 C.ar      1 <0>         0.1753
     11 C10        -5.1371   -2.3448    0.0457 C.ar      1 <0>        -0.1819
     12 C11        -5.6741   -2.9171    1.1876 C.ar      1 <0>         0.1915
     13 C12        -4.9001   -3.0841    2.3313 C.ar      1 <0>        -0.2030
     14 C13        -3.5799   -2.6737    2.3405 C.ar      1 <0>         0.2179
     15 C14        -3.0336   -2.0875    1.1922 C.ar      1 <0>        -0.2616
     16 C15        -1.6367   -1.6192    1.1574 C.2       1 <0>         0.4330
     17 O2         -0.8325   -1.9156    2.0245 O.2       1 <0>        -0.4372
     18 O3         -2.8202   -2.8370    3.4529 O.3       1 <0>        -0.4757
     19 O4         -6.9707   -3.3190    1.1905 O.3       1 <0>        -0.4879
     20 O5          3.5472    2.1134   -0.0214 O.3       1 <0>        -0.4999
     21 H1         -0.9590    1.9174    0.0260 H         1 <0>         0.1287
     22 H2          1.1551    3.1740    0.0081 H         1 <0>         0.1326
     23 H3          3.3466   -0.4958   -0.0346 H         1 <0>         0.1325
     24 H4          1.2380   -1.7614   -0.0204 H         1 <0>         0.1278
     25 H5         -1.8749   -0.0692   -1.8787 H         1 <0>         0.2021
     26 H6         -5.7497   -2.2223   -0.8352 H         1 <0>         0.1539
     27 H7         -5.3310   -3.5346    3.2132 H         1 <0>         0.1504
     28 H8         -2.3502   -3.6814    3.4877 H         1 <0>         0.4050
     29 H9         -7.0993   -4.2345    0.9070 H         1 <0>         0.4041
     30 H10         3.8936    2.3103    0.8597 H         1 <0>         0.3934
@<TRIPOS>BOND
     1    1    6 ar
     2    1    2 ar
     3    1   21 1
     4    2    3 ar
     5    2   22 1
     6    3    4 ar
     7    3   20 1
     8    4    5 ar
     9    4   23 1
    10    5    6 ar
    11    5   24 1
    12    6    7 1
    13    7   16 1
    14    7    8 2
    15    8    9 1
    16    8   25 1
    17    9   10 1
    18   10   15 ar
    19   10   11 ar
    20   11   12 ar
    21   11   26 1
    22   12   13 ar
    23   12   19 1
    24   13   14 ar
    25   13   27 1
    26   14   15 ar
    27   14   18 1
    28   15   16 1
    29   16   17 2
    30   18   28 1
    31   19   29 1
    32   20   30 1
@<TRIPOS>MOLECULE
ZINC05131852
   29    29     0     0     0
SMALL
USER_CHARGES
2,6-bis(hydroxymethyl)piperidine-3,4,5-triol
@<TRIPOS>ATOM
      1 C1         -0.0707   -0.4444   -2.4062 C.3       1 <0>         0.0507
      2 C2         -0.0919    1.0854   -2.4140 C.3       1 <0>         0.0469
      3 H1         -0.6593    1.4364   -3.2760 H         1 <0>         0.1570
      4 C3          1.3415    1.6149   -2.4971 C.3       1 <0>         0.0643
      5 H2          1.8155    1.2408   -3.4046 H         1 <0>         0.1052
      6 C4          2.1290    1.1362   -1.2744 C.3       1 <0>         0.0293
      7 C5          1.4231    1.6153   -0.0029 C.3       1 <0>         0.1043
      8 H3          1.9555    1.2415    0.8718 H         1 <0>         0.1094
      9 C6         -0.0127    1.0858    0.0080 C.3       1 <0>         0.0447
     10 H4          0.0021   -0.0041    0.0020 H         1 <0>         0.1533
     11 C7         -0.7284    1.5790    1.2671 C.3       1 <0>         0.0574
     12 O1         -2.0290    0.9910    1.3370 O.3       1 <0>        -0.5796
     13 O2          1.4050    3.0440    0.0233 O.3       1 <0>        -0.5491
     14 O3          3.4521    1.6744   -1.3177 O.3       1 <0>        -0.5481
     15 O4          1.3225    3.0436   -2.5230 O.3       1 <0>        -0.5450
     16 O5         -1.4105   -0.9396   -2.4461 O.3       1 <0>        -0.5704
     17 H5          0.4759   -0.8046   -3.2777 H         1 <0>         0.0974
     18 H6          0.4199   -0.7963   -1.4987 H         1 <0>         0.0716
     19 H7          2.1785    0.0473   -1.2752 H         1 <0>         0.0893
     20 H8         -0.1528    1.2935    2.1476 H         1 <0>         0.0946
     21 H9         -0.8219    2.6644    1.2304 H         1 <0>         0.0841
     22 H10        -2.5410    1.2598    2.1121 H         1 <0>         0.4114
     23 H11         2.2832    3.4486    0.0181 H         1 <0>         0.4097
     24 H12         3.9583    1.4113   -2.0985 H         1 <0>         0.4007
     25 H13         2.1995    3.4478   -2.5726 H         1 <0>         0.4070
     26 H14        -1.4734   -1.9046   -2.4436 H         1 <0>         0.4123
     27 N1         -0.7339    1.5791   -1.1808 N.4       1 <0>        -0.5003
     28 H15        -1.7051    1.2474   -1.1490 H         1 <0>         0.4466
     29 H16        -0.7227    2.6058   -1.1813 H         1 <0>         0.4456
@<TRIPOS>BOND
     1    1    2 1
     2    1   16 1
     3    1   17 1
     4    1   18 1
     5    2    3 1
     6    2    4 1
     7    2   27 1
     8    4    5 1
     9    4    6 1
    10    4   15 1
    11    6    7 1
    12    6   14 1
    13    6   19 1
    14    7    8 1
    15    7    9 1
    16    7   13 1
    17    9   10 1
    18    9   11 1
    19    9   27 1
    20   11   12 1
    21   11   20 1
    22   11   21 1
    23   12   22 1
    24   13   23 1
    25   14   24 1
    26   15   25 1
    27   16   26 1
    28   27   28 1
    29   27   29 1
@<TRIPOS>MOLECULE
ZINC03795332
   28    28     0     0     0
SMALL
USER_CHARGES
2-(hydroxymethyl)-1-methyl-piperidine-3,4,5-triol
@<TRIPOS>ATOM
      1 C1          4.2144    1.1727   -2.1735 C.3       1 <0>        -0.0442
      2 C2          2.0526    1.1150   -1.0854 C.3       1 <0>        -0.0415
      3 C3          1.2504    1.6650    0.0961 C.3       1 <0>         0.0559
      4 H1          1.7824    1.4599    1.0250 H         1 <0>         0.0907
      5 C4          1.0772    3.1772   -0.0706 C.3       1 <0>         0.0682
      6 H2          0.5107    3.3810   -0.9793 H         1 <0>         0.0869
      7 C5          2.4572    3.8331   -0.1701 C.3       1 <0>         0.1102
      8 H3          3.0089    3.6621    0.7543 H         1 <0>         0.0966
      9 C6          3.2245    3.2203   -1.3439 C.3       1 <0>         0.0409
     10 H4          2.6792    3.4036   -2.2696 H         1 <0>         0.1584
     11 C7          4.6121    3.8584   -1.4347 C.3       1 <0>         0.0560
     12 O1          5.2926    3.6981   -0.1884 O.3       1 <0>        -0.5796
     13 O2          2.3036    5.2381   -0.3811 O.3       1 <0>        -0.5401
     14 O3          0.3778    3.7051    1.0582 O.3       1 <0>        -0.5485
     15 O4         -0.0337    1.0390    0.1335 O.3       1 <0>        -0.5374
     16 H5          5.2344    1.5417   -2.0657 H         1 <0>         0.1275
     17 H6          4.2072    0.0881   -2.0660 H         1 <0>         0.1286
     18 H7          3.8324    1.4429   -3.1580 H         1 <0>         0.1271
     19 H8          2.1900    0.0407   -0.9624 H         1 <0>         0.1396
     20 H9          1.5128    1.3082   -2.0124 H         1 <0>         0.1421
     21 H10         5.1840    3.3736   -2.2259 H         1 <0>         0.0778
     22 H11         4.5097    4.9202   -1.6588 H         1 <0>         0.1041
     23 H12         6.1809    4.0799   -0.1733 H         1 <0>         0.4111
     24 H13         1.8227    5.6915    0.3247 H         1 <0>         0.4123
     25 H14        -0.5043    3.3297    1.1851 H         1 <0>         0.4052
     26 H15         0.0000    0.0782    0.2377 H         1 <0>         0.4000
     27 N1          3.3786    1.7686   -1.1108 N.4       1 <0>        -0.3849
     28 H16         3.8386    1.6239   -0.2043 H         1 <0>         0.4370
@<TRIPOS>BOND
     1    1   16 1
     2    1   17 1
     3    1   18 1
     4    1   27 1
     5    2    3 1
     6    2   19 1
     7    2   20 1
     8    2   27 1
     9    3    4 1
    10    3    5 1
    11    3   15 1
    12    5    6 1
    13    5    7 1
    14    5   14 1
    15    7    8 1
    16    7    9 1
    17    7   13 1
    18    9   10 1
    19    9   11 1
    20    9   27 1
    21   11   12 1
    22   11   21 1
    23   11   22 1
    24   12   23 1
    25   13   24 1
    26   14   25 1
    27   15   26 1
    28   27   28 1
@<TRIPOS>MOLECULE
ZINC14827287
   29    29     0     0     0
SMALL
USER_CHARGES
(1R,2S,3S,4R,5R)-5-amino-1-(hydroxymethyl)cyclohexane-1,2,3,4-tetrol
@<TRIPOS>ATOM
      1 C1          2.5340    3.7264   -0.0021 C.3       1 <0>        -0.1653
      2 C2          1.1449    3.0852    0.0077 C.3       1 <0>         0.0556
      3 H1          0.6082    3.3946    0.9045 H         1 <0>         0.1542
      4 C3          1.2864    1.5618   -0.0018 C.3       1 <0>         0.0519
      5 H2          1.8401    1.2428    0.8812 H         1 <0>         0.1175
      6 C4          2.0397    1.1274   -1.2607 C.3       1 <0>         0.0384
      7 H3          1.4860    1.4464   -2.1437 H         1 <0>         0.0745
      8 C5          3.4288    1.7687   -1.2705 C.3       1 <0>         0.1247
      9 H4          3.9655    1.4592   -2.1673 H         1 <0>         0.0937
     10 C6          3.2873    3.2921   -1.2610 C.3       1 <0>         0.1386
     11 C7          4.6764    3.9333   -1.2708 C.3       1 <0>         0.0524
     12 O1          4.5476    5.3509   -1.1445 O.3       1 <0>        -0.5808
     13 O2          2.5614    3.7103   -2.4186 O.3       1 <0>        -0.5646
     14 O3          4.1547    1.3504   -0.1128 O.3       1 <0>        -0.5501
     15 O4          2.1719   -0.2955   -1.2696 O.3       1 <0>        -0.5448
     16 O5         -0.0110    0.9628    0.0073 O.3       1 <0>        -0.5666
     17 H5          2.4332    4.8118    0.0047 H         1 <0>         0.1164
     18 H6          3.0877    3.4074    0.8809 H         1 <0>         0.1354
     19 H7          5.2614    3.5459   -0.4366 H         1 <0>         0.0806
     20 H8          5.1794    3.6963   -2.2083 H         1 <0>         0.0693
     21 H9          5.3909    5.8240   -1.1434 H         1 <0>         0.4025
     22 H10         2.4336    4.6670   -2.4784 H         1 <0>         0.4072
     23 H11         4.2825    0.3938   -0.0531 H         1 <0>         0.4067
     24 H12         1.3286   -0.7688   -1.2641 H         1 <0>         0.3921
     25 H13         0.0021   -0.0041    0.0020 H         1 <0>         0.4049
     26 H14        -0.5230    3.1047   -1.1991 H         1 <0>         0.4377
     27 H15         0.3473    4.5215   -1.2329 H         1 <0>         0.4321
     28 N1          0.4135    3.5055   -1.2005 N.4       1 <0>        -0.6466
     29 H16         0.9177    3.1760   -2.0320 H         1 <0>         0.4322
@<TRIPOS>BOND
     1    1   10 1
     2    1    2 1
     3    1   17 1
     4    1   18 1
     5    2    3 1
     6    2    4 1
     7    2   28 1
     8    4    5 1
     9    4    6 1
    10    4   16 1
    11    6    7 1
    12    6    8 1
    13    6   15 1
    14    8    9 1
    15    8   10 1
    16    8   14 1
    17   10   11 1
    18   10   13 1
    19   11   12 1
    20   11   19 1
    21   11   20 1
    22   12   21 1
    23   13   22 1
    24   14   23 1
    25   15   24 1
    26   16   25 1
    27   26   28 1
    28   27   28 1
    29   28   29 1
@<TRIPOS>MOLECULE
ZINC14827288
   29    29     0     0     0
SMALL
USER_CHARGES
(1R,2S,3S,4R,5S)-5-amino-1-(hydroxymethyl)cyclohexane-1,2,3,4-tetrol
@<TRIPOS>ATOM
      1 C1          2.0397    1.1274   -1.2607 C.3       1 <0>        -0.1671
      2 C2          1.2625    1.5752   -2.5002 C.3       1 <0>         0.0471
      3 H1          0.2729    1.1183   -2.4932 H         1 <0>         0.1523
      4 C3          1.1210    3.0986   -2.4906 C.3       1 <0>         0.0572
      5 H2          2.1106    3.5554   -2.4976 H         1 <0>         0.0966
      6 C4          0.3677    3.5330   -1.2318 C.3       1 <0>         0.0542
      7 H3         -0.6219    3.0761   -1.2248 H         1 <0>         0.0956
      8 C5          1.1449    3.0852    0.0077 C.3       1 <0>         0.1239
      9 H4          0.6082    3.3946    0.9045 H         1 <0>         0.0919
     10 C6          1.2864    1.5618   -0.0018 C.3       1 <0>         0.1611
     11 C7          2.0636    1.1140    1.2377 C.3       1 <0>         0.0494
     12 O1          2.2968   -0.2943    1.1706 O.3       1 <0>        -0.5801
     13 O2         -0.0110    0.9628    0.0073 O.3       1 <0>        -0.5497
     14 O3          2.4423    3.6841   -0.0015 O.3       1 <0>        -0.5577
     15 O4          0.2355    4.9558   -1.2229 O.3       1 <0>        -0.5505
     16 O5          0.3951    3.5168   -3.6483 O.3       1 <0>        -0.5695
     17 H5          3.0293    1.5842   -1.2677 H         1 <0>         0.1101
     18 H6          2.1405    0.0421   -1.2675 H         1 <0>         0.1121
     19 H7          3.0180    1.6389    1.2773 H         1 <0>         0.0744
     20 H8          1.4849    1.3442    2.1322 H         1 <0>         0.0684
     21 H9          2.7860   -0.6483    1.9259 H         1 <0>         0.3989
     22 H10         0.0021   -0.0041    0.0020 H         1 <0>         0.3997
     23 H11         2.4292    4.6510    0.0038 H         1 <0>         0.4036
     24 H12        -0.2479    5.3107   -1.9815 H         1 <0>         0.3900
     25 H13         0.2673    4.4735   -3.7081 H         1 <0>         0.4053
     26 H14         1.4923    1.4424   -4.5417 H         1 <0>         0.4454
     27 H15         2.9291    1.5163   -3.7074 H         1 <0>         0.4349
     28 N1          1.9853    1.1330   -3.7057 N.4       1 <0>        -0.6394
     29 H16         2.0401    0.1077   -3.7093 H         1 <0>         0.4421
@<TRIPOS>BOND
     1    1   10 1
     2    1    2 1
     3    1   17 1
     4    1   18 1
     5    2    3 1
     6    2    4 1
     7    2   28 1
     8    4    5 1
     9    4    6 1
    10    4   16 1
    11    6    7 1
    12    6    8 1
    13    6   15 1
    14    8    9 1
    15    8   10 1
    16    8   14 1
    17   10   11 1
    18   10   13 1
    19   11   12 1
    20   11   19 1
    21   11   20 1
    22   12   21 1
    23   13   22 1
    24   14   23 1
    25   15   24 1
    26   16   25 1
    27   26   28 1
    28   27   28 1
    29   28   29 1
@<TRIPOS>MOLECULE
ZINC36243082
   29    29     0     0     0
SMALL
USER_CHARGES

@<TRIPOS>ATOM
      1 C1         -0.0187    1.5258    0.0104 C.3       1 <0>        -0.1254
      2 C2          1.4167    2.0553   -0.0004 C.3       1 <0>         0.0458
      3 H1          1.9439    1.6943    0.8826 H         1 <0>         0.1601
      4 C3          2.1328    1.5619   -1.2592 C.3       1 <0>         0.0588
      5 H2          3.1554    1.9392   -1.2670 H         1 <0>         0.0820
      6 C4          2.1536    0.0321   -1.2676 C.3       1 <0>         0.0460
      7 H3          2.6808   -0.3290   -0.3846 H         1 <0>         0.0870
      8 C5          0.7182   -0.4975   -1.2568 C.3       1 <0>         0.0951
      9 H4          0.7330   -1.5874   -1.2628 H         1 <0>         0.0841
     10 C6          0.0021   -0.0041    0.0020 C.3       1 <0>         0.1588
     11 C7         -1.4333   -0.5336    0.0129 C.3       1 <0>         0.0540
     12 O1         -1.4139   -1.9625    0.0050 O.3       1 <0>        -0.5737
     13 O2          0.6932   -0.4774    1.1597 O.3       1 <0>        -0.5552
     14 O3          0.0271   -0.0241   -2.4145 O.3       1 <0>        -0.5415
     15 O4          2.8225   -0.4288   -2.4434 O.3       1 <0>        -0.5521
     16 O5          1.4417    2.0353   -2.4169 O.3       1 <0>        -0.5498
     17 N1          1.3968    3.5242    0.0076 N.4       1 <0>        -0.6314
     18 H5         -0.5289    1.8773    0.9072 H         1 <0>         0.0999
     19 H6         -0.5459    1.8868   -0.8726 H         1 <0>         0.1220
     20 H7         -1.9435   -0.1821    0.9097 H         1 <0>         0.0607
     21 H8         -1.9605   -0.1726   -0.8702 H         1 <0>         0.0709
     22 H9         -2.2919   -2.3678    0.0112 H         1 <0>         0.3974
     23 H10         0.7451   -1.4412    1.2202 H         1 <0>         0.4028
     24 H11         0.4265   -0.2995   -3.2510 H         1 <0>         0.3913
     25 H12         3.7394   -0.1305   -2.5166 H         1 <0>         0.3911
     26 H13         1.8411    1.7600   -3.2534 H         1 <0>         0.4059
     27 H14         0.9245    3.8496    0.8378 H         1 <0>         0.4381
     28 H15         2.3434    3.8734    0.0005 H         1 <0>         0.4362
     29 H16         0.9088    3.8584   -0.8098 H         1 <0>         0.4412
@<TRIPOS>BOND
     1    1   10 1
     2    1    2 1
     3    1   18 1
     4    1   19 1
     5    2    3 1
     6    2    4 1
     7    2   17 1
     8    4    5 1
     9    4    6 1
    10    4   16 1
    11    6    7 1
    12    6    8 1
    13    6   15 1
    14    8    9 1
    15    8   10 1
    16    8   14 1
    17   10   11 1
    18   10   13 1
    19   11   12 1
    20   11   20 1
    21   11   21 1
    22   12   22 1
    23   13   23 1
    24   14   24 1
    25   15   25 1
    26   16   26 1
    27   17   27 1
    28   17   28 1
    29   17   29 1
@<TRIPOS>MOLECULE
ZINC36243084
   29    29     0     0     0
SMALL
USER_CHARGES

@<TRIPOS>ATOM
      1 C1          0.0143    1.5256    0.0292 C.3       1 <0>        -0.1324
      2 C2          1.4608    2.0241    0.0369 C.3       1 <0>         0.0387
      3 H1          1.9710    1.6725   -0.8599 H         1 <0>         0.1591
      4 C3          2.1790    1.4862    1.2762 C.3       1 <0>         0.0512
      5 H2          1.6688    1.8377    2.1730 H         1 <0>         0.0942
      6 C4          2.1668   -0.0435    1.2490 C.3       1 <0>         0.0478
      7 H3          2.6784   -0.4267    2.1319 H         1 <0>         0.0849
      8 C5          0.7203   -0.5419    1.2413 C.3       1 <0>         0.0889
      9 H4          0.2101   -0.1904    2.1381 H         1 <0>         0.0781
     10 C6          0.0021   -0.0041    0.0020 C.3       1 <0>         0.1553
     11 C7          0.7182   -0.4975   -1.2568 C.3       1 <0>         0.0435
     12 O1          0.8406   -1.9204   -1.2084 O.3       1 <0>        -0.5368
     13 O2         -1.3490   -0.4696   -0.0052 O.3       1 <0>        -0.5494
     14 O3          0.7089   -1.9707    1.2159 O.3       1 <0>        -0.5186
     15 O4          2.8356   -0.5044    0.0733 O.3       1 <0>        -0.5260
     16 O5          3.5300    1.9517    1.2834 O.3       1 <0>        -0.5687
     17 N1          1.4725    3.4928    0.0630 N.4       1 <0>        -0.6304
     18 H5         -0.4959    1.8772    0.9260 H         1 <0>         0.1068
     19 H6         -0.4974    1.9088   -0.8537 H         1 <0>         0.1154
     20 H7          0.1430   -0.2121   -2.1375 H         1 <0>         0.0428
     21 H8          1.7103   -0.0491   -1.3098 H         1 <0>         0.0783
     22 H9          1.2861   -2.3032   -1.9765 H         1 <0>         0.3797
     23 H10        -1.4330   -1.4328   -0.0222 H         1 <0>         0.4068
     24 H11         1.1480   -2.3810    1.9734 H         1 <0>         0.3817
     25 H12         3.7594   -0.2252    0.0114 H         1 <0>         0.3788
     26 H13         4.0464    1.6487    2.0427 H         1 <0>         0.4117
     27 H14         1.0002    3.8182    0.8932 H         1 <0>         0.4334
     28 H15         2.4265    3.8215    0.0681 H         1 <0>         0.4456
     29 H16         0.9989    3.8475   -0.7542 H         1 <0>         0.4395
@<TRIPOS>BOND
     1    1   10 1
     2    1    2 1
     3    1   18 1
     4    1   19 1
     5    2    3 1
     6    2    4 1
     7    2   17 1
     8    4    5 1
     9    4    6 1
    10    4   16 1
    11    6    7 1
    12    6    8 1
    13    6   15 1
    14    8    9 1
    15    8   10 1
    16    8   14 1
    17   10   11 1
    18   10   13 1
    19   11   12 1
    20   11   20 1
    21   11   21 1
    22   12   22 1
    23   13   23 1
    24   14   24 1
    25   15   25 1
    26   16   26 1
    27   17   27 1
    28   17   28 1
    29   17   29 1
@<TRIPOS>MOLECULE
ZINC03875281
   40    40     0     0     0
SMALL
USER_CHARGES
5-[2-hydroxy-1-(hydroxymethyl)ethyl]amino-1-(hydroxymethyl)cyclohexane-1,2,3,4-tetrol
@<TRIPOS>ATOM
      1 C1          0.8097    3.5260   -3.6690 C.3       1 <0>        -0.1234
      2 C2          1.4961    3.6871   -2.3111 C.3       1 <0>         0.0452
      3 H1          2.2732    2.9302   -2.2047 H         1 <0>         0.1534
      4 C3          2.1241    5.0793   -2.2191 C.3       1 <0>         0.0618
      5 H2          2.6131    5.1941   -1.2517 H         1 <0>         0.0774
      6 C4          3.1566    5.2478   -3.3356 C.3       1 <0>         0.0468
      7 H3          3.9336    4.4909   -3.2292 H         1 <0>         0.0862
      8 C5          2.4702    5.0867   -4.6935 C.3       1 <0>         0.0962
      9 H4          3.2057    5.2068   -5.4889 H         1 <0>         0.0841
     10 C6          1.8422    3.6946   -4.7855 C.3       1 <0>         0.1600
     11 C7          1.1558    3.5334   -6.1434 C.3       1 <0>         0.0541
     12 O1          2.1201    3.6908   -7.1862 O.3       1 <0>        -0.5738
     13 O2          2.8609    2.7022   -4.6460 O.3       1 <0>        -0.5552
     14 O3          1.4514    6.0790   -4.8330 O.3       1 <0>        -0.5404
     15 O4          3.7431    6.5481   -3.2497 O.3       1 <0>        -0.5515
     16 O5          1.1054    6.0716   -2.3586 O.3       1 <0>        -0.5477
     17 C8          1.1449    3.0852    0.0077 C.3       1 <0>         0.0352
     18 C9          1.2864    1.5618   -0.0018 C.3       1 <0>         0.0548
     19 O6         -0.0110    0.9628    0.0073 O.3       1 <0>        -0.5501
     20 C10         0.2852    3.5101    1.1999 C.3       1 <0>         0.0559
     21 O7         -0.9663    2.8219    1.1540 O.3       1 <0>        -0.5496
     22 H5          0.3623    2.5342   -3.7345 H         1 <0>         0.0990
     23 H6          0.0327    4.2829   -3.7754 H         1 <0>         0.1220
     24 H7          0.7084    2.5416   -6.2089 H         1 <0>         0.0609
     25 H8          0.3787    4.2903   -6.2498 H         1 <0>         0.0713
     26 H9          1.7544    3.6011   -8.0769 H         1 <0>         0.3969
     27 H10         3.5510    2.7492   -5.3218 H         1 <0>         0.4016
     28 H11         1.7783    6.9878   -4.7846 H         1 <0>         0.3907
     29 H12         4.1967    6.7204   -2.4132 H         1 <0>         0.3901
     30 H13         1.4322    6.9804   -2.3102 H         1 <0>         0.4049
     31 H14         2.1315    3.5412    0.0903 H         1 <0>         0.1528
     32 H15         1.8401    1.2428    0.8812 H         1 <0>         0.0905
     33 H16         1.8231    1.2523   -0.8987 H         1 <0>         0.0683
     34 H17         0.0021   -0.0041    0.0020 H         1 <0>         0.3996
     35 H18         0.8021    3.2627    2.1271 H         1 <0>         0.0904
     36 H19         0.1105    4.5851    1.1570 H         1 <0>         0.0687
     37 H20        -1.5637    3.0431    1.8815 H         1 <0>         0.3983
     38 N1          0.4943    3.5271   -1.2402 N.4       1 <0>        -0.5070
     39 H21        -0.1992    2.8264   -1.5271 H         1 <0>         0.4435
     40 H22         0.0256    4.4261   -1.0779 H         1 <0>         0.4379
@<TRIPOS>BOND
     1    1   10 1
     2    1    2 1
     3    1   22 1
     4    1   23 1
     5    2    3 1
     6    2    4 1
     7    2   38 1
     8    4    5 1
     9    4    6 1
    10    4   16 1
    11    6    7 1
    12    6    8 1
    13    6   15 1
    14    8    9 1
    15    8   10 1
    16    8   14 1
    17   10   11 1
    18   10   13 1
    19   11   12 1
    20   11   24 1
    21   11   25 1
    22   12   26 1
    23   13   27 1
    24   14   28 1
    25   15   29 1
    26   16   30 1
    27   17   18 1
    28   17   20 1
    29   17   31 1
    30   17   38 1
    31   18   19 1
    32   18   32 1
    33   18   33 1
    34   19   34 1
    35   20   21 1
    36   20   35 1
    37   20   36 1
    38   21   37 1
    39   38   39 1
    40   38   40 1
@<TRIPOS>MOLECULE
ZINC03875283
   40    40     0     0     0
SMALL
USER_CHARGES
5-[2-hydroxy-1-(hydroxymethyl)ethyl]amino-1-(hydroxymethyl)cyclohexane-1,2,3,4-tetrol
@<TRIPOS>ATOM
      1 C1         -1.3381    4.9794   -2.6499 C.3       1 <0>        -0.1280
      2 C2         -0.8129    3.5425   -2.6658 C.3       1 <0>         0.0452
      3 H1         -1.5147    2.9050   -3.2035 H         1 <0>         0.1526
      4 C3          0.5482    3.5047   -3.3636 C.3       1 <0>         0.0596
      5 H2          1.2500    4.1421   -2.8259 H         1 <0>         0.0973
      6 C4          0.3988    4.0090   -4.8004 C.3       1 <0>         0.0511
      7 H3         -0.3030    3.3715   -5.3381 H         1 <0>         0.0901
      8 C5         -0.1264    5.4459   -4.7845 C.3       1 <0>         0.0897
      9 H4         -0.2328    5.8052   -5.8081 H         1 <0>         0.0916
     10 C6         -1.4875    5.4837   -4.0867 C.3       1 <0>         0.1588
     11 C7         -2.0127    6.9207   -4.0708 C.3       1 <0>         0.0535
     12 O1         -2.1522    7.3917   -5.4127 O.3       1 <0>        -0.5732
     13 O2         -2.4076    4.6480   -4.7916 O.3       1 <0>        -0.5513
     14 O3          0.7937    6.2817   -4.0796 O.3       1 <0>        -0.5562
     15 O4          1.6700    3.9737   -5.4522 O.3       1 <0>        -0.5497
     16 O5          1.0387    2.1626   -3.3785 O.3       1 <0>        -0.5695
     17 C8         -0.7527    1.5927   -1.2315 C.3       1 <0>         0.0382
     18 C9         -0.0127    1.0858    0.0080 C.3       1 <0>         0.0576
     19 O6         -0.6816    1.5467    1.1837 O.3       1 <0>        -0.5522
     20 C10        -2.2206    1.1675   -1.1585 C.3       1 <0>         0.0542
     21 O7         -2.7884    1.6246    0.0706 O.3       1 <0>        -0.5517
     22 H5         -2.3078    5.0064   -2.1527 H         1 <0>         0.1093
     23 H6         -0.6363    5.6169   -2.1122 H         1 <0>         0.1156
     24 H7         -2.9824    6.9476   -3.5736 H         1 <0>         0.0630
     25 H8         -1.3109    7.5581   -3.5330 H         1 <0>         0.0713
     26 H9         -2.4818    8.2984   -5.4790 H         1 <0>         0.3979
     27 H10        -2.5512    4.9095   -5.7114 H         1 <0>         0.4028
     28 H11         1.6794    6.3059   -4.4670 H         1 <0>         0.3979
     29 H12         2.0637    3.0917   -5.4989 H         1 <0>         0.3877
     30 H13         1.9000    2.0634   -3.8067 H         1 <0>         0.4027
     31 H14        -0.2958    1.1691   -2.1259 H         1 <0>         0.1718
     32 H15         0.0021   -0.0041    0.0020 H         1 <0>         0.0890
     33 H16         1.0099    1.4631    0.0003 H         1 <0>         0.0674
     34 H17        -0.2663    1.2624    2.0094 H         1 <0>         0.3966
     35 H18        -2.7670    1.6029   -1.9952 H         1 <0>         0.0663
     36 H19        -2.2870    0.0807   -1.2074 H         1 <0>         0.0893
     37 H20        -3.7195    1.3902    0.1850 H         1 <0>         0.3980
     38 N1         -0.6680    3.0646   -1.2778 N.4       1 <0>        -0.5042
     39 H21        -1.4176    3.4653   -0.7017 H         1 <0>         0.4415
     40 H22         0.2430    3.3632   -0.9101 H         1 <0>         0.4285
@<TRIPOS>BOND
     1    1   10 1
     2    1    2 1
     3    1   22 1
     4    1   23 1
     5    2    3 1
     6    2    4 1
     7    2   38 1
     8    4    5 1
     9    4    6 1
    10    4   16 1
    11    6    7 1
    12    6    8 1
    13    6   15 1
    14    8    9 1
    15    8   10 1
    16    8   14 1
    17   10   11 1
    18   10   13 1
    19   11   12 1
    20   11   24 1
    21   11   25 1
    22   12   26 1
    23   13   27 1
    24   14   28 1
    25   15   29 1
    26   16   30 1
    27   17   18 1
    28   17   20 1
    29   17   31 1
    30   17   38 1
    31   18   19 1
    32   18   32 1
    33   18   33 1
    34   19   34 1
    35   20   21 1
    36   20   35 1
    37   20   36 1
    38   21   37 1
    39   38   39 1
    40   38   40 1
