@<TRIPOS>MOLECULE
ZINC28710872
   32    33     0     0     0
SMALL
USER_CHARGES
[(2S)-tetrahydropyran-2-yl]methyl benzoate
@<TRIPOS>ATOM
      1 C1         -1.2210    1.7497    0.0174 C.ar      1 <0>        -0.0830
      2 C2         -0.0126    1.0758    0.0080 C.ar      1 <0>        -0.1319
      3 C3          1.1735    1.7802    0.0004 C.ar      1 <0>        -0.0551
      4 C4          1.1526    3.1763    0.0081 C.ar      1 <0>        -0.1278
      5 C5         -0.0703    3.8499    0.0234 C.ar      1 <0>        -0.0607
      6 C6         -1.2489    3.1331    0.0308 C.ar      1 <0>        -0.1338
      7 C7          2.4188    3.9373    0.0006 C.2       1 <0>         0.5098
      8 O1          3.4812    3.3485   -0.0123 O.2       1 <0>        -0.5064
      9 O2          2.3952    5.2841    0.0081 O.3       1 <0>        -0.3439
     10 C8          3.6771    5.9659   -0.0000 C.3       1 <0>         0.0750
     11 C9          3.4501    7.4790    0.0102 C.3       1 <0>         0.0916
     12 H1          2.7532    7.7823   -0.7850 H         1 <0>         0.0718
     13 C10         4.7951    8.1979   -0.1241 C.3       1 <0>        -0.1485
     14 C11         4.5658    9.7108   -0.0526 C.3       1 <0>        -0.1222
     15 C12         3.8557   10.0469    1.2624 C.3       1 <0>        -0.1602
     16 C13         2.5471    9.2565    1.3431 C.3       1 <0>         0.0595
     17 O3          2.8288    7.8594    1.2396 O.3       1 <0>        -0.3775
     18 H2         -2.1467    1.1934    0.0187 H         1 <0>         0.1307
     19 H3          0.0021   -0.0041    0.0020 H         1 <0>         0.1340
     20 H4          2.1160    1.2530   -0.0118 H         1 <0>         0.1379
     21 H5         -0.0935    4.9296    0.0291 H         1 <0>         0.1389
     22 H6         -2.1955    3.6528    0.0423 H         1 <0>         0.1327
     23 H7          4.2525    5.6754    0.8914 H         1 <0>         0.0833
     24 H8          4.2361    5.6851   -0.9048 H         1 <0>         0.0895
     25 H9          5.4609    7.8860    0.6941 H         1 <0>         0.0785
     26 H10         5.2545    7.9390   -1.0895 H         1 <0>         0.0797
     27 H11         5.5342   10.2308   -0.0943 H         1 <0>         0.0730
     28 H12         3.9426   10.0278   -0.9018 H         1 <0>         0.0665
     29 H13         4.5039    9.7758    2.1088 H         1 <0>         0.0732
     30 H14         3.6390   11.1248    1.2970 H         1 <0>         0.0763
     31 H15         2.0538    9.4613    2.3047 H         1 <0>         0.0973
     32 H16         1.8843    9.5594    0.5191 H         1 <0>         0.0519
@<TRIPOS>BOND
     1    1    6 ar
     2    1    2 ar
     3    1   18 1
     4    2    3 ar
     5    2   19 1
     6    3    4 ar
     7    3   20 1
     8    4    5 ar
     9    4    7 1
    10    5    6 ar
    11    5   21 1
    12    6   22 1
    13    7    8 2
    14    7    9 1
    15    9   10 1
    16   10   11 1
    17   10   23 1
    18   10   24 1
    19   11   12 1
    20   11   17 1
    21   11   13 1
    22   13   14 1
    23   13   25 1
    24   13   26 1
    25   14   15 1
    26   14   27 1
    27   14   28 1
    28   15   16 1
    29   15   29 1
    30   15   30 1
    31   16   17 1
    32   16   31 1
    33   16   32 1
@<TRIPOS>MOLECULE
ZINC28710873
   32    33     0     0     0
SMALL
USER_CHARGES
[(2R)-tetrahydropyran-2-yl]methyl benzoate
@<TRIPOS>ATOM
      1 C1          3.4884   -5.3855   -6.0544 C.ar      1 <0>        -0.0830
      2 C2          3.0390   -6.2442   -5.0668 C.ar      1 <0>        -0.1319
      3 C3          2.4400   -5.7406   -3.9308 C.ar      1 <0>        -0.0551
      4 C4          2.2872   -4.3611   -3.7790 C.ar      1 <0>        -0.1278
      5 C5          2.7377   -3.5006   -4.7822 C.ar      1 <0>        -0.0607
      6 C6          3.3401   -4.0173   -5.9104 C.ar      1 <0>        -0.1338
      7 C7          1.6462   -3.8147   -2.5654 C.2       1 <0>         0.5099
      8 O1          1.2507   -4.5660   -1.6967 O.2       1 <0>        -0.5064
      9 O2          1.5003   -2.4832   -2.4221 O.3       1 <0>        -0.3440
     10 C8          0.8616   -2.0173   -1.2042 C.3       1 <0>         0.0750
     11 C9          0.7852   -0.4893   -1.2207 C.3       1 <0>         0.0917
     12 H1          0.3349   -0.1235   -2.1552 H         1 <0>         0.0717
     13 C10         0.0021   -0.0041    0.0020 C.3       1 <0>        -0.1485
     14 C11        -0.0187    1.5275    0.0104 C.3       1 <0>        -0.1222
     15 C12         1.4223    2.0468   -0.0005 C.3       1 <0>        -0.1602
     16 C13         2.1506    1.4824   -1.2231 C.3       1 <0>         0.0596
     17 O3          2.1062    0.0545   -1.1851 O.3       1 <0>        -0.3776
     18 H2          3.9573   -5.7849   -6.9415 H         1 <0>         0.1307
     19 H3          3.1579   -7.3110   -5.1855 H         1 <0>         0.1340
     20 H4          2.0904   -6.4119   -3.1604 H         1 <0>         0.1379
     21 H5          2.6185   -2.4328   -4.6731 H         1 <0>         0.1389
     22 H6          3.6930   -3.3527   -6.6851 H         1 <0>         0.1327
     23 H7         -0.1542   -2.4345   -1.1402 H         1 <0>         0.0895
     24 H8          1.4484   -2.3457   -0.3337 H         1 <0>         0.0832
     25 H9         -1.0278   -0.3873   -0.0465 H         1 <0>         0.0797
     26 H10         0.4875   -0.3720    0.9180 H         1 <0>         0.0785
     27 H11        -0.5507    1.8918   -0.8808 H         1 <0>         0.0665
     28 H12        -0.5336    1.8823    0.9154 H         1 <0>         0.0730
     29 H13         1.4157    3.1457   -0.0491 H         1 <0>         0.0763
     30 H14         1.9355    1.7235    0.9171 H         1 <0>         0.0732
     31 H15         1.6598    1.8408   -2.1400 H         1 <0>         0.0519
     32 H16         3.1982    1.8176   -1.2129 H         1 <0>         0.0973
@<TRIPOS>BOND
     1    1    6 ar
     2    1    2 ar
     3    1   18 1
     4    2    3 ar
     5    2   19 1
     6    3    4 ar
     7    3   20 1
     8    4    5 ar
     9    4    7 1
    10    5    6 ar
    11    5   21 1
    12    6   22 1
    13    7    8 2
    14    7    9 1
    15    9   10 1
    16   10   11 1
    17   10   23 1
    18   10   24 1
    19   11   12 1
    20   11   17 1
    21   11   13 1
    22   13   14 1
    23   13   25 1
    24   13   26 1
    25   14   15 1
    26   14   27 1
    27   14   28 1
    28   15   16 1
    29   15   29 1
    30   15   30 1
    31   16   17 1
    32   16   31 1
    33   16   32 1
@<TRIPOS>MOLECULE
ZINC27647131
   62    62     0     0     0
SMALL
USER_CHARGES
[(2R)-oxiran-2-yl]methyl (5Z,8Z,11Z,14Z)-icosa-5,8,11,14-tetraenoate
@<TRIPOS>ATOM
      1 C1         -2.7739  -16.1926   -9.7968 C.3       1 <0>        -0.1556
      2 C2         -1.8489  -15.5061   -8.7899 C.3       1 <0>        -0.1265
      3 C3         -2.5193  -15.4832   -7.4148 C.3       1 <0>        -0.1220
      4 C4         -1.5943  -14.7967   -6.4078 C.3       1 <0>        -0.1149
      5 C5         -2.2648  -14.7738   -5.0327 C.3       1 <0>        -0.1032
      6 C6         -1.3537  -14.0976   -4.0408 C.2       1 <0>        -0.1597
      7 C7         -1.8026  -13.1099   -3.3067 C.2       1 <0>        -0.1552
      8 C8         -3.2674  -12.7569   -3.3327 C.3       1 <0>        -0.0845
      9 C9         -3.8068  -12.7467   -1.9256 C.2       1 <0>        -0.1526
     10 C10        -4.4448  -11.6945   -1.4763 C.2       1 <0>        -0.1543
     11 C11        -4.7941  -10.5677   -2.4140 C.3       1 <0>        -0.0845
     12 C12        -6.2689  -10.2729   -2.3178 C.2       1 <0>        -0.1529
     13 C13        -6.6783   -9.0534   -2.0705 C.2       1 <0>        -0.1539
     14 C14        -5.6888   -7.9170   -2.0451 C.3       1 <0>        -0.0849
     15 C15        -6.1655   -6.8155   -2.9564 C.2       1 <0>        -0.1513
     16 C16        -6.2824   -5.5929   -2.5006 C.2       1 <0>        -0.1609
     17 C17        -5.7870   -5.2534   -1.1185 C.3       1 <0>        -0.1017
     18 C18        -4.8515   -4.0451   -1.1946 C.3       1 <0>        -0.1049
     19 C19        -4.3484   -3.7004    0.2086 C.3       1 <0>        -0.1160
     20 C20        -3.4270   -2.5103    0.1337 C.2       1 <0>         0.4634
     21 O1         -3.1963   -1.9911   -0.9326 O.2       1 <0>        -0.5043
     22 O2         -2.8626   -2.0271    1.2516 O.3       1 <0>        -0.3600
     23 C21        -1.9860   -0.8789    1.1042 C.3       1 <0>         0.0460
     24 C22        -1.4411   -0.4740    2.4753 C.3       1 <0>        -0.0765
     25 H1         -1.4872   -1.4961    2.8791 H         1 <0>         0.1635
     26 C23        -0.4467    0.6874    2.5339 C.3       1 <0>        -0.0005
     27 O3         -1.7984    0.8143    2.9799 O.3       1 <0>        -0.3027
     28 H2         -2.2919  -16.2091  -10.7854 H         1 <0>         0.0539
     29 H3         -3.7222  -15.6388   -9.8603 H         1 <0>         0.0538
     30 H4         -2.9726  -17.2235   -9.4685 H         1 <0>         0.0538
     31 H5         -0.9006  -16.0599   -8.7264 H         1 <0>         0.0609
     32 H6         -1.6501  -14.4752   -9.1182 H         1 <0>         0.0608
     33 H7         -3.4676  -14.9294   -7.4784 H         1 <0>         0.0612
     34 H8         -2.7181  -16.5141   -7.0865 H         1 <0>         0.0616
     35 H9         -0.6460  -15.3505   -6.3442 H         1 <0>         0.0619
     36 H10        -1.3955  -13.7658   -6.7361 H         1 <0>         0.0622
     37 H11        -3.2131  -14.2200   -5.0964 H         1 <0>         0.0763
     38 H12        -2.4636  -15.8047   -4.7045 H         1 <0>         0.0690
     39 H13        -0.3118  -14.4334   -3.9332 H         1 <0>         0.1105
     40 H14        -1.1103  -12.5381   -2.6712 H         1 <0>         0.1101
     41 H15        -3.3967  -11.7613   -3.7821 H         1 <0>         0.0833
     42 H16        -3.8137  -13.5023   -3.9294 H         1 <0>         0.0846
     43 H17        -3.6648  -13.6228   -1.2758 H         1 <0>         0.1114
     44 H18        -4.7256  -11.6334   -0.4145 H         1 <0>         0.1115
     45 H19        -4.2219   -9.6699   -2.1375 H         1 <0>         0.0839
     46 H20        -4.5448  -10.8582   -3.4452 H         1 <0>         0.0840
     47 H21        -7.0016  -11.0818   -2.4552 H         1 <0>         0.1116
     48 H22        -7.7443   -8.8588   -1.8814 H         1 <0>         0.1117
     49 H23        -5.5999   -7.5312   -1.0188 H         1 <0>         0.0846
     50 H24        -4.7076   -8.2774   -2.3876 H         1 <0>         0.0842
     51 H25        -6.4153   -7.0380   -4.0043 H         1 <0>         0.1117
     52 H26        -6.7422   -4.8141   -3.1267 H         1 <0>         0.1128
     53 H27        -6.6432   -5.0141   -0.4706 H         1 <0>         0.0737
     54 H28        -5.2418   -6.1136   -0.7028 H         1 <0>         0.0799
     55 H29        -3.9954   -4.2844   -1.8425 H         1 <0>         0.0744
     56 H30        -5.3967   -3.1849   -1.6102 H         1 <0>         0.0740
     57 H31        -5.2045   -3.4611    0.8565 H         1 <0>         0.1091
     58 H32        -3.8032   -4.5606    0.6243 H         1 <0>         0.1088
     59 H33        -1.1492   -1.1394    0.4394 H         1 <0>         0.0905
     60 H34        -2.5505   -0.0398    0.6715 H         1 <0>         0.0753
     61 H35         0.4070    0.4075    3.1686 H         1 <0>         0.1300
     62 H36        -0.0896    0.9159    1.5189 H         1 <0>         0.1235
@<TRIPOS>BOND
     1    1    2 1
     2    1   28 1
     3    1   29 1
     4    1   30 1
     5    2    3 1
     6    2   31 1
     7    2   32 1
     8    3    4 1
     9    3   33 1
    10    3   34 1
    11    4    5 1
    12    4   35 1
    13    4   36 1
    14    5    6 1
    15    5   37 1
    16    5   38 1
    17    6    7 2
    18    6   39 1
    19    7    8 1
    20    7   40 1
    21    8    9 1
    22    8   41 1
    23    8   42 1
    24    9   10 2
    25    9   43 1
    26   10   11 1
    27   10   44 1
    28   11   12 1
    29   11   45 1
    30   11   46 1
    31   12   13 2
    32   12   47 1
    33   13   14 1
    34   13   48 1
    35   14   15 1
    36   14   49 1
    37   14   50 1
    38   15   16 2
    39   15   51 1
    40   16   17 1
    41   16   52 1
    42   17   18 1
    43   17   53 1
    44   17   54 1
    45   18   19 1
    46   18   55 1
    47   18   56 1
    48   19   20 1
    49   19   57 1
    50   19   58 1
    51   20   21 2
    52   20   22 1
    53   22   23 1
    54   23   24 1
    55   23   59 1
    56   23   60 1
    57   24   25 1
    58   24   27 1
    59   24   26 1
    60   26   27 1
    61   26   61 1
    62   26   62 1
@<TRIPOS>MOLECULE
ZINC27647125
   62    62     0     0     0
SMALL
USER_CHARGES
[(2S)-oxiran-2-yl]methyl (5Z,8Z,11Z,14Z)-icosa-5,8,11,14-tetraenoate
@<TRIPOS>ATOM
      1 C1         -9.4455   -2.8842   11.4340 C.3       1 <0>        -0.1556
      2 C2         -9.3512   -3.2424    9.9495 C.3       1 <0>        -0.1265
      3 C3         -8.0871   -4.0685    9.7035 C.3       1 <0>        -0.1219
      4 C4         -7.9928   -4.4267    8.2190 C.3       1 <0>        -0.1150
      5 C5         -6.7288   -5.2528    7.9730 C.3       1 <0>        -0.1031
      6 C6         -6.6359   -5.6056    6.5109 C.2       1 <0>        -0.1599
      7 C7         -5.5402   -5.3438    5.8422 C.2       1 <0>        -0.1552
      8 C8         -4.3171   -4.8431    6.5663 C.3       1 <0>        -0.0844
      9 C9         -3.1395   -5.7212    6.2298 C.2       1 <0>        -0.1526
     10 C10        -2.0322   -5.1871    5.7774 C.2       1 <0>        -0.1543
     11 C11        -1.8711   -3.6888    5.7589 C.3       1 <0>        -0.0847
     12 C12        -0.5950   -3.3120    6.4663 C.2       1 <0>        -0.1526
     13 C13         0.2896   -2.5568    5.8636 C.2       1 <0>        -0.1540
     14 C14        -0.0364   -1.9301    4.5325 C.3       1 <0>        -0.0852
     15 C15         0.2265   -0.4476    4.5973 C.2       1 <0>        -0.1509
     16 C16         1.0039    0.1192    3.7082 C.2       1 <0>        -0.1612
     17 C17         1.5025   -0.6744    2.5280 C.3       1 <0>        -0.1017
     18 C18         1.1881    0.0817    1.2356 C.3       1 <0>        -0.1049
     19 C19         1.6943   -0.7240    0.0374 C.3       1 <0>        -0.1159
     20 C20         1.3846    0.0207   -1.2356 C.2       1 <0>         0.4635
     21 O1          0.8172    1.0864   -1.1893 O.2       1 <0>        -0.5042
     22 O2          1.7391   -0.5000   -2.4209 O.3       1 <0>        -0.3601
     23 C21         1.4089    0.2722   -3.6054 C.3       1 <0>         0.0460
     24 C22         1.8876   -0.4755   -4.8515 C.3       1 <0>        -0.0765
     25 H1          2.6916   -1.0040   -4.3184 H         1 <0>         0.1639
     26 C23         1.7403    0.2250   -6.2037 C.3       1 <0>        -0.0011
     27 O3          0.9046   -0.8661   -5.8123 O.3       1 <0>        -0.3028
     28 H2        -10.3543   -2.2903   11.6108 H         1 <0>         0.0539
     29 H3         -8.5618   -2.2982   11.7266 H         1 <0>         0.0537
     30 H4         -9.4882   -3.8066   12.0318 H         1 <0>         0.0538
     31 H5        -10.2349   -3.8284    9.6569 H         1 <0>         0.0609
     32 H6         -9.3085   -2.3200    9.3517 H         1 <0>         0.0609
     33 H7         -7.2034   -3.4825    9.9962 H         1 <0>         0.0612
     34 H8         -8.1297   -4.9909   10.3013 H         1 <0>         0.0616
     35 H9         -8.8765   -5.0127    7.9264 H         1 <0>         0.0619
     36 H10        -7.9501   -3.5043    7.6212 H         1 <0>         0.0622
     37 H11        -5.8451   -4.6668    8.2657 H         1 <0>         0.0763
     38 H12        -6.7715   -6.1752    8.5708 H         1 <0>         0.0690
     39 H13        -7.4881   -6.0830    6.0051 H         1 <0>         0.1105
     40 H14        -5.5130   -5.4895    4.7522 H         1 <0>         0.1101
     41 H15        -4.1045   -3.8096    6.2555 H         1 <0>         0.0833
     42 H16        -4.4965   -4.8702    7.6512 H         1 <0>         0.0846
     43 H17        -3.2098   -6.8107    6.3641 H         1 <0>         0.1114
     44 H18        -1.2200   -5.8322    5.4110 H         1 <0>         0.1116
     45 H19        -1.8305   -3.3372    4.7174 H         1 <0>         0.0839
     46 H20        -2.7256   -3.2218    6.2705 H         1 <0>         0.0841
     47 H21        -0.4063   -3.6711    7.4888 H         1 <0>         0.1117
     48 H22         1.2704   -2.3801    6.3292 H         1 <0>         0.1117
     49 H23         0.5935   -2.3804    3.7512 H         1 <0>         0.0846
     50 H24        -1.0962   -2.1045    4.2948 H         1 <0>         0.0843
     51 H25        -0.2344    0.1586    5.3911 H         1 <0>         0.1118
     52 H26         1.2927    1.1744    3.8231 H         1 <0>         0.1128
     53 H27         2.5899   -0.8163    2.6146 H         1 <0>         0.0737
     54 H28         1.0051   -1.6553    2.5092 H         1 <0>         0.0798
     55 H29         0.1007    0.2236    1.1491 H         1 <0>         0.0742
     56 H30         1.6855    1.0626    1.2544 H         1 <0>         0.0742
     57 H31         2.7817   -0.8659    0.1240 H         1 <0>         0.1094
     58 H32         1.1969   -1.7050    0.0186 H         1 <0>         0.1085
     59 H33         0.3194    0.4139   -3.6588 H         1 <0>         0.0758
     60 H34         1.9041    1.2531   -3.5535 H         1 <0>         0.0900
     61 H35         1.5115    1.2888   -6.0425 H         1 <0>         0.1235
     62 H36         2.6799    0.1335   -6.7683 H         1 <0>         0.1300
@<TRIPOS>BOND
     1    1    2 1
     2    1   28 1
     3    1   29 1
     4    1   30 1
     5    2    3 1
     6    2   31 1
     7    2   32 1
     8    3    4 1
     9    3   33 1
    10    3   34 1
    11    4    5 1
    12    4   35 1
    13    4   36 1
    14    5    6 1
    15    5   37 1
    16    5   38 1
    17    6    7 2
    18    6   39 1
    19    7    8 1
    20    7   40 1
    21    8    9 1
    22    8   41 1
    23    8   42 1
    24    9   10 2
    25    9   43 1
    26   10   11 1
    27   10   44 1
    28   11   12 1
    29   11   45 1
    30   11   46 1
    31   12   13 2
    32   12   47 1
    33   13   14 1
    34   13   48 1
    35   14   15 1
    36   14   49 1
    37   14   50 1
    38   15   16 2
    39   15   51 1
    40   16   17 1
    41   16   52 1
    42   17   18 1
    43   17   53 1
    44   17   54 1
    45   18   19 1
    46   18   55 1
    47   18   56 1
    48   19   20 1
    49   19   57 1
    50   19   58 1
    51   20   21 2
    52   20   22 1
    53   22   23 1
    54   23   24 1
    55   23   59 1
    56   23   60 1
    57   24   25 1
    58   24   27 1
    59   24   26 1
    60   26   27 1
    61   26   61 1
    62   26   62 1
