@<TRIPOS>MOLECULE
ZINC49067241
   42    45     0     0     0
SMALL
USER_CHARGES

@<TRIPOS>ATOM
      1 C1          0.0043    1.3964   -0.1191 C.ar      1 <0>        -0.1603
      2 C2          1.2066    2.0885   -0.1384 C.ar      1 <0>        -0.0312
      3 C3          2.3863    1.3636   -0.1366 C.ar      1 <0>        -0.1983
      4 C4          2.3255   -0.0281   -0.1155 C.ar      1 <0>         0.2131
      5 N1          1.1548   -0.6517   -0.0979 N.ar      1 <0>        -0.4636
      6 C5          0.0181    0.0132   -0.0987 C.ar      1 <0>         0.1318
      7 C6          3.5805   -0.8191   -0.1133 C.ar      1 <0>         0.2092
      8 C7          3.5708   -2.1162    0.4177 C.ar      1 <0>        -0.1365
      9 C8          4.7209   -2.8528    0.4245 C.ar      1 <0>        -0.0470
     10 C9          5.8844   -2.2741   -0.1083 C.ar      1 <0>        -0.1653
     11 C10         7.1107   -2.9783   -0.1349 C.ar      1 <0>         0.2279
     12 C11         8.2145   -2.3376   -0.6781 C.ar      1 <0>        -0.1941
     13 C12         8.0840   -1.0470   -1.1705 C.ar      1 <0>         0.1822
     14 N2          6.9394   -0.4043   -1.1398 N.ar      1 <0>        -0.4763
     15 C13         5.8328   -0.9590   -0.6310 C.ar      1 <0>         0.3365
     16 N3          4.6785   -0.2871   -0.6163 N.ar      1 <0>        -0.4366
     17 N4          7.2066   -4.2679    0.3665 N.pl3     1 <0>        -0.6410
     18 C14         8.4345   -4.7551    0.8032 C.ar      1 <0>         0.4091
     19 C15         8.5524   -6.0890    1.1802 C.ar      1 <0>        -0.2156
     20 C16         9.7791   -6.5602    1.6119 C.ar      1 <0>         0.0163
     21 C17        10.8509   -5.6780    1.6523 C.ar      1 <0>        -0.2825
     22 C18        10.6624   -4.3669    1.2635 C.ar      1 <0>         0.2028
     23 N5          9.4817   -3.9463    0.8512 N.ar      1 <0>        -0.5187
     24 C19        12.2058   -6.1472    2.1163 C.3       1 <0>         0.5200
     25 F1         12.9378   -6.6155    1.0199 F         1 <0>        -0.1745
     26 F2         12.8891   -5.0819    2.7126 F         1 <0>        -0.1744
     27 F3         12.0482   -7.1796    3.0472 F         1 <0>        -0.1760
     28 C20         3.7172    2.0701   -0.1576 C.3       1 <0>         0.5186
     29 F4          3.5106    3.4536   -0.1769 F         1 <0>        -0.1847
     30 F5          4.4472    1.7235    0.9845 F         1 <0>        -0.1766
     31 F6          4.4295    1.6890   -1.2998 F         1 <0>        -0.1356
     32 H1         -0.9333    1.9324   -0.1154 H         1 <0>         0.1539
     33 H2          1.2220    3.1682   -0.1548 H         1 <0>         0.1564
     34 H3         -0.9160   -0.5287   -0.0833 H         1 <0>         0.1748
     35 H4          2.6584   -2.5310    0.8200 H         1 <0>         0.1535
     36 H5          4.7353   -3.8540    0.8292 H         1 <0>         0.1398
     37 H6          9.1697   -2.8400   -0.7171 H         1 <0>         0.1672
     38 H7          8.9494   -0.5565   -1.5911 H         1 <0>         0.1717
     39 H8          6.4175   -4.8302    0.4128 H         1 <0>         0.4249
     40 H9          7.6976   -6.7477    1.1366 H         1 <0>         0.1499
     41 H10         9.9006   -7.5907    1.9111 H         1 <0>         0.1536
     42 H11        11.4931   -3.6773    1.2937 H         1 <0>         0.1757
@<TRIPOS>BOND
     1    1    6 ar
     2    1    2 ar
     3    1   32 1
     4    2    3 ar
     5    2   33 1
     6    3    4 ar
     7    3   28 1
     8    4    5 ar
     9    4    7 1
    10    5    6 ar
    11    6   34 1
    12    7   16 ar
    13    7    8 ar
    14    8    9 ar
    15    8   35 1
    16    9   10 ar
    17    9   36 1
    18   10   15 ar
    19   10   11 ar
    20   11   12 ar
    21   11   17 1
    22   12   13 ar
    23   12   37 1
    24   13   14 ar
    25   13   38 1
    26   14   15 ar
    27   15   16 ar
    28   17   18 1
    29   17   39 1
    30   18   23 ar
    31   18   19 ar
    32   19   20 ar
    33   19   40 1
    34   20   21 ar
    35   20   41 1
    36   21   22 ar
    37   21   24 1
    38   22   23 ar
    39   22   42 1
    40   24   25 1
    41   24   26 1
    42   24   27 1
    43   28   29 1
    44   28   30 1
    45   28   31 1
@<TRIPOS>MOLECULE
ZINC58655676
   55    57     0     0     0
SMALL
USER_CHARGES

@<TRIPOS>ATOM
      1 C1          0.5488    1.6611   -0.2219 C.3       1 <0>        -0.1411
      2 C2          0.4334    0.1368   -0.1575 C.3       1 <0>        -0.0014
      3 C3          1.1752   -0.3791    1.0772 C.3       1 <0>        -0.1412
      4 C4         -1.0195   -0.2538   -0.0701 C.2       1 <0>        -0.2596
      5 C5         -1.9098    0.1168    0.9294 C.2       1 <0>         0.1117
      6 N1         -3.0838   -0.4099    0.6710 N.2       1 <0>        -0.3361
      7 N2         -2.9973   -1.1475   -0.5153 N.pl3     1 <0>        -0.3639
      8 C6         -1.7117   -1.0440   -0.9772 C.2       1 <0>         0.3466
      9 N3         -1.3417   -1.6548   -2.1127 N.2       1 <0>        -0.5767
     10 C7         -2.2072   -2.3671   -2.8134 C.2       1 <0>         0.4953
     11 C8         -3.5350   -2.4948   -2.3753 C.2       1 <0>        -0.3671
     12 C9         -3.9182   -1.8828   -1.2175 C.2       1 <0>         0.5060
     13 N4         -5.2172   -1.9910   -0.7665 N.pl3     1 <0>        -0.7101
     14 C10        -6.1925   -2.7789   -1.5242 C.3       1 <0>         0.1679
     15 C11        -7.5259   -2.7365   -0.8233 C.ar      1 <0>        -0.1184
     16 C12        -7.8360   -3.6880    0.1303 C.ar      1 <0>        -0.0961
     17 C13        -9.0591   -3.6491    0.7733 C.ar      1 <0>        -0.1212
     18 C14        -9.9719   -2.6584    0.4630 C.ar      1 <0>        -0.1053
     19 C15        -9.6614   -1.7064   -0.4899 C.ar      1 <0>        -0.1214
     20 C16        -8.4366   -1.7427   -1.1298 C.ar      1 <0>        -0.0963
     21 N5         -1.8032   -2.9889   -3.9834 N.pl3     1 <0>        -0.6918
     22 C17        -0.4184   -2.8566   -4.4427 C.3       1 <0>         0.1320
     23 H1         -0.0468   -1.8624   -4.1947 H         1 <0>         0.1085
     24 C18         0.4500   -3.9119   -3.7549 C.3       1 <0>         0.0700
     25 O1          0.0275   -5.2151   -4.1614 O.3       1 <0>        -0.5699
     26 C19        -0.3623   -3.0587   -5.9582 C.3       1 <0>         0.1075
     27 H2         -0.7661   -4.0395   -6.2092 H         1 <0>         0.1172
     28 C20        -1.1915   -1.9738   -6.6485 C.3       1 <0>         0.0440
     29 O2         -1.2351   -2.2295   -8.0537 O.3       1 <0>        -0.5625
     30 O3          0.9941   -2.9748   -6.4001 O.3       1 <0>        -0.5390
     31 H3          1.5996    1.9436   -0.2851 H         1 <0>         0.0538
     32 H4          0.0202    2.0286   -1.1015 H         1 <0>         0.0506
     33 H5          0.1086    2.0970    0.6749 H         1 <0>         0.0520
     34 H6          0.8736   -0.2992   -1.0543 H         1 <0>         0.0769
     35 H7          2.2261   -0.0966    1.0141 H         1 <0>         0.0538
     36 H8          0.7351    0.0569    1.9741 H         1 <0>         0.0520
     37 H9          1.0931   -1.4650    1.1232 H         1 <0>         0.0506
     38 H10        -1.6741    0.7374    1.7813 H         1 <0>         0.1890
     39 H11        -4.2442   -3.0761   -2.9458 H         1 <0>         0.1543
     40 H12        -5.4849   -1.5453    0.0524 H         1 <0>         0.4169
     41 H13        -6.2955   -2.3630   -2.5265 H         1 <0>         0.0824
     42 H14        -5.8507   -3.8116   -1.5927 H         1 <0>         0.0828
     43 H15        -7.1229   -4.4620    0.3727 H         1 <0>         0.1248
     44 H16        -9.3017   -4.3929    1.5178 H         1 <0>         0.1267
     45 H17       -10.9277   -2.6285    0.9648 H         1 <0>         0.1260
     46 H18       -10.3746   -0.9326   -0.7326 H         1 <0>         0.1266
     47 H19        -8.1925   -0.9967   -1.8716 H         1 <0>         0.1246
     48 H20        -2.4372   -3.5119   -4.4985 H         1 <0>         0.4145
     49 H21         1.4927   -3.7638   -4.0361 H         1 <0>         0.0598
     50 H22         0.3484   -3.8178   -2.6738 H         1 <0>         0.0555
     51 H23         0.5354   -5.9352   -3.7633 H         1 <0>         0.3813
     52 H24        -2.2046   -1.9800   -6.2464 H         1 <0>         0.0549
     53 H25        -0.7358   -0.9998   -6.4704 H         1 <0>         0.0491
     54 H26        -1.7454   -1.5796   -8.5561 H         1 <0>         0.3802
     55 H27         1.4409   -2.1559   -6.1452 H         1 <0>         0.3731
@<TRIPOS>BOND
     1    1    2 1
     2    1   31 1
     3    1   32 1
     4    1   33 1
     5    2    3 1
     6    2    4 1
     7    2   34 1
     8    3   35 1
     9    3   36 1
    10    3   37 1
    11    4    8 2
    12    4    5 1
    13    5    6 2
    14    5   38 1
    15    6    7 1
    16    7   12 1
    17    7    8 1
    18    8    9 1
    19    9   10 2
    20   10   11 1
    21   10   21 1
    22   11   12 2
    23   11   39 1
    24   12   13 1
    25   13   14 1
    26   13   40 1
    27   14   15 1
    28   14   41 1
    29   14   42 1
    30   15   20 ar
    31   15   16 ar
    32   16   17 ar
    33   16   43 1
    34   17   18 ar
    35   17   44 1
    36   18   19 ar
    37   18   45 1
    38   19   20 ar
    39   19   46 1
    40   20   47 1
    41   21   22 1
    42   21   48 1
    43   22   23 1
    44   22   24 1
    45   22   26 1
    46   24   25 1
    47   24   49 1
    48   24   50 1
    49   25   51 1
    50   26   27 1
    51   26   28 1
    52   26   30 1
    53   28   29 1
    54   28   52 1
    55   28   53 1
    56   29   54 1
    57   30   55 1
@<TRIPOS>MOLECULE
ZINC03814434
   62    69     0     0     0
SMALL
USER_CHARGES

@<TRIPOS>ATOM
      1 C1         -0.1295    1.5952   -0.2973 C.3       1 <0>        -0.1687
      2 C2         -0.0862    0.0696   -0.1900 C.3       1 <0>         0.3342
      3 C3          0.5692   -0.4501   -1.4637 C.3       1 <0>         0.0405
      4 H1          1.4796    0.1159   -1.6612 H         1 <0>         0.1372
      5 C4          0.9167   -1.9328   -1.2889 C.3       1 <0>        -0.0061
      6 H2          1.3963   -2.3075   -2.1932 H         1 <0>         0.1555
      7 C5          1.8785   -2.0596   -0.1021 C.3       1 <0>        -0.1827
      8 C6          1.2061   -1.5198    1.1541 C.3       1 <0>         0.2999
      9 H3          1.9797   -1.4243    1.9161 H         1 <0>         0.1550
     10 O1          0.6555   -0.2442    0.9666 O.3       1 <0>        -0.3234
     11 N1          0.2189   -2.4746    1.6600 N.pl3     1 <0>        -0.5366
     12 C7          0.4705   -3.5508    2.4739 C.ar      1 <0>         0.1469
     13 C8          1.6649   -4.0152    3.0240 C.ar      1 <0>        -0.1522
     14 C9          1.5948   -5.1456    3.8201 C.ar      1 <0>        -0.0582
     15 C10         0.4006   -5.7997    4.0696 C.ar      1 <0>        -0.1457
     16 C11        -0.7984   -5.3597    3.5358 C.ar      1 <0>        -0.0280
     17 C12        -0.7487   -4.2198    2.7307 C.ar      1 <0>        -0.1131
     18 C13        -1.7893   -3.4830    2.0197 C.ar      1 <0>         0.0276
     19 C14        -1.1442   -2.4197    1.3841 C.ar      1 <0>         0.0376
     20 C15        -1.8806   -1.5095    0.6175 C.ar      1 <0>         0.0894
     21 N2         -1.4718   -0.3951   -0.1095 N.pl3     1 <0>        -0.5183
     22 C16        -2.5611    0.1913   -0.7090 C.ar      1 <0>         0.1618
     23 C17        -2.6521    1.3277   -1.5118 C.ar      1 <0>        -0.1305
     24 C18        -3.9109    1.6745   -1.9733 C.ar      1 <0>        -0.0737
     25 C19        -5.0393    0.9368   -1.6616 C.ar      1 <0>        -0.1358
     26 C20        -4.9745   -0.1955   -0.8662 C.ar      1 <0>        -0.0503
     27 C21        -3.7147   -0.5596   -0.3919 C.ar      1 <0>        -0.1042
     28 C22        -3.2693   -1.6660    0.4845 C.ar      1 <0>        -0.0360
     29 C23        -3.9084   -2.7313    1.1102 C.ar      1 <0>        -0.0288
     30 C24        -3.1873   -3.6421    1.8754 C.ar      1 <0>        -0.1255
     31 C25        -4.1221   -4.6480    2.4030 C.2       1 <0>         0.5632
     32 O2         -3.8062   -5.5851    3.1110 O.2       1 <0>        -0.5106
     33 N3         -5.3744   -4.3851    1.9926 N.am      1 <0>        -0.7162
     34 C26        -5.3495   -3.1771    1.1601 C.3       1 <0>         0.1358
     35 N4         -0.3067   -2.7008   -1.0216 N.4       1 <0>        -0.5252
     36 C27         0.0145   -4.1336   -0.9773 C.3       1 <0>        -0.0497
     37 O3         -0.3340   -0.2979   -2.5607 O.3       1 <0>        -0.3614
     38 C28         0.3101   -0.0933   -3.8198 C.3       1 <0>         0.0162
     39 H4          0.8261    2.0094    0.0240 H         1 <0>         0.0984
     40 H5         -0.3202    1.8814   -1.3317 H         1 <0>         0.1036
     41 H6         -0.9255    1.9818    0.3392 H         1 <0>         0.0921
     42 H7          2.1370   -3.1081    0.0458 H         1 <0>         0.1233
     43 H8          2.7835   -1.4869   -0.3048 H         1 <0>         0.1455
     44 H9          2.6036   -3.5149    2.8368 H         1 <0>         0.1365
     45 H10         2.5026   -5.5304    4.2610 H         1 <0>         0.1359
     46 H11         0.4045   -6.6780    4.6980 H         1 <0>         0.1352
     47 H12        -1.7278   -5.8736    3.7323 H         1 <0>         0.1600
     48 H13        -1.7792    1.9122   -1.7624 H         1 <0>         0.1440
     49 H14        -4.0153    2.5500   -2.5970 H         1 <0>         0.1336
     50 H15        -5.9967    1.2527   -2.0488 H         1 <0>         0.1332
     51 H16        -5.8575   -0.7687   -0.6249 H         1 <0>         0.1415
     52 H17        -6.1628   -4.9065    2.2103 H         1 <0>         0.4348
     53 H18        -5.9671   -2.3994    1.6094 H         1 <0>         0.1115
     54 H19        -5.7060   -3.4063    0.1559 H         1 <0>         0.1103
     55 H20        -0.6958   -2.4158   -0.1353 H         1 <0>         0.4186
     56 H21         0.4349   -4.4415   -1.9347 H         1 <0>         0.1256
     57 H22         0.7403   -4.3189   -0.1854 H         1 <0>         0.1191
     58 H23        -0.8932   -4.7035   -0.7789 H         1 <0>         0.1256
     59 H24         0.9168    0.8112   -3.7748 H         1 <0>         0.0633
     60 H25         0.9482   -0.9479   -4.0446 H         1 <0>         0.0514
     61 H26        -0.4433    0.0130   -4.6003 H         1 <0>         0.1100
     62 H27        -0.9785   -2.5293   -1.7546 H         1 <0>         0.4274
@<TRIPOS>BOND
     1    1    2 1
     2    1   39 1
     3    1   40 1
     4    1   41 1
     5    2   10 1
     6    2   21 1
     7    2    3 1
     8    3    4 1
     9    3    5 1
    10    3   37 1
    11    5    6 1
    12    5    7 1
    13    5   35 1
    14    7    8 1
    15    7   42 1
    16    7   43 1
    17    8    9 1
    18    8   10 1
    19    8   11 1
    20   11   19 1
    21   11   12 1
    22   12   17 ar
    23   12   13 ar
    24   13   14 ar
    25   13   44 1
    26   14   15 ar
    27   14   45 1
    28   15   16 ar
    29   15   46 1
    30   16   17 ar
    31   16   47 1
    32   17   18 1
    33   18   30 ar
    34   18   19 ar
    35   19   20 ar
    36   20   28 ar
    37   20   21 1
    38   21   22 1
    39   22   27 ar
    40   22   23 ar
    41   23   24 ar
    42   23   48 1
    43   24   25 ar
    44   24   49 1
    45   25   26 ar
    46   25   50 1
    47   26   27 ar
    48   26   51 1
    49   27   28 1
    50   28   29 ar
    51   29   34 1
    52   29   30 ar
    53   30   31 1
    54   31   32 2
    55   31   33 am
    56   33   34 1
    57   33   52 1
    58   34   53 1
    59   34   54 1
    60   35   36 1
    61   35   55 1
    62   35   62 1
    63   36   56 1
    64   36   57 1
    65   36   58 1
    66   37   38 1
    67   38   59 1
    68   38   60 1
    69   38   61 1
@<TRIPOS>MOLECULE
ZINC14852066
   48    49     0     0     0
SMALL
USER_CHARGES

@<TRIPOS>ATOM
      1 C1         -0.0187    1.5258    0.0104 C.3       1 <0>        -0.1902
      2 C2          0.0021   -0.0041    0.0020 C.3       1 <0>         0.1099
      3 H1         -1.0213   -0.3792    0.0098 H         1 <0>         0.1225
      4 C3          0.7117   -0.4941   -1.2603 C.3       1 <0>        -0.1315
      5 C4          1.3803    0.6570   -1.9583 C.2       1 <0>        -0.0692
      6 C5          2.7017    0.8181   -1.8493 C.2       1 <0>        -0.2242
      7 C6          3.3680    1.9252   -2.5435 C.2       1 <0>         0.3696
      8 O1          2.7115    2.7060   -3.2003 O.2       1 <0>        -0.4479
      9 C7          4.8559    2.0998   -2.4470 C.3       1 <0>         0.0704
     10 H2          5.3262    1.1283   -2.2950 H         1 <0>         0.0907
     11 C8          5.1895    3.0179   -1.2680 C.3       1 <0>         0.1256
     12 H3          5.7479    3.8823   -1.6273 H         1 <0>         0.0798
     13 C9          6.0360    2.2514   -0.2480 C.3       1 <0>        -0.1248
     14 C10         5.2825    2.1507    1.0538 C.2       1 <0>        -0.1283
     15 C11         4.6042    1.0526    1.3362 C.2       1 <0>        -0.1087
     16 C12         3.8388    0.8902    2.5804 C.ar      1 <0>         0.0721
     17 C13         4.3861    1.3164    3.7898 C.ar      1 <0>        -0.1728
     18 C14         3.6817    1.1455    4.9738 C.ar      1 <0>         0.1859
     19 C15         2.4255    0.5534    4.9682 C.ar      1 <0>        -0.2571
     20 C16         1.8630    0.1324    3.7761 C.ar      1 <0>         0.2113
     21 C17         2.5606    0.2946    2.5690 C.ar      1 <0>        -0.2000
     22 C18         1.9781   -0.1421    1.2956 C.2       1 <0>         0.5268
     23 O2          2.6973   -0.2041    0.3174 O.2       1 <0>        -0.4835
     24 O3          0.6878   -0.4748    1.1642 O.3       1 <0>        -0.3491
     25 O4          0.6328   -0.4392    3.7740 O.3       1 <0>        -0.4807
     26 O5          4.2252    1.5601    6.1463 O.3       1 <0>        -0.3078
     27 C19         3.4497    1.3557    7.3291 C.3       1 <0>         0.0221
     28 O6          3.9788    3.4568   -0.6486 O.3       1 <0>        -0.5534
     29 O7          5.3461    2.6819   -3.6565 O.3       1 <0>        -0.5470
     30 H4          1.0039    1.9031    0.0027 H         1 <0>         0.0708
     31 H5         -0.5459    1.8868   -0.8726 H         1 <0>         0.0797
     32 H6         -0.5289    1.8773    0.9072 H         1 <0>         0.0648
     33 H7          1.4619   -1.2365   -0.9879 H         1 <0>         0.1008
     34 H8         -0.0172   -0.9492   -1.9309 H         1 <0>         0.0831
     35 H9          0.7985    1.3591   -2.5388 H         1 <0>         0.1164
     36 H10         3.2734    0.1369   -1.2412 H         1 <0>         0.1643
     37 H11         6.2432    1.2504   -0.6265 H         1 <0>         0.0830
     38 H12         6.9752    2.7800   -0.0845 H         1 <0>         0.0857
     39 H13         5.2989    2.9862    1.7379 H         1 <0>         0.1128
     40 H14         4.6552    0.2260    0.6308 H         1 <0>         0.1420
     41 H15         5.3612    1.7805    3.8056 H         1 <0>         0.1441
     42 H16         1.8873    0.4210    5.8951 H         1 <0>         0.1447
     43 H17        -0.0933    0.1904    3.6668 H         1 <0>         0.4007
     44 H18         2.5035    1.8894    7.2399 H         1 <0>         0.0607
     45 H19         3.2556    0.2907    7.4566 H         1 <0>         0.0615
     46 H20         3.9986    1.7309    8.1928 H         1 <0>         0.1065
     47 H21         4.1144    4.0435    0.1081 H         1 <0>         0.3819
     48 H22         5.1714    2.1527   -4.4467 H         1 <0>         0.3861
@<TRIPOS>BOND
     1    1    2 1
     2    1   30 1
     3    1   31 1
     4    1   32 1
     5    2    3 1
     6    2   24 1
     7    2    4 1
     8    4    5 1
     9    4   33 1
    10    4   34 1
    11    5    6 2
    12    5   35 1
    13    6    7 1
    14    6   36 1
    15    7    8 2
    16    7    9 1
    17    9   10 1
    18    9   11 1
    19    9   29 1
    20   11   12 1
    21   11   13 1
    22   11   28 1
    23   13   14 1
    24   13   37 1
    25   13   38 1
    26   14   15 2
    27   14   39 1
    28   15   16 1
    29   15   40 1
    30   16   21 ar
    31   16   17 ar
    32   17   18 ar
    33   17   41 1
    34   18   19 ar
    35   18   26 1
    36   19   20 ar
    37   19   42 1
    38   20   21 ar
    39   20   25 1
    40   21   22 1
    41   22   23 2
    42   22   24 1
    43   25   43 1
    44   26   27 1
    45   27   44 1
    46   27   45 1
    47   27   46 1
    48   28   47 1
    49   29   48 1
@<TRIPOS>MOLECULE
ZINC14852066
   48    49     0     0     0
SMALL
USER_CHARGES

@<TRIPOS>ATOM
      1 C1         -0.0187    1.5258    0.0104 C.3       1 <0>        -0.1782
      2 C2          0.0021   -0.0041    0.0020 C.3       1 <0>         0.1059
      3 H1         -1.0202   -0.3821    0.0097 H         1 <0>         0.1065
      4 C3          0.7214   -0.4993   -1.2571 C.3       1 <0>        -0.2337
      5 C4          0.9926    0.6676   -2.1719 C.2       1 <0>        -0.0239
      6 C5          2.2327    0.8804   -2.6274 C.2       1 <0>        -0.2524
      7 C6          3.3216   -0.0106   -2.2391 C.2       1 <0>         0.3565
      8 O1          3.0972   -0.9579   -1.5151 O.2       1 <0>        -0.3921
      9 C7          4.7243    0.2403   -2.7329 C.3       1 <0>         0.0775
     10 H2          4.6903    0.5739   -3.7700 H         1 <0>         0.0902
     11 C8          5.5353   -1.0528   -2.6394 C.3       1 <0>         0.1183
     12 H3          4.8562   -1.9036   -2.5842 H         1 <0>         0.0767
     13 C9          6.4150   -1.0217   -1.3875 C.3       1 <0>        -0.1211
     14 C10         5.7492   -1.8245   -0.2972 C.2       1 <0>        -0.1407
     15 C11         4.7118   -1.3199    0.3472 C.2       1 <0>        -0.1201
     16 C12         4.0408   -2.0709    1.4214 C.ar      1 <0>         0.0738
     17 C13         4.7005   -3.0796    2.1095 C.ar      1 <0>        -0.1758
     18 C14         4.0463   -3.7677    3.1229 C.ar      1 <0>         0.1867
     19 C15         2.7421   -3.4458    3.4552 C.ar      1 <0>        -0.2633
     20 C16         2.0660   -2.4427    2.7907 C.ar      1 <0>         0.2133
     21 C17         2.7063   -1.7502    1.7571 C.ar      1 <0>        -0.2009
     22 C18         2.0150   -0.7034    1.0028 C.2       1 <0>         0.5163
     23 O2          2.6441   -0.0218    0.2169 O.2       1 <0>        -0.4694
     24 O3          0.6975   -0.4800    1.1622 O.3       1 <0>        -0.3396
     25 O4          0.7918   -2.1312    3.1363 O.3       1 <0>        -0.4793
     26 O5          4.6885   -4.7601    3.7898 O.3       1 <0>        -0.3082
     27 C19         3.9578   -5.4273    4.8208 C.3       1 <0>         0.0226
     28 O6          6.3629   -1.1796   -3.7975 O.3       1 <0>        -0.5677
     29 O7          5.3395    1.2482   -1.9281 O.3       1 <0>        -0.5329
     30 H4          1.0039    1.9031    0.0027 H         1 <0>         0.0702
     31 H5         -0.5459    1.8868   -0.8726 H         1 <0>         0.0718
     32 H6         -0.5289    1.8773    0.9072 H         1 <0>         0.0632
     33 H7          1.6646   -0.9678   -0.9763 H         1 <0>         0.1854
     34 H8          0.0935   -1.2264   -1.7721 H         1 <0>         0.0805
     35 H9          0.1918    1.3244   -2.4742 H         1 <0>         0.1212
     36 H10         2.4263    1.7062   -3.2931 H         1 <0>         0.1283
     37 H11         7.3892   -1.4544   -1.6156 H         1 <0>         0.0742
     38 H12         6.5412    0.0090   -1.0560 H         1 <0>         0.1072
     39 H13         6.1067   -2.8144   -0.0623 H         1 <0>         0.1057
     40 H14         4.3547   -0.3298    0.0969 H         1 <0>         0.1711
     41 H15         5.7205   -3.3292    1.8570 H         1 <0>         0.1430
     42 H16         2.2456   -3.9881    4.2463 H         1 <0>         0.1411
     43 H17         0.7249   -1.4505    3.8198 H         1 <0>         0.3997
     44 H18         3.6630   -4.7055    5.5826 H         1 <0>         0.0602
     45 H19         3.0675   -5.8894    4.3943 H         1 <0>         0.0606
     46 H20         4.5854   -6.1958    5.2719 H         1 <0>         0.1057
     47 H21         6.9070   -1.9789   -3.8064 H         1 <0>         0.3845
     48 H22         4.8770    2.0973   -1.9394 H         1 <0>         0.3814
@<TRIPOS>BOND
     1    1    2 1
     2    1   30 1
     3    1   31 1
     4    1   32 1
     5    2    3 1
     6    2   24 1
     7    2    4 1
     8    4    5 1
     9    4   33 1
    10    4   34 1
    11    5    6 2
    12    5   35 1
    13    6    7 1
    14    6   36 1
    15    7    8 2
    16    7    9 1
    17    9   10 1
    18    9   11 1
    19    9   29 1
    20   11   12 1
    21   11   13 1
    22   11   28 1
    23   13   14 1
    24   13   37 1
    25   13   38 1
    26   14   15 2
    27   14   39 1
    28   15   16 1
    29   15   40 1
    30   16   21 ar
    31   16   17 ar
    32   17   18 ar
    33   17   41 1
    34   18   19 ar
    35   18   26 1
    36   19   20 ar
    37   19   42 1
    38   20   21 ar
    39   20   25 1
    40   21   22 1
    41   22   23 2
    42   22   24 1
    43   25   43 1
    44   26   27 1
    45   27   44 1
    46   27   45 1
    47   27   46 1
    48   28   47 1
    49   29   48 1
@<TRIPOS>MOLECULE
ZINC00582590
   54    56     0     0     0
SMALL
USER_CHARGES

@<TRIPOS>ATOM
      1 C1          0.3210   -0.2542   -0.2950 C.3       1 <0>        -0.1471
      2 C2         -0.6989    0.1485    0.7720 C.3       1 <0>        -0.0980
      3 C3         -0.9526    1.6552    0.6922 C.3       1 <0>        -0.1473
      4 C4         -2.0102   -0.6029    0.5335 C.3       1 <0>         0.1711
      5 H1         -2.4152   -0.3269   -0.4401 H         1 <0>         0.1082
      6 C5         -3.0151   -0.2346    1.6269 C.3       1 <0>         0.0616
      7 O1         -2.4404   -0.4943    2.9092 O.3       1 <0>        -0.5710
      8 N1         -1.7592   -2.0458    0.5668 N.pl3     1 <0>        -0.6786
      9 C6         -2.6062   -2.9119   -0.1051 C.ar      1 <0>         0.6293
     10 N2         -3.6349   -2.4098   -0.7763 N.ar      1 <0>        -0.6062
     11 C7         -4.4751   -3.1988   -1.4363 C.ar      1 <0>         0.5376
     12 C8         -4.2539   -4.5867   -1.4114 C.ar      1 <0>        -0.1535
     13 C9         -3.1523   -5.0726   -0.6878 C.ar      1 <0>         0.3509
     14 N3         -2.3585   -4.2107   -0.0601 N.ar      1 <0>        -0.6161
     15 N4         -3.1762   -6.4368   -0.8324 N.pl3     1 <0>        -0.4727
     16 C10        -4.2520   -6.7464   -1.6124 C.2       1 <0>         0.2292
     17 N5         -4.8825   -5.6599   -1.9508 N.2       1 <0>        -0.4526
     18 C11        -2.2219   -7.3866   -0.2551 C.3       1 <0>         0.1354
     19 C12        -2.9632   -8.3593    0.6643 C.3       1 <0>        -0.1619
     20 C13        -1.5372   -8.1679   -1.3784 C.3       1 <0>        -0.1618
     21 N6         -5.5464   -2.6655   -2.1337 N.pl3     1 <0>        -0.6280
     22 C14        -5.6825   -1.2864   -2.2512 C.ar      1 <0>         0.1488
     23 C15        -4.5525   -0.4885   -2.4166 C.ar      1 <0>        -0.1220
     24 C16        -4.6779    0.8657   -2.5326 C.ar      1 <0>        -0.0594
     25 C17        -5.9451    1.4590   -2.4857 C.ar      1 <0>        -0.1364
     26 C18        -7.0831    0.6589   -2.3195 C.ar      1 <0>         0.0117
     27 C19        -6.9477   -0.7079   -2.2089 C.ar      1 <0>        -0.1557
     28 Cl1        -8.6583    1.3861   -2.2597 Cl        1 <0>        -0.0441
     29 C20        -6.0813    2.9182   -2.6102 C.2       1 <0>         0.5168
     30 O2         -5.0862    3.6154   -2.7549 O.co2     1 <0>        -0.6900
     31 O3         -7.1896    3.4349   -2.5690 O.co2     1 <0>        -0.6630
     32 H2          1.2552    0.2811   -0.1251 H         1 <0>         0.0549
     33 H3          0.5018   -1.3276   -0.2382 H         1 <0>         0.0529
     34 H4         -0.0674   -0.0030   -1.2820 H         1 <0>         0.0568
     35 H5         -0.3105   -0.1028    1.7590 H         1 <0>         0.0821
     36 H6         -1.3236    1.9090   -0.3008 H         1 <0>         0.0629
     37 H7         -1.6929    1.9391    1.4402 H         1 <0>         0.0595
     38 H8         -0.0222    2.1908    0.8803 H         1 <0>         0.0576
     39 H9         -3.2659    0.8232    1.5485 H         1 <0>         0.0601
     40 H10        -3.9187   -0.8321    1.5060 H         1 <0>         0.0503
     41 H11        -3.0232   -0.2835    3.6514 H         1 <0>         0.3749
     42 H12        -0.9999   -2.3948    1.0594 H         1 <0>         0.4127
     43 H13        -4.5374   -7.7457   -1.9061 H         1 <0>         0.2129
     44 H14        -1.4715   -6.8438    0.3196 H         1 <0>         0.1056
     45 H15        -3.7136   -8.9021    0.0895 H         1 <0>         0.0647
     46 H16        -2.2531   -9.0660    1.0938 H         1 <0>         0.0772
     47 H17        -3.4510   -7.8027    1.4645 H         1 <0>         0.0630
     48 H18        -1.0091   -7.4750   -2.0333 H         1 <0>         0.0633
     49 H19        -0.8272   -8.8746   -0.9489 H         1 <0>         0.0771
     50 H20        -2.2876   -8.7108   -1.9531 H         1 <0>         0.0647
     51 H21        -6.2018   -3.2539   -2.5402 H         1 <0>         0.4250
     52 H22        -3.5736   -0.9432   -2.4528 H         1 <0>         0.1261
     53 H23        -3.7989    1.4800   -2.6603 H         1 <0>         0.1350
     54 H24        -7.8223   -1.3294   -2.0853 H         1 <0>         0.1255
@<TRIPOS>BOND
     1    1    2 1
     2    1   32 1
     3    1   33 1
     4    1   34 1
     5    2    3 1
     6    2    4 1
     7    2   35 1
     8    3   36 1
     9    3   37 1
    10    3   38 1
    11    4    5 1
    12    4    6 1
    13    4    8 1
    14    6    7 1
    15    6   39 1
    16    6   40 1
    17    7   41 1
    18    8    9 1
    19    8   42 1
    20    9   14 ar
    21    9   10 ar
    22   10   11 ar
    23   11   12 ar
    24   11   21 1
    25   12   17 1
    26   12   13 ar
    27   13   14 ar
    28   13   15 1
    29   15   16 1
    30   15   18 1
    31   16   17 2
    32   16   43 1
    33   18   19 1
    34   18   20 1
    35   18   44 1
    36   19   45 1
    37   19   46 1
    38   19   47 1
    39   20   48 1
    40   20   49 1
    41   20   50 1
    42   21   22 1
    43   21   51 1
    44   22   27 ar
    45   22   23 ar
    46   23   24 ar
    47   23   52 1
    48   24   25 ar
    49   24   53 1
    50   25   26 ar
    51   25   29 1
    52   26   27 ar
    53   26   28 1
    54   27   54 1
    55   29   30 2
    56   29   31 1
@<TRIPOS>MOLECULE
ZINC00582575
   52    54     0     0     0
SMALL
USER_CHARGES

@<TRIPOS>ATOM
      1 C1          0.4280   -0.4909    1.8513 C.3       1 <0>        -0.1353
      2 C2         -0.1373    0.3043    0.6728 C.3       1 <0>        -0.0998
      3 C3          0.1219    1.7960    0.8928 C.3       1 <0>        -0.1438
      4 C4          0.5445   -0.1465   -0.6206 C.3       1 <0>         0.1707
      5 H1          1.6116    0.0682   -0.5626 H         1 <0>         0.1020
      6 C5         -0.0633    0.6053   -1.8064 C.3       1 <0>         0.0638
      7 O1         -1.4784    0.4070   -1.8214 O.3       1 <0>        -0.5678
      8 N1          0.3453   -1.5866   -0.8014 N.pl3     1 <0>        -0.6843
      9 C6          1.2038   -2.4865   -0.1915 C.ar      1 <0>         0.6278
     10 N2          2.1960   -2.0197    0.5559 N.ar      1 <0>        -0.6013
     11 C7          3.0454   -2.8423    1.1611 C.ar      1 <0>         0.5297
     12 C8          2.8737   -4.2277    0.9949 C.ar      1 <0>        -0.1465
     13 C9          1.8096   -4.6754    0.1948 C.ar      1 <0>         0.3495
     14 N3          1.0032   -3.7820   -0.3699 N.ar      1 <0>        -0.6072
     15 N4          1.8776   -6.0456    0.2064 N.pl3     1 <0>        -0.4700
     16 C10         2.9424   -6.3955    0.9844 C.2       1 <0>         0.2415
     17 N5          3.5251   -5.3277    1.4458 N.2       1 <0>        -0.4572
     18 C11         0.9729   -6.9645   -0.4890 C.3       1 <0>         0.1340
     19 C12         1.7722   -7.8175   -1.4761 C.3       1 <0>        -0.1629
     20 C13         0.2864   -7.8742    0.5318 C.3       1 <0>        -0.1632
     21 N6          4.0779   -2.3459    1.9386 N.pl3     1 <0>        -0.6355
     22 C14         4.2903   -0.9669    2.0207 C.ar      1 <0>         0.1742
     23 C15         4.0436   -0.1577    0.9185 C.ar      1 <0>        -0.1100
     24 C16         4.2538    1.2045    1.0024 C.ar      1 <0>        -0.0884
     25 C17         4.7100    1.7642    2.1819 C.ar      1 <0>        -0.1271
     26 C18         4.9569    0.9617    3.2819 C.ar      1 <0>        -0.0129
     27 C19         4.7429   -0.4020    3.2058 C.ar      1 <0>        -0.1416
     28 Cl1         5.5294    1.6687    4.7604 Cl        1 <0>        -0.0669
     29 H2          0.2433   -1.5536    1.6946 H         1 <0>         0.0430
     30 H3          1.5012   -0.3158    1.9263 H         1 <0>         0.0707
     31 H4         -0.0578   -0.1697    2.7727 H         1 <0>         0.0403
     32 H5         -1.2106    0.1292    0.5978 H         1 <0>         0.0766
     33 H6          1.1945    1.9872    0.8596 H         1 <0>         0.0559
     34 H7         -0.3739    2.3703    0.1101 H         1 <0>         0.0538
     35 H8         -0.2703    2.0934    1.8654 H         1 <0>         0.0560
     36 H9          0.1535    1.6693   -1.7118 H         1 <0>         0.0658
     37 H10         0.3663    0.2281   -2.7345 H         1 <0>         0.0519
     38 H11        -1.9308    0.8561   -2.5484 H         1 <0>         0.3823
     39 H12        -0.3878   -1.9099   -1.3481 H         1 <0>         0.4179
     40 H13         3.2553   -7.4091    1.1873 H         1 <0>         0.2164
     41 H14         0.2195   -6.3923   -1.0303 H         1 <0>         0.1069
     42 H15         2.5256   -8.3897   -0.9348 H         1 <0>         0.0660
     43 H16         1.0991   -8.5011   -1.9935 H         1 <0>         0.0802
     44 H17         2.2613   -7.1693   -2.2033 H         1 <0>         0.0632
     45 H18        -0.2830   -7.2665    1.2351 H         1 <0>         0.0634
     46 H19        -0.3867   -8.5579    0.0144 H         1 <0>         0.0803
     47 H20         1.0399   -8.4464    1.0731 H         1 <0>         0.0660
     48 H21         4.6539   -2.9553    2.4263 H         1 <0>         0.4297
     49 H22         3.6881   -0.5939   -0.0033 H         1 <0>         0.1411
     50 H23         4.0621    1.8335    0.1457 H         1 <0>         0.1337
     51 H24         4.8742    2.8298    2.2445 H         1 <0>         0.1331
     52 H25         4.9317   -1.0277    4.0656 H         1 <0>         0.1347
@<TRIPOS>BOND
     1    1    2 1
     2    1   29 1
     3    1   30 1
     4    1   31 1
     5    2    3 1
     6    2    4 1
     7    2   32 1
     8    3   33 1
     9    3   34 1
    10    3   35 1
    11    4    5 1
    12    4    6 1
    13    4    8 1
    14    6    7 1
    15    6   36 1
    16    6   37 1
    17    7   38 1
    18    8    9 1
    19    8   39 1
    20    9   14 ar
    21    9   10 ar
    22   10   11 ar
    23   11   12 ar
    24   11   21 1
    25   12   17 1
    26   12   13 ar
    27   13   14 ar
    28   13   15 1
    29   15   16 1
    30   15   18 1
    31   16   17 2
    32   16   40 1
    33   18   19 1
    34   18   20 1
    35   18   41 1
    36   19   42 1
    37   19   43 1
    38   19   44 1
    39   20   45 1
    40   20   46 1
    41   20   47 1
    42   21   22 1
    43   21   48 1
    44   22   27 ar
    45   22   23 ar
    46   23   24 ar
    47   23   49 1
    48   24   25 ar
    49   24   50 1
    50   25   26 ar
    51   25   51 1
    52   26   27 ar
    53   26   28 1
    54   27   52 1
@<TRIPOS>MOLECULE
ZINC28565323
   38    42     0     0     0
SMALL
USER_CHARGES

@<TRIPOS>ATOM
      1 C1         -0.0902    1.2402   -0.1765 C.ar      1 <0>        -0.1048
      2 C2          0.4224    0.7916    1.0274 C.ar      1 <0>        -0.1183
      3 C3          1.6463    0.1550    1.0650 C.ar      1 <0>        -0.0805
      4 C4          2.3660   -0.0359   -0.1132 C.ar      1 <0>        -0.0162
      5 C5          1.8444    0.4178   -1.3235 C.ar      1 <0>        -0.0839
      6 C6          0.6197    1.0535   -1.3490 C.ar      1 <0>        -0.1198
      7 C7          3.6819   -0.7188   -0.0793 C.2       1 <0>         0.1864
      8 C8          3.9962   -1.8600    0.6828 C.2       1 <0>        -0.1993
      9 C9          5.3358   -2.1727    0.4215 C.2       1 <0>         0.1317
     10 C10         6.1858   -3.1894    0.8872 C.2       1 <0>        -0.1233
     11 C11         7.4726   -3.2375    0.4421 C.2       1 <0>        -0.0680
     12 C12         7.9250   -2.2726   -0.4716 C.2       1 <0>        -0.1627
     13 C13         7.0938   -1.3023   -0.9081 C.2       1 <0>         0.1193
     14 N1          5.8020   -1.2425   -0.4707 N.pl3     1 <0>        -0.2666
     15 N2          4.7531   -0.3619   -0.7629 N.2       1 <0>        -0.3037
     16 C14         3.0835   -2.5907    1.5888 C.ar      1 <0>         0.1041
     17 C15         3.5041   -2.9380    2.8729 C.ar      1 <0>        -0.0230
     18 C16         2.5977   -3.6264    3.6812 C.ar      1 <0>        -0.1857
     19 C17         2.6234   -4.1621    5.0402 C.2       1 <0>         0.3698
     20 N3          1.4623   -4.7186    5.2659 N.2       1 <0>        -0.2878
     21 N4          0.6426   -4.5949    4.1396 N.pl3     1 <0>        -0.4823
     22 H1         -0.2651   -4.9293    4.0671 H         1 <0>         0.4510
     23 C18         1.3208   -3.9275    3.1558 C.ar      1 <0>         0.2677
     24 N5          1.0216   -3.5509    1.9199 N.ar      1 <0>        -0.2413
     25 N6          1.8567   -2.9133    1.1816 N.ar      1 <0>        -0.1573
     26 N7          3.6942   -4.0930    5.9352 N.pl3     1 <0>        -0.8260
     27 H2         -1.0503    1.7341   -0.2018 H         1 <0>         0.1250
     28 H3         -0.1361    0.9401    1.9398 H         1 <0>         0.1241
     29 H4          2.0459   -0.1942    2.0056 H         1 <0>         0.1141
     30 H5          2.3979    0.2729   -2.2395 H         1 <0>         0.1262
     31 H6          0.2147    1.4058   -2.2861 H         1 <0>         0.1274
     32 H7          5.8235   -3.9245    1.5905 H         1 <0>         0.1458
     33 H8          8.1398   -4.0121    0.7901 H         1 <0>         0.1458
     34 H9          8.9442   -2.3065   -0.8273 H         1 <0>         0.1598
     35 H10         7.4546   -0.5659   -1.6108 H         1 <0>         0.1735
     36 H11         4.4922   -2.6845    3.2275 H         1 <0>         0.1500
     37 H12         4.5194   -3.6566    5.6714 H         1 <0>         0.4150
     38 H13         3.6124   -4.4814    6.8203 H         1 <0>         0.4138
@<TRIPOS>BOND
     1    1    6 ar
     2    1    2 ar
     3    1   27 1
     4    2    3 ar
     5    2   28 1
     6    3    4 ar
     7    3   29 1
     8    4    5 ar
     9    4    7 1
    10    5    6 ar
    11    5   30 1
    12    6   31 1
    13    7   15 2
    14    7    8 1
    15    8    9 2
    16    8   16 1
    17    9   14 1
    18    9   10 1
    19   10   11 2
    20   10   32 1
    21   11   12 1
    22   11   33 1
    23   12   13 2
    24   12   34 1
    25   13   14 1
    26   13   35 1
    27   14   15 1
    28   16   25 ar
    29   16   17 ar
    30   17   18 ar
    31   17   36 1
    32   18   23 ar
    33   18   19 1
    34   19   20 2
    35   19   26 1
    36   20   21 1
    37   21   22 1
    38   21   23 1
    39   23   24 ar
    40   24   25 ar
    41   26   37 1
    42   26   38 1
@<TRIPOS>MOLECULE
ZINC28565323
   38    42     0     0     0
SMALL
USER_CHARGES

@<TRIPOS>ATOM
      1 C1         -0.0886    1.2433   -0.1724 C.ar      1 <0>        -0.1057
      2 C2          0.4240    0.7938    1.0312 C.ar      1 <0>        -0.1183
      3 C3          1.6475    0.1564    1.0681 C.ar      1 <0>        -0.0793
      4 C4          2.3669   -0.0342   -0.1105 C.ar      1 <0>        -0.0139
      5 C5          1.8453    0.4209   -1.3204 C.ar      1 <0>        -0.0850
      6 C6          0.6209    1.0570   -1.3452 C.ar      1 <0>        -0.1204
      7 C7          3.6823   -0.7179   -0.0773 C.2       1 <0>         0.1806
      8 C8          3.9958   -1.8597    0.6838 C.2       1 <0>        -0.1843
      9 C9          5.3350   -2.1733    0.4226 C.2       1 <0>         0.1231
     10 C10         6.1843   -3.1908    0.8875 C.2       1 <0>        -0.1199
     11 C11         7.4710   -3.2394    0.4426 C.2       1 <0>        -0.0733
     12 C12         7.9246   -2.2742   -0.4705 C.2       1 <0>        -0.1646
     13 C13         7.0946   -1.3029   -0.9066 C.2       1 <0>         0.1188
     14 N1          5.8022   -1.2423   -0.4693 N.pl3     1 <0>        -0.2687
     15 N2          4.7539   -0.3611   -0.7612 N.2       1 <0>        -0.3047
     16 C14         3.0825   -2.5901    1.5898 C.ar      1 <0>         0.0549
     17 C15         3.5124   -2.9304    2.8660 C.ar      1 <0>         0.0093
     18 C16         2.6090   -3.6233    3.6886 C.ar      1 <0>        -0.2747
     19 C17         2.6288   -4.1358    4.9826 C.2       1 <0>         0.4219
     20 N3          1.4342   -4.7069    5.2102 N.pl3     1 <0>        -0.4345
     21 H1          1.1748   -5.1434    6.0366 H         1 <0>         0.4475
     22 N4          0.6193   -4.5794    4.0800 N.2       1 <0>        -0.2867
     23 C18         1.2778   -3.9354    3.1358 C.ar      1 <0>         0.2289
     24 N5          0.9977   -3.5440    1.8832 N.ar      1 <0>        -0.2003
     25 N6          1.8555   -2.9077    1.1707 N.ar      1 <0>        -0.1332
     26 N7          3.6873   -4.0698    5.8729 N.pl3     1 <0>        -0.8273
     27 H2         -1.0486    1.7376   -0.1972 H         1 <0>         0.1243
     28 H3         -0.1340    0.9423    1.9438 H         1 <0>         0.1236
     29 H4          2.0470   -0.1938    2.0084 H         1 <0>         0.1148
     30 H5          2.3985    0.2763   -2.2366 H         1 <0>         0.1255
     31 H6          0.2156    1.4097   -2.2821 H         1 <0>         0.1266
     32 H7          5.8214   -3.9262    1.5903 H         1 <0>         0.1441
     33 H8          8.1376   -4.0149    0.7901 H         1 <0>         0.1435
     34 H9          8.9438   -2.3088   -0.8260 H         1 <0>         0.1580
     35 H10         7.4563   -0.5664   -1.6088 H         1 <0>         0.1720
     36 H11         4.5024   -2.6726    3.2121 H         1 <0>         0.1405
     37 H12         4.5138   -3.6339    5.6123 H         1 <0>         0.4247
     38 H13         3.6024   -4.4595    6.7571 H         1 <0>         0.4122
@<TRIPOS>BOND
     1    1    6 ar
     2    1    2 ar
     3    1   27 1
     4    2    3 ar
     5    2   28 1
     6    3    4 ar
     7    3   29 1
     8    4    5 ar
     9    4    7 1
    10    5    6 ar
    11    5   30 1
    12    6   31 1
    13    7   15 2
    14    7    8 1
    15    8    9 2
    16    8   16 1
    17    9   14 1
    18    9   10 1
    19   10   11 2
    20   10   32 1
    21   11   12 1
    22   11   33 1
    23   12   13 2
    24   12   34 1
    25   13   14 1
    26   13   35 1
    27   14   15 1
    28   16   25 ar
    29   16   17 ar
    30   17   18 ar
    31   17   36 1
    32   18   23 ar
    33   18   19 2
    34   19   20 1
    35   19   26 1
    36   20   21 1
    37   20   22 1
    38   22   23 2
    39   23   24 ar
    40   24   25 ar
    41   26   37 1
    42   26   38 1
@<TRIPOS>MOLECULE
ZINC34640412
   43    46     0     0     0
SMALL
USER_CHARGES

@<TRIPOS>ATOM
      1 C1         -0.0168    1.3908    0.0097 C.ar      1 <0>        -0.1104
      2 C2          1.1640    2.0945    0.0022 C.ar      1 <0>        -0.0640
      3 C3          2.3915    1.4155   -0.0131 C.ar      1 <0>        -0.0688
      4 C4          2.4067    0.0213   -0.0207 C.ar      1 <0>        -0.0575
      5 C5          1.2202   -0.6823   -0.0128 C.ar      1 <0>        -0.1055
      6 C6          0.0021   -0.0041    0.0020 C.ar      1 <0>         0.0217
      7 C7         -1.2706   -0.7638    0.0101 C.2       1 <0>        -0.1885
      8 C8         -1.6067   -1.7834   -0.8305 C.2       1 <0>         0.0834
      9 N1         -2.8430   -2.2046   -0.4953 N.pl3     1 <0>        -0.3600
     10 N2         -3.2973   -1.4333    0.5811 N.2       1 <0>        -0.2712
     11 C9         -2.3595   -0.5675    0.8976 C.2       1 <0>         0.1273
     12 C10        -2.4294    0.4371    1.9856 C.ar      1 <0>         0.0288
     13 C11        -1.2876    0.7907    2.7112 C.ar      1 <0>        -0.1426
     14 C12        -1.3973    1.7300    3.7155 C.ar      1 <0>         0.1016
     15 N3         -2.5584    2.2914    3.9939 N.ar      1 <0>        -0.4791
     16 C13        -3.6592    1.9862    3.3336 C.ar      1 <0>         0.1002
     17 C14        -3.6377    1.0612    2.3104 C.ar      1 <0>        -0.1462
     18 C15        -3.5856   -3.2858   -1.1477 C.3       1 <0>         0.1338
     19 C16        -4.0072   -4.3190   -0.1009 C.3       1 <0>         0.0659
     20 O1         -4.7315   -5.3737   -0.7373 O.3       1 <0>        -0.5704
     21 C17         3.8344   -0.4704   -0.0369 C.3       1 <0>        -0.0827
     22 C18         4.7229    0.7809   -0.0387 C.3       1 <0>        -0.1142
     23 C19         3.7677    1.9494   -0.0234 C.2       1 <0>         0.1729
     24 N4          4.0975    3.2008   -0.0199 N.2       1 <0>        -0.3250
     25 O2          5.4637    3.5729   -0.0309 O.3       1 <0>        -0.4061
     26 H1         -0.9593    1.9179    0.0260 H         1 <0>         0.1268
     27 H2          1.1467    3.1743    0.0078 H         1 <0>         0.1297
     28 H3          1.2348   -1.7622   -0.0190 H         1 <0>         0.1284
     29 H4         -0.9922   -2.1825   -1.6239 H         1 <0>         0.1843
     30 H5         -0.3341    0.3349    2.4889 H         1 <0>         0.1383
     31 H6         -0.5211    2.0093    4.2817 H         1 <0>         0.1593
     32 H7         -4.5887    2.4700    3.5950 H         1 <0>         0.1597
     33 H8         -4.5417    0.8195    1.7710 H         1 <0>         0.1385
     34 H9         -4.4723   -2.8769   -1.6322 H         1 <0>         0.0984
     35 H10        -2.9512   -3.7633   -1.8945 H         1 <0>         0.1094
     36 H11        -3.1205   -4.7280    0.3835 H         1 <0>         0.0526
     37 H12        -4.6416   -3.8415    0.6458 H         1 <0>         0.0633
     38 H13        -5.0307   -6.0661   -0.1323 H         1 <0>         0.3920
     39 H14         4.0339   -1.0696    0.8514 H         1 <0>         0.0902
     40 H15         4.0169   -1.0601   -0.9353 H         1 <0>         0.0898
     41 H16         5.3539    0.7973    0.8500 H         1 <0>         0.0949
     42 H17         5.3368    0.8068   -0.9391 H         1 <0>         0.0945
     43 H18         5.6110    4.5286   -0.0272 H         1 <0>         0.4063
@<TRIPOS>BOND
     1    1    6 ar
     2    1    2 ar
     3    1   26 1
     4    2    3 ar
     5    2   27 1
     6    3   23 1
     7    3    4 ar
     8    4    5 ar
     9    4   21 1
    10    5    6 ar
    11    5   28 1
    12    6    7 1
    13    7   11 1
    14    7    8 2
    15    8    9 1
    16    8   29 1
    17    9   10 1
    18    9   18 1
    19   10   11 2
    20   11   12 1
    21   12   17 ar
    22   12   13 ar
    23   13   14 ar
    24   13   30 1
    25   14   15 ar
    26   14   31 1
    27   15   16 ar
    28   16   17 ar
    29   16   32 1
    30   17   33 1
    31   18   19 1
    32   18   34 1
    33   18   35 1
    34   19   20 1
    35   19   36 1
    36   19   37 1
    37   20   38 1
    38   21   22 1
    39   21   39 1
    40   21   40 1
    41   22   23 1
    42   22   41 1
    43   22   42 1
    44   23   24 2
    45   24   25 1
    46   25   43 1
@<TRIPOS>MOLECULE
ZINC34640412
   43    46     0     0     0
SMALL
USER_CHARGES

@<TRIPOS>ATOM
      1 C1         -0.0168    1.3908    0.0097 C.ar      1 <0>        -0.1137
      2 C2          1.1640    2.0945    0.0022 C.ar      1 <0>        -0.0615
      3 C3          2.3915    1.4155   -0.0131 C.ar      1 <0>        -0.1185
      4 C4          2.4067    0.0213   -0.0207 C.ar      1 <0>        -0.0624
      5 C5          1.2202   -0.6823   -0.0128 C.ar      1 <0>        -0.1089
      6 C6          0.0021   -0.0041    0.0020 C.ar      1 <0>         0.0206
      7 C7         -1.2706   -0.7638    0.0101 C.2       1 <0>        -0.1874
      8 C8         -1.6067   -1.7834   -0.8305 C.2       1 <0>         0.0824
      9 N1         -2.8430   -2.2046   -0.4953 N.pl3     1 <0>        -0.3601
     10 N2         -3.2973   -1.4333    0.5811 N.2       1 <0>        -0.2713
     11 C9         -2.3595   -0.5675    0.8976 C.2       1 <0>         0.1267
     12 C10        -2.4294    0.4371    1.9856 C.ar      1 <0>         0.0291
     13 C11        -1.2876    0.7907    2.7112 C.ar      1 <0>        -0.1420
     14 C12        -1.3973    1.7300    3.7155 C.ar      1 <0>         0.1016
     15 N3         -2.5584    2.2914    3.9939 N.ar      1 <0>        -0.4790
     16 C13        -3.6592    1.9862    3.3336 C.ar      1 <0>         0.1000
     17 C14        -3.6377    1.0612    2.3104 C.ar      1 <0>        -0.1464
     18 C15        -3.5856   -3.2858   -1.1477 C.3       1 <0>         0.1339
     19 C16        -4.0072   -4.3190   -0.1009 C.3       1 <0>         0.0660
     20 O1         -4.7315   -5.3737   -0.7373 O.3       1 <0>        -0.5704
     21 C17         3.8344   -0.4704   -0.0369 C.3       1 <0>        -0.0822
     22 C18         4.7229    0.7809   -0.0387 C.3       1 <0>        -0.0655
     23 C19         3.7677    1.9494   -0.0234 C.2       1 <0>         0.1714
     24 N4          4.0975    3.2008   -0.0199 N.2       1 <0>        -0.3247
     25 O2          3.0922    4.1979   -0.0050 O.3       1 <0>        -0.4048
     26 H1         -0.9593    1.9179    0.0260 H         1 <0>         0.1239
     27 H2          1.1467    3.1743    0.0078 H         1 <0>         0.1336
     28 H3          1.2348   -1.7622   -0.0190 H         1 <0>         0.1262
     29 H4         -0.9922   -2.1825   -1.6239 H         1 <0>         0.1839
     30 H5         -0.3341    0.3349    2.4889 H         1 <0>         0.1376
     31 H6         -0.5211    2.0093    4.2817 H         1 <0>         0.1589
     32 H7         -4.5887    2.4700    3.5950 H         1 <0>         0.1599
     33 H8         -4.5417    0.8195    1.7710 H         1 <0>         0.1385
     34 H9         -4.4723   -2.8769   -1.6322 H         1 <0>         0.0983
     35 H10        -2.9512   -3.7633   -1.8945 H         1 <0>         0.1093
     36 H11        -3.1205   -4.7280    0.3835 H         1 <0>         0.0526
     37 H12        -4.6416   -3.8415    0.6458 H         1 <0>         0.0633
     38 H13        -5.0307   -6.0661   -0.1323 H         1 <0>         0.3920
     39 H14         4.0339   -1.0696    0.8514 H         1 <0>         0.0925
     40 H15         4.0169   -1.0601   -0.9353 H         1 <0>         0.0921
     41 H16         5.3539    0.7973    0.8500 H         1 <0>         0.1008
     42 H17         5.3368    0.8068   -0.9391 H         1 <0>         0.1004
     43 H18         3.4350    5.1021   -0.0034 H         1 <0>         0.4033
@<TRIPOS>BOND
     1    1    6 ar
     2    1    2 ar
     3    1   26 1
     4    2    3 ar
     5    2   27 1
     6    3   23 1
     7    3    4 ar
     8    4    5 ar
     9    4   21 1
    10    5    6 ar
    11    5   28 1
    12    6    7 1
    13    7   11 1
    14    7    8 2
    15    8    9 1
    16    8   29 1
    17    9   10 1
    18    9   18 1
    19   10   11 2
    20   11   12 1
    21   12   17 ar
    22   12   13 ar
    23   13   14 ar
    24   13   30 1
    25   14   15 ar
    26   14   31 1
    27   15   16 ar
    28   16   17 ar
    29   16   32 1
    30   17   33 1
    31   18   19 1
    32   18   34 1
    33   18   35 1
    34   19   20 1
    35   19   36 1
    36   19   37 1
    37   20   38 1
    38   21   22 1
    39   21   39 1
    40   21   40 1
    41   22   23 1
    42   22   41 1
    43   22   42 1
    44   23   24 2
    45   24   25 1
    46   25   43 1
