@<TRIPOS>MOLECULE
ZINC13979479
   60    64     0     0     0
SMALL
USER_CHARGES
5-[(6-chloro-1-oxo-4-phenyl-3-propanoyl-2-isoquinolyl)methyl]-N-cyclopropyl-2-methyl-pyrazole-3-carboxamide
@<TRIPOS>ATOM
      1 C1          0.9163    3.4726    1.3152 C.3       1 <0>        -0.1432
      2 C2          1.1917    1.9738    1.1794 C.3       1 <0>        -0.1662
      3 C3          0.1156    1.3397    0.3362 C.2       1 <0>         0.3766
      4 O1         -0.7254    2.0339   -0.1974 O.2       1 <0>        -0.3879
      5 C4          0.0887   -0.0671    0.1613 C.2       1 <0>         0.0981
      6 C5          1.2611   -0.7313   -0.1558 C.2       1 <0>        -0.0730
      7 C6          1.2298   -2.1912   -0.3308 C.ar      1 <0>         0.0188
      8 C7          2.3780   -2.9148   -0.6455 C.ar      1 <0>        -0.1060
      9 C8          2.2980   -4.2836   -0.8061 C.ar      1 <0>        -0.0005
     10 C9          1.0848   -4.9432   -0.6569 C.ar      1 <0>        -0.1213
     11 C10        -0.0624   -4.2444   -0.3456 C.ar      1 <0>        -0.0341
     12 C11        -0.0038   -2.8623   -0.1790 C.ar      1 <0>        -0.1365
     13 C12        -1.2010   -2.0757    0.1527 C.2       1 <0>         0.5529
     14 O2         -2.2759   -2.6304    0.2892 O.2       1 <0>        -0.5080
     15 N1         -1.1071   -0.7416    0.3058 N.am      1 <0>        -0.4994
     16 C13        -2.3142    0.0200    0.6362 C.3       1 <0>         0.1860
     17 C14        -3.0719    0.3338   -0.6280 C.2       1 <0>        -0.0085
     18 C15        -4.1302   -0.4078   -1.1581 C.2       1 <0>        -0.1559
     19 C16        -4.5019    0.2579   -2.3132 C.2       1 <0>        -0.0515
     20 N2         -3.6707    1.3370   -2.4164 N.pl3     1 <0>        -0.2504
     21 N3         -2.8589    1.3527   -1.4211 N.2       1 <0>        -0.2143
     22 C17        -3.7040    2.3283   -3.4945 C.3       1 <0>         0.0838
     23 C18        -5.5775   -0.1207   -3.2436 C.2       1 <0>         0.6000
     24 O3         -5.8613    0.6090   -4.1743 O.2       1 <0>        -0.5368
     25 N4         -6.2480   -1.2760   -3.0642 N.am      1 <0>        -0.6873
     26 C19        -7.2421   -1.7067   -4.0504 C.3       1 <0>         0.0778
     27 C20        -8.5682   -2.2577   -3.5225 C.3       1 <0>        -0.1898
     28 C21        -7.5395   -3.2044   -4.1459 C.3       1 <0>        -0.1860
     29 Cl1         3.7265   -5.1885   -1.1988 Cl        1 <0>        -0.0536
     30 C22         2.5272    0.0153   -0.3107 C.ar      1 <0>        -0.0459
     31 C23         2.7041    0.8793   -1.3935 C.ar      1 <0>        -0.1045
     32 C24         3.8860    1.5773   -1.5288 C.ar      1 <0>        -0.1132
     33 C25         4.8998    1.4140   -0.6012 C.ar      1 <0>        -0.1090
     34 C26         4.7333    0.5555    0.4713 C.ar      1 <0>        -0.1147
     35 C27         3.5543   -0.1444    0.6220 C.ar      1 <0>        -0.1019
     36 H1          1.6947    3.9313    1.9250 H         1 <0>         0.0647
     37 H2          0.9113    3.9321    0.3268 H         1 <0>         0.0635
     38 H3         -0.0531    3.6224    1.7904 H         1 <0>         0.0594
     39 H4          1.1964    1.5523    2.0862 H         1 <0>         0.0885
     40 H5          2.1612    1.8240    0.7041 H         1 <0>         0.1150
     41 H6          3.3247   -2.4083   -0.7626 H         1 <0>         0.1466
     42 H7          1.0394   -6.0144   -0.7863 H         1 <0>         0.1453
     43 H8         -1.0013   -4.7656   -0.2311 H         1 <0>         0.1511
     44 H9         -2.9452   -0.5698    1.3011 H         1 <0>         0.1174
     45 H10        -2.0332    0.9493    1.1316 H         1 <0>         0.1051
     46 H11        -4.5656   -1.3093   -0.7529 H         1 <0>         0.1630
     47 H12        -4.3143    3.1779   -3.1882 H         1 <0>         0.0874
     48 H13        -2.6903    2.6672   -3.7079 H         1 <0>         0.0935
     49 H14        -4.1323    1.8773   -4.3897 H         1 <0>         0.1117
     50 H15        -6.0723   -1.8224   -2.2822 H         1 <0>         0.4064
     51 H16        -7.2694   -1.1283   -4.9739 H         1 <0>         0.1405
     52 H17        -8.7010   -2.2997   -2.4414 H         1 <0>         0.0992
     53 H18        -9.4679   -2.0421   -4.0988 H         1 <0>         0.1053
     54 H19        -7.7629   -3.6113   -5.1322 H         1 <0>         0.1068
     55 H20        -6.9953   -3.8694   -3.4753 H         1 <0>         0.0998
     56 H21         1.9156    1.0037   -2.1210 H         1 <0>         0.1227
     57 H22         4.0225    2.2491   -2.3633 H         1 <0>         0.1276
     58 H23         5.8251    1.9593   -0.7145 H         1 <0>         0.1265
     59 H24         5.5284    0.4330    1.1919 H         1 <0>         0.1291
     60 H25         3.4256   -0.8140    1.4595 H         1 <0>         0.1290
@<TRIPOS>BOND
     1    1    2 1
     2    1   36 1
     3    1   37 1
     4    1   38 1
     5    2    3 1
     6    2   39 1
     7    2   40 1
     8    3    4 2
     9    3    5 1
    10    5   15 1
    11    5    6 2
    12    6    7 1
    13    6   30 1
    14    7   12 ar
    15    7    8 ar
    16    8    9 ar
    17    8   41 1
    18    9   10 ar
    19    9   29 1
    20   10   11 ar
    21   10   42 1
    22   11   12 ar
    23   11   43 1
    24   12   13 1
    25   13   14 2
    26   13   15 am
    27   15   16 1
    28   16   17 1
    29   16   44 1
    30   16   45 1
    31   17   21 2
    32   17   18 1
    33   18   19 2
    34   18   46 1
    35   19   20 1
    36   19   23 1
    37   20   21 1
    38   20   22 1
    39   22   47 1
    40   22   48 1
    41   22   49 1
    42   23   24 2
    43   23   25 am
    44   25   26 1
    45   25   50 1
    46   26   28 1
    47   26   27 1
    48   26   51 1
    49   27   28 1
    50   27   52 1
    51   27   53 1
    52   28   54 1
    53   28   55 1
    54   30   35 ar
    55   30   31 ar
    56   31   32 ar
    57   31   56 1
    58   32   33 ar
    59   32   57 1
    60   33   34 ar
    61   33   58 1
    62   34   35 ar
    63   34   59 1
    64   35   60 1
