@<TRIPOS>MOLECULE
ZINC03815700
   43    46     0     0     0
SMALL
USER_CHARGES

@<TRIPOS>ATOM
      1 C1         -0.4417    2.5108    0.1274 C.3       1 <0>        -0.4980
      2 S1         -0.2285    0.7138    0.0013 S.o       1 <0>         1.3317
      3 O1          0.3381    0.2184    1.2066 O.2       1 <0>        -0.8500
      4 C2         -1.8753    0.0872    0.0153 C.ar      1 <0>        -0.4539
      5 C3         -2.4807   -0.2316    1.2179 C.ar      1 <0>        -0.0505
      6 C4         -3.7698   -0.7226    1.2359 C.ar      1 <0>        -0.0905
      7 C5         -4.4635   -0.8973    0.0374 C.ar      1 <0>         0.0183
      8 C6         -3.8471   -0.5733   -1.1722 C.ar      1 <0>        -0.1282
      9 C7         -2.5593   -0.0786   -1.1759 C.ar      1 <0>        -0.0372
     10 C8         -5.8450   -1.4235    0.0492 C.2       1 <0>         0.2539
     11 N1         -6.6187   -1.6414   -1.0552 N.pl3     1 <0>        -0.5494
     12 H1         -6.3641   -1.4808   -1.9773 H         1 <0>         0.4258
     13 C9         -7.8254   -2.1307   -0.6157 C.2       1 <0>         0.0559
     14 C10        -7.7421   -2.1946    0.7659 C.2       1 <0>         0.0600
     15 N2         -6.5217   -1.7612    1.1224 N.2       1 <0>        -0.4460
     16 C11        -8.8052   -2.6624    1.6841 C.ar      1 <0>         0.0397
     17 C12        -9.5683   -3.7960    1.3824 C.ar      1 <0>        -0.1547
     18 C13       -10.5481   -4.1969    2.2660 C.ar      1 <0>         0.1020
     19 N3        -10.7699   -3.5273    3.3814 N.ar      1 <0>        -0.4829
     20 C14       -10.0734   -2.4536    3.7038 C.ar      1 <0>         0.1009
     21 C15        -9.0708   -1.9865    2.8804 C.ar      1 <0>        -0.1469
     22 C16        -8.9814   -2.5126   -1.4503 C.ar      1 <0>        -0.0400
     23 C17       -10.2631   -2.0665   -1.1192 C.ar      1 <0>        -0.0563
     24 C18       -11.3392   -2.4265   -1.9026 C.ar      1 <0>        -0.1471
     25 C19       -11.1511   -3.2299   -3.0163 C.ar      1 <0>         0.1129
     26 C20        -9.8817   -3.6756   -3.3498 C.ar      1 <0>        -0.1491
     27 C21        -8.7972   -3.3169   -2.5775 C.ar      1 <0>        -0.0765
     28 F1        -12.2093   -3.5802   -3.7797 F         1 <0>        -0.1335
     29 H2          0.5355    2.9936    0.1264 H         1 <0>         0.1086
     30 H3         -1.0243    2.8681   -0.7218 H         1 <0>         0.1118
     31 H4         -0.9645    2.7506    1.0533 H         1 <0>         0.0820
     32 H5         -1.9427   -0.0960    2.1446 H         1 <0>         0.1340
     33 H6         -4.2409   -0.9717    2.1752 H         1 <0>         0.1409
     34 H7         -4.3783   -0.7065   -2.1030 H         1 <0>         0.1252
     35 H8         -2.0825    0.1760   -2.1109 H         1 <0>         0.1447
     36 H9         -9.3927   -4.3483    0.4711 H         1 <0>         0.1333
     37 H10       -11.1422   -5.0705    2.0420 H         1 <0>         0.1579
     38 H11       -10.2890   -1.9361    4.6268 H         1 <0>         0.1588
     39 H12        -8.5017   -1.1100    3.1527 H         1 <0>         0.1379
     40 H13       -10.4110   -1.4411   -0.2513 H         1 <0>         0.1357
     41 H14       -12.3306   -2.0822   -1.6477 H         1 <0>         0.1434
     42 H15        -9.7412   -4.3013   -4.2187 H         1 <0>         0.1424
     43 H16        -7.8079   -3.6609   -2.8410 H         1 <0>         0.1331
@<TRIPOS>BOND
     1    1    2 1
     2    1   29 1
     3    1   30 1
     4    1   31 1
     5    2    3 2
     6    2    4 1
     7    4    9 ar
     8    4    5 ar
     9    5    6 ar
    10    5   32 1
    11    6    7 ar
    12    6   33 1
    13    7    8 ar
    14    7   10 1
    15    8    9 ar
    16    8   34 1
    17    9   35 1
    18   10   15 2
    19   10   11 1
    20   11   12 1
    21   11   13 1
    22   13   14 2
    23   13   22 1
    24   14   15 1
    25   14   16 1
    26   16   21 ar
    27   16   17 ar
    28   17   18 ar
    29   17   36 1
    30   18   19 ar
    31   18   37 1
    32   19   20 ar
    33   20   21 ar
    34   20   38 1
    35   21   39 1
    36   22   27 ar
    37   22   23 ar
    38   23   24 ar
    39   23   40 1
    40   24   25 ar
    41   24   41 1
    42   25   26 ar
    43   25   28 1
    44   26   27 ar
    45   26   42 1
    46   27   43 1
@<TRIPOS>MOLECULE
ZINC18274812
   43    46     0     0     0
SMALL
USER_CHARGES

@<TRIPOS>ATOM
      1 C1          0.0458    2.4645   -0.3714 C.3       1 <0>        -0.4977
      2 S1          0.1034    0.6635   -0.1624 S.o       1 <0>         1.3328
      3 O1          0.9995    0.3374    0.8912 O.2       1 <0>        -0.8522
      4 C2          0.9248    0.0922   -1.6127 C.ar      1 <0>        -0.4531
      5 C3          0.1894   -0.2245   -2.7411 C.ar      1 <0>        -0.0385
      6 C4          0.8263   -0.6720   -3.8801 C.ar      1 <0>        -0.0921
      7 C5          2.2157   -0.8050   -3.8925 C.ar      1 <0>         0.0171
      8 C6          2.9515   -0.4838   -2.7508 C.ar      1 <0>        -0.1253
      9 C7          2.3027   -0.0324   -1.6200 C.ar      1 <0>        -0.0497
     10 C8          2.9049   -1.2844   -5.1094 C.2       1 <0>         0.2582
     11 N1          4.2515   -1.4590   -5.2384 N.pl3     1 <0>        -0.5486
     12 H1          4.9216   -1.2936   -4.5568 H         1 <0>         0.4252
     13 C9          4.4814   -1.9147   -6.5171 C.2       1 <0>         0.0337
     14 C10         3.2416   -2.0017   -7.1294 C.2       1 <0>         0.0807
     15 N2          2.3171   -1.6154   -6.2370 N.2       1 <0>        -0.4488
     16 C11         2.9826   -2.4473   -8.5186 C.ar      1 <0>        -0.0206
     17 C12         3.6496   -3.5590   -9.0325 C.ar      1 <0>        -0.0694
     18 C13         3.4051   -3.9700  -10.3265 C.ar      1 <0>        -0.1511
     19 C14         2.4988   -3.2799  -11.1154 C.ar      1 <0>         0.1060
     20 C15         1.8337   -2.1747  -10.6093 C.ar      1 <0>        -0.1526
     21 C16         2.0668   -1.7598   -9.3145 C.ar      1 <0>        -0.0599
     22 F1          2.2634   -3.6856  -12.3824 F         1 <0>        -0.1371
     23 C17         5.7881   -2.2443   -7.1163 C.ar      1 <0>         0.0226
     24 C18         6.1399   -1.7662   -8.3862 C.ar      1 <0>        -0.1423
     25 C19         7.3716   -2.0992   -8.9074 C.ar      1 <0>         0.1081
     26 N3          8.2131   -2.8565   -8.2286 N.ar      1 <0>        -0.4784
     27 C20         7.9224   -3.3278   -7.0303 C.ar      1 <0>         0.1071
     28 C21         6.7158   -3.0398   -6.4296 C.ar      1 <0>        -0.1652
     29 H2          1.0609    2.8540   -0.4489 H         1 <0>         0.0810
     30 H3         -0.5069    2.7075   -1.2790 H         1 <0>         0.1130
     31 H4         -0.4514    2.9143    0.4881 H         1 <0>         0.1088
     32 H5         -0.8856   -0.1215   -2.7301 H         1 <0>         0.1470
     33 H6          0.2512   -0.9192   -4.7602 H         1 <0>         0.1462
     34 H7          4.0268   -0.5845   -2.7539 H         1 <0>         0.1202
     35 H8          2.8713    0.2203   -0.7373 H         1 <0>         0.1322
     36 H9          4.3566   -4.0971   -8.4186 H         1 <0>         0.1287
     37 H10         3.9211   -4.8308  -10.7253 H         1 <0>         0.1387
     38 H11         1.1282   -1.6400  -11.2280 H         1 <0>         0.1401
     39 H12         1.5446   -0.9009   -8.9194 H         1 <0>         0.1377
     40 H13         5.4562   -1.1467   -8.9476 H         1 <0>         0.1400
     41 H14         7.6520   -1.7358   -9.8850 H         1 <0>         0.1626
     42 H15         8.6418   -3.9441   -6.5116 H         1 <0>         0.1610
     43 H16         6.4868   -3.4248   -5.4469 H         1 <0>         0.1340
@<TRIPOS>BOND
     1    1    2 1
     2    1   29 1
     3    1   30 1
     4    1   31 1
     5    2    3 2
     6    2    4 1
     7    4    9 ar
     8    4    5 ar
     9    5    6 ar
    10    5   32 1
    11    6    7 ar
    12    6   33 1
    13    7    8 ar
    14    7   10 1
    15    8    9 ar
    16    8   34 1
    17    9   35 1
    18   10   15 2
    19   10   11 1
    20   11   12 1
    21   11   13 1
    22   13   14 2
    23   13   23 1
    24   14   15 1
    25   14   16 1
    26   16   21 ar
    27   16   17 ar
    28   17   18 ar
    29   17   36 1
    30   18   19 ar
    31   18   37 1
    32   19   20 ar
    33   19   22 1
    34   20   21 ar
    35   20   38 1
    36   21   39 1
    37   23   28 ar
    38   23   24 ar
    39   24   25 ar
    40   24   40 1
    41   25   26 ar
    42   25   41 1
    43   26   27 ar
    44   27   28 ar
    45   27   42 1
    46   28   43 1
@<TRIPOS>MOLECULE
ZINC18274812
   43    46     0     0     0
SMALL
USER_CHARGES

@<TRIPOS>ATOM
      1 C1          0.0761    2.5207   -0.3946 C.3       1 <0>        -0.4977
      2 S1          0.1067    0.7194   -0.1829 S.o       1 <0>         1.3328
      3 O1          0.9925    0.3819    0.8757 O.2       1 <0>        -0.8523
      4 C2          0.9273    0.1342   -1.6283 C.ar      1 <0>        -0.4535
      5 C3          0.1933   -0.1734   -2.7600 C.ar      1 <0>        -0.0382
      6 C4          0.8295   -0.6320   -3.8950 C.ar      1 <0>        -0.0929
      7 C5          2.2169   -0.7850   -3.8999 C.ar      1 <0>         0.0183
      8 C6          2.9514   -0.4724   -2.7550 C.ar      1 <0>        -0.1257
      9 C7          2.3033   -0.0102   -1.6282 C.ar      1 <0>        -0.0496
     10 C8          2.9053   -1.2765   -5.1125 C.2       1 <0>         0.2536
     11 N1          4.2517   -1.4710   -5.2346 N.pl3     1 <0>        -0.5504
     12 H1          4.9205   -1.3136   -4.5499 H         1 <0>         0.4255
     13 C9          4.4817   -1.9314   -6.5089 C.2       1 <0>         0.0556
     14 C10         3.2446   -2.0022   -7.1288 C.2       1 <0>         0.0602
     15 N2          2.3192   -1.6008   -6.2417 N.2       1 <0>        -0.4443
     16 C11         2.9879   -2.4463   -8.5176 C.ar      1 <0>         0.0401
     17 C12         3.6482   -3.5593   -9.0502 C.ar      1 <0>        -0.1549
     18 C13         3.3789   -3.9386  -10.3482 C.ar      1 <0>         0.1021
     19 N3          2.5133   -3.2676  -11.0845 N.ar      1 <0>        -0.4831
     20 C14         1.8693   -2.2129  -10.6212 C.ar      1 <0>         0.1008
     21 C15         2.0741   -1.7682   -9.3321 C.ar      1 <0>        -0.1466
     22 C16         5.7882   -2.2812   -7.1001 C.ar      1 <0>        -0.0406
     23 C17         6.1350   -1.8042   -8.3665 C.ar      1 <0>        -0.0561
     24 C18         7.3568   -2.1344   -8.9137 C.ar      1 <0>        -0.1471
     25 C19         8.2399   -2.9383   -8.2101 C.ar      1 <0>         0.1131
     26 C20         7.9012   -3.4146   -6.9533 C.ar      1 <0>        -0.1492
     27 C21         6.6848   -3.0860   -6.3932 C.ar      1 <0>        -0.0767
     28 F1          9.4352   -3.2593   -8.7516 F         1 <0>        -0.1334
     29 H2          1.0971    2.8954   -0.4674 H         1 <0>         0.0810
     30 H3         -0.4683    2.7703   -1.3054 H         1 <0>         0.1130
     31 H4         -0.4189    2.9788    0.4616 H         1 <0>         0.1087
     32 H5         -0.8802   -0.0546   -2.7549 H         1 <0>         0.1468
     33 H6          0.2554   -0.8725   -4.7775 H         1 <0>         0.1457
     34 H7          4.0251   -0.5889   -2.7522 H         1 <0>         0.1204
     35 H8          2.8708    0.2356   -0.7429 H         1 <0>         0.1321
     36 H9          4.3583   -4.1127   -8.4536 H         1 <0>         0.1329
     37 H10         3.8834   -4.7962  -10.7681 H         1 <0>         0.1577
     38 H11         1.1696   -1.6933  -11.2591 H         1 <0>         0.1590
     39 H12         1.5402   -0.9072   -8.9580 H         1 <0>         0.1385
     40 H13         5.4474   -1.1783   -8.9159 H         1 <0>         0.1360
     41 H14         7.6261   -1.7662   -9.8926 H         1 <0>         0.1436
     42 H15         8.5933   -4.0406   -6.4097 H         1 <0>         0.1423
     43 H16         6.4240   -3.4537   -5.4118 H         1 <0>         0.1327
@<TRIPOS>BOND
     1    1    2 1
     2    1   29 1
     3    1   30 1
     4    1   31 1
     5    2    3 2
     6    2    4 1
     7    4    9 ar
     8    4    5 ar
     9    5    6 ar
    10    5   32 1
    11    6    7 ar
    12    6   33 1
    13    7    8 ar
    14    7   10 1
    15    8    9 ar
    16    8   34 1
    17    9   35 1
    18   10   15 2
    19   10   11 1
    20   11   12 1
    21   11   13 1
    22   13   14 2
    23   13   22 1
    24   14   15 1
    25   14   16 1
    26   16   21 ar
    27   16   17 ar
    28   17   18 ar
    29   17   36 1
    30   18   19 ar
    31   18   37 1
    32   19   20 ar
    33   20   21 ar
    34   20   38 1
    35   21   39 1
    36   22   27 ar
    37   22   23 ar
    38   23   24 ar
    39   23   40 1
    40   24   25 ar
    41   24   41 1
    42   25   26 ar
    43   25   28 1
    44   26   27 ar
    45   26   42 1
    46   27   43 1
@<TRIPOS>MOLECULE
ZINC24044436
   76    80     0     0     0
SMALL
USER_CHARGES
1-[5-tert-butyl-2-(p-tolyl)pyrazol-3-yl]-3-[4-(2-morpholinoethoxy)-1-naphthyl]urea
@<TRIPOS>ATOM
      1 C1          3.3307    9.5387   -0.3298 C.3       1 <0>        -0.1193
      2 C2          2.0898    8.6848   -0.2813 C.ar      1 <0>        -0.0892
      3 C3          0.9612    9.0673   -0.9828 C.ar      1 <0>        -0.0934
      4 C4         -0.1775    8.2868   -0.9403 C.ar      1 <0>        -0.1062
      5 C5         -0.1884    7.1174   -0.1919 C.ar      1 <0>         0.1564
      6 C6          0.9444    6.7392    0.5163 C.ar      1 <0>        -0.1500
      7 C7          2.0821    7.5207    0.4649 C.ar      1 <0>        -0.0924
      8 N1         -1.3424    6.3233   -0.1469 N.pl3     1 <0>        -0.3448
      9 C8         -1.3788    4.9645   -0.0790 C.2       1 <0>         0.3309
     10 C9         -2.6878    4.5925   -0.0483 C.2       1 <0>        -0.2629
     11 C10        -3.4651    5.7529   -0.1047 C.2       1 <0>         0.1115
     12 N2         -2.6643    6.7861   -0.1672 N.2       1 <0>        -0.2779
     13 C11        -4.9712    5.8052   -0.0954 C.3       1 <0>         0.0134
     14 C12        -5.4824    5.5257    1.3193 C.3       1 <0>        -0.1388
     15 C13        -5.4360    7.1933   -0.5406 C.3       1 <0>        -0.1390
     16 C14        -5.5242    4.7499   -1.0553 C.3       1 <0>        -0.1399
     17 N3         -0.2771    4.1104   -0.0417 N.am      1 <0>        -0.6731
     18 C15        -0.4603    2.7771    0.0314 C.2       1 <0>         0.7165
     19 O1         -1.5862    2.3190    0.0649 O.2       1 <0>        -0.5445
     20 N4          0.6045    1.9516    0.0675 N.am      1 <0>        -0.6819
     21 C16         0.4162    0.5655    0.0407 C.ar      1 <0>         0.1254
     22 C17        -0.6813    0.0024    0.6542 C.ar      1 <0>        -0.0743
     23 C18        -0.8835   -1.3742    0.6299 C.ar      1 <0>        -0.2061
     24 C19         0.0048   -2.2051    0.0082 C.ar      1 <0>         0.1395
     25 C20         1.1426   -1.6672   -0.6254 C.ar      1 <0>        -0.0565
     26 C21         1.3517   -0.2661   -0.6096 C.ar      1 <0>        -0.0251
     27 C22         2.4862    0.2686   -1.2409 C.ar      1 <0>        -0.1232
     28 C23         3.3687   -0.5639   -1.8588 C.ar      1 <0>        -0.0971
     29 C24         3.1636   -1.9422   -1.8742 C.ar      1 <0>        -0.1313
     30 C25         2.0750   -2.4951   -1.2724 C.ar      1 <0>        -0.0739
     31 O2         -0.2080   -3.5475    0.0012 O.3       1 <0>        -0.2916
     32 C26        -1.3823   -4.0216    0.6634 C.3       1 <0>         0.0605
     33 C27        -1.4510   -5.5459    0.5508 C.3       1 <0>         0.0539
     34 N5         -0.3065   -6.1409    1.2538 N.3       1 <0>        -0.5287
     35 C28        -0.1978   -7.5776    0.9617 C.3       1 <0>         0.0167
     36 C29         1.0390   -8.1436    1.6645 C.3       1 <0>         0.0615
     37 O3          0.9456   -7.8818    3.0674 O.3       1 <0>        -0.3849
     38 C30         0.8389   -6.4921    3.3879 C.3       1 <0>         0.0625
     39 C31        -0.3999   -5.9094    2.7026 C.3       1 <0>         0.0120
     40 H1          3.1476   10.4156   -0.9682 H         1 <0>         0.0687
     41 H2          4.1639    8.9515   -0.7434 H         1 <0>         0.0732
     42 H3          3.5863    9.8722    0.6868 H         1 <0>         0.0734
     43 H4          0.9703    9.9770   -1.5648 H         1 <0>         0.1335
     44 H5         -1.0587    8.5861   -1.4884 H         1 <0>         0.1355
     45 H6          0.9374    5.8324    1.1029 H         1 <0>         0.1262
     46 H7          2.9651    7.2245    1.0118 H         1 <0>         0.1343
     47 H8         -3.0598    3.5802    0.0092 H         1 <0>         0.1784
     48 H9         -6.5817    5.5639    1.3261 H         1 <0>         0.0656
     49 H10        -5.0849    6.2845    2.0094 H         1 <0>         0.0565
     50 H11        -5.1481    4.5278    1.6395 H         1 <0>         0.0614
     51 H12        -6.5353    7.2315   -0.5338 H         1 <0>         0.0604
     52 H13        -5.0684    7.3943   -1.5577 H         1 <0>         0.0568
     53 H14        -5.0385    7.9519    0.1496 H         1 <0>         0.0614
     54 H15        -6.6235    4.7882   -1.0484 H         1 <0>         0.0647
     55 H16        -5.1900    3.7520   -0.7351 H         1 <0>         0.0637
     56 H17        -5.1566    4.9509   -2.0724 H         1 <0>         0.0570
     57 H18         0.7414    4.5248   -0.0719 H         1 <0>         0.4294
     58 H19         1.6215    2.3677    0.1180 H         1 <0>         0.4280
     59 H20        -1.3959    0.6376    1.1566 H         1 <0>         0.1450
     60 H21        -1.7537   -1.7925    1.1139 H         1 <0>         0.1296
     61 H22         2.6580    1.3348   -1.2361 H         1 <0>         0.1222
     62 H23         4.2405   -0.1501   -2.3437 H         1 <0>         0.1243
     63 H24         3.8790   -2.5810   -2.3706 H         1 <0>         0.1250
     64 H25         1.9286   -3.5650   -1.2926 H         1 <0>         0.1353
     65 H26        -1.3465   -3.7335    1.7244 H         1 <0>         0.0659
     66 H27        -2.2726   -3.5787    0.1931 H         1 <0>         0.0716
     67 H28        -2.3868   -5.9052    1.0039 H         1 <0>         0.0605
     68 H29        -1.4216   -5.8370   -0.5096 H         1 <0>         0.0912
     69 H30        -1.0977   -8.0949    1.3258 H         1 <0>         0.0437
     70 H31        -0.1044   -7.7249   -0.1244 H         1 <0>         0.0891
     71 H32         1.0925   -9.2291    1.4949 H         1 <0>         0.1001
     72 H33         1.9424   -7.6643    1.2595 H         1 <0>         0.0618
     73 H34         0.7475   -6.3731    4.4776 H         1 <0>         0.0994
     74 H35         1.7375   -5.9645    3.0355 H         1 <0>         0.0616
     75 H36        -0.4553   -4.8284    2.8983 H         1 <0>         0.0869
     76 H37        -1.3031   -6.3997    3.0948 H         1 <0>         0.0443
@<TRIPOS>BOND
     1    1    2 1
     2    1   40 1
     3    1   41 1
     4    1   42 1
     5    2    7 ar
     6    2    3 ar
     7    3    4 ar
     8    3   43 1
     9    4    5 ar
    10    4   44 1
    11    5    6 ar
    12    5    8 1
    13    6    7 ar
    14    6   45 1
    15    7   46 1
    16    8   12 1
    17    8    9 1
    18    9   10 2
    19    9   17 1
    20   10   11 1
    21   10   47 1
    22   11   12 2
    23   11   13 1
    24   13   14 1
    25   13   15 1
    26   13   16 1
    27   14   48 1
    28   14   49 1
    29   14   50 1
    30   15   51 1
    31   15   52 1
    32   15   53 1
    33   16   54 1
    34   16   55 1
    35   16   56 1
    36   17   18 am
    37   17   57 1
    38   18   19 2
    39   18   20 am
    40   20   21 1
    41   20   58 1
    42   21   26 ar
    43   21   22 ar
    44   22   23 ar
    45   22   59 1
    46   23   24 ar
    47   23   60 1
    48   24   25 ar
    49   24   31 1
    50   25   30 ar
    51   25   26 ar
    52   26   27 ar
    53   27   28 ar
    54   27   61 1
    55   28   29 ar
    56   28   62 1
    57   29   30 ar
    58   29   63 1
    59   30   64 1
    60   31   32 1
    61   32   33 1
    62   32   65 1
    63   32   66 1
    64   33   34 1
    65   33   67 1
    66   33   68 1
    67   34   39 1
    68   34   35 1
    69   35   36 1
    70   35   69 1
    71   35   70 1
    72   36   37 1
    73   36   71 1
    74   36   72 1
    75   37   38 1
    76   38   39 1
    77   38   73 1
    78   38   74 1
    79   39   75 1
    80   39   76 1
@<TRIPOS>MOLECULE
ZINC49068170
   50    53     0     0     0
SMALL
USER_CHARGES

@<TRIPOS>ATOM
      1 C1         -0.0169    1.3938    0.0097 C.ar      1 <0>        -0.2943
      2 C2          1.1896    2.0690    0.0018 C.ar      1 <0>         0.1981
      3 N1          2.3189    1.3778   -0.0127 N.ar      1 <0>        -0.5760
      4 C3          2.3077    0.0526   -0.0197 C.ar      1 <0>         0.5760
      5 N2          1.1755   -0.6332   -0.0130 N.ar      1 <0>        -0.5706
      6 C4          0.0021   -0.0041    0.0020 C.ar      1 <0>         0.3099
      7 C5         -1.2644   -0.7738    0.0105 C.2       1 <0>        -0.2097
      8 C6         -2.5269   -0.2521    0.0198 C.2       1 <0>         0.1051
      9 N3         -3.3933   -1.2824    0.0247 N.pl3     1 <0>        -0.4654
     10 H1         -4.3607   -1.2113    0.0313 H         1 <0>         0.4462
     11 N4         -2.6585   -2.4740    0.0183 N.2       1 <0>        -0.2903
     12 C7         -1.3864   -2.1782    0.0041 C.2       1 <0>         0.1317
     13 C8         -0.2481   -3.1657   -0.0120 C.3       1 <0>        -0.0570
     14 H2          0.7002   -2.6283   -0.0181 H         1 <0>         0.1359
     15 C9         -0.3482   -4.0418   -1.2645 C.3       1 <0>        -0.1100
     16 C10         0.7672   -5.0911   -1.2306 C.3       1 <0>        -0.1534
     17 C11         0.6509   -5.9067    0.0598 C.3       1 <0>         0.0577
     18 O1          0.7206   -5.0283    1.1848 O.3       1 <0>        -0.3780
     19 C12        -0.3243   -4.0546    1.2321 C.3       1 <0>         0.0745
     20 N5          3.5106   -0.6319   -0.0349 N.pl3     1 <0>        -0.6952
     21 C13         4.7747    0.1086   -0.0429 C.3       1 <0>         0.1621
     22 C14         5.1375    0.4825   -1.4815 C.3       1 <0>        -0.1249
     23 C15         6.4576    1.2559   -1.4899 C.3       1 <0>        -0.1090
     24 C16         7.5642    0.3823   -0.8955 C.3       1 <0>         0.1025
     25 C17         7.2014    0.0084    0.5430 C.3       1 <0>        -0.1468
     26 C18         5.8812   -0.7650    0.5515 C.3       1 <0>        -0.1259
     27 O2          8.7972    1.1046   -0.9034 O.3       1 <0>        -0.5678
     28 H3         -0.9521    1.9336    0.0260 H         1 <0>         0.1392
     29 H4          1.2108    3.1488    0.0071 H         1 <0>         0.1663
     30 H5         -2.7834    0.7970    0.0233 H         1 <0>         0.1871
     31 H6         -1.3173   -4.5403   -1.2843 H         1 <0>         0.0661
     32 H7         -0.2378   -3.4209   -2.1535 H         1 <0>         0.0660
     33 H8          0.6701   -5.7539   -2.0905 H         1 <0>         0.0746
     34 H9          1.7365   -4.5935   -1.2608 H         1 <0>         0.0732
     35 H10        -0.3018   -6.4362    0.0705 H         1 <0>         0.0503
     36 H11         1.4677   -6.6267    0.1096 H         1 <0>         0.0942
     37 H12        -0.2101   -3.4404    2.1253 H         1 <0>         0.0911
     38 H13        -1.2898   -4.5599    1.2593 H         1 <0>         0.0529
     39 H14         3.5167   -1.6019   -0.0401 H         1 <0>         0.4123
     40 H15         4.6684    1.0154    0.5524 H         1 <0>         0.0941
     41 H16         5.2438   -0.4243   -2.0769 H         1 <0>         0.0636
     42 H17         4.3491    1.1049   -1.9050 H         1 <0>         0.0746
     43 H18         6.7161    1.5223   -2.5148 H         1 <0>         0.0718
     44 H19         6.3513    2.1627   -0.8946 H         1 <0>         0.0734
     45 H20         7.6705   -0.5245   -1.4909 H         1 <0>         0.0553
     46 H21         7.9897   -0.6140    0.9665 H         1 <0>         0.0706
     47 H22         7.0951    0.9152    1.1384 H         1 <0>         0.0751
     48 H23         5.6228   -1.0314    1.5763 H         1 <0>         0.0742
     49 H24         5.9876   -1.6718   -0.0439 H         1 <0>         0.0701
     50 H25         9.5447    0.6106   -0.5399 H         1 <0>         0.3784
@<TRIPOS>BOND
     1    1    6 ar
     2    1    2 ar
     3    1   28 1
     4    2    3 ar
     5    2   29 1
     6    3    4 ar
     7    4    5 ar
     8    4   20 1
     9    5    6 ar
    10    6    7 1
    11    7   12 1
    12    7    8 2
    13    8    9 1
    14    8   30 1
    15    9   10 1
    16    9   11 1
    17   11   12 2
    18   12   13 1
    19   13   14 1
    20   13   19 1
    21   13   15 1
    22   15   16 1
    23   15   31 1
    24   15   32 1
    25   16   17 1
    26   16   33 1
    27   16   34 1
    28   17   18 1
    29   17   35 1
    30   17   36 1
    31   18   19 1
    32   19   37 1
    33   19   38 1
    34   20   21 1
    35   20   39 1
    36   21   26 1
    37   21   22 1
    38   21   40 1
    39   22   23 1
    40   22   41 1
    41   22   42 1
    42   23   24 1
    43   23   43 1
    44   23   44 1
    45   24   25 1
    46   24   27 1
    47   24   45 1
    48   25   26 1
    49   25   46 1
    50   25   47 1
    51   26   48 1
    52   26   49 1
    53   27   50 1
@<TRIPOS>MOLECULE
ZINC49068172
   50    53     0     0     0
SMALL
USER_CHARGES

@<TRIPOS>ATOM
      1 C1         -0.0169    1.3938    0.0097 C.ar      1 <0>        -0.2943
      2 C2          1.1896    2.0690    0.0018 C.ar      1 <0>         0.1981
      3 N1          2.3189    1.3778   -0.0127 N.ar      1 <0>        -0.5760
      4 C3          2.3077    0.0526   -0.0197 C.ar      1 <0>         0.5760
      5 N2          1.1755   -0.6332   -0.0130 N.ar      1 <0>        -0.5706
      6 C4          0.0021   -0.0041    0.0020 C.ar      1 <0>         0.3099
      7 C5         -1.2644   -0.7738    0.0105 C.2       1 <0>        -0.2097
      8 C6         -2.5269   -0.2521    0.0198 C.2       1 <0>         0.1051
      9 N3         -3.3933   -1.2824    0.0247 N.pl3     1 <0>        -0.4654
     10 H1         -4.3607   -1.2113    0.0313 H         1 <0>         0.4462
     11 N4         -2.6585   -2.4740    0.0183 N.2       1 <0>        -0.2903
     12 C7         -1.3864   -2.1782    0.0041 C.2       1 <0>         0.1317
     13 C8         -0.2481   -3.1657   -0.0120 C.3       1 <0>        -0.0570
     14 H2          0.7002   -2.6283   -0.0181 H         1 <0>         0.1359
     15 C9         -0.3244   -4.0551    1.2328 C.3       1 <0>        -0.1101
     16 C10         0.7901   -5.1039    1.1665 C.3       1 <0>        -0.1534
     17 C11         0.6491   -5.9057   -0.1300 C.3       1 <0>         0.0576
     18 O1          0.6975   -5.0154   -1.2468 O.3       1 <0>        -0.3780
     19 C12        -0.3481   -4.0413   -1.2638 C.3       1 <0>         0.0746
     20 N5          3.5106   -0.6319   -0.0349 N.pl3     1 <0>        -0.6952
     21 C13         4.7747    0.1086   -0.0429 C.3       1 <0>         0.1622
     22 C14         5.1375    0.4825   -1.4815 C.3       1 <0>        -0.1253
     23 C15         6.4576    1.2559   -1.4899 C.3       1 <0>        -0.1090
     24 C16         7.5642    0.3823   -0.8955 C.3       1 <0>         0.1024
     25 C17         7.2014    0.0084    0.5430 C.3       1 <0>        -0.1467
     26 C18         5.8812   -0.7650    0.5515 C.3       1 <0>        -0.1258
     27 O2          8.7972    1.1046   -0.9034 O.3       1 <0>        -0.5677
     28 H3         -0.9521    1.9336    0.0260 H         1 <0>         0.1392
     29 H4          1.2108    3.1488    0.0071 H         1 <0>         0.1663
     30 H5         -2.7834    0.7970    0.0233 H         1 <0>         0.1871
     31 H6         -0.1970   -3.4437    2.1262 H         1 <0>         0.0660
     32 H7         -1.2930   -4.5539    1.2658 H         1 <0>         0.0662
     33 H8          1.7598   -4.6065    1.1835 H         1 <0>         0.0732
     34 H9          0.7093   -5.7758    2.0209 H         1 <0>         0.0746
     35 H10         1.4648   -6.6250   -0.2031 H         1 <0>         0.0942
     36 H11        -0.3037   -6.4351   -0.1282 H         1 <0>         0.0504
     37 H12        -1.3139   -4.5463   -1.2779 H         1 <0>         0.0529
     38 H13        -0.2508   -3.4176   -2.1524 H         1 <0>         0.0911
     39 H14         3.5167   -1.6019   -0.0401 H         1 <0>         0.4123
     40 H15         4.6684    1.0154    0.5524 H         1 <0>         0.0940
     41 H16         5.2438   -0.4243   -2.0769 H         1 <0>         0.0643
     42 H17         4.3491    1.1049   -1.9050 H         1 <0>         0.0749
     43 H18         6.7161    1.5223   -2.5148 H         1 <0>         0.0720
     44 H19         6.3513    2.1627   -0.8946 H         1 <0>         0.0732
     45 H20         7.6705   -0.5245   -1.4909 H         1 <0>         0.0556
     46 H21         7.9897   -0.6140    0.9665 H         1 <0>         0.0704
     47 H22         7.0951    0.9152    1.1384 H         1 <0>         0.0750
     48 H23         5.6228   -1.0314    1.5763 H         1 <0>         0.0733
     49 H24         5.9876   -1.6718   -0.0439 H         1 <0>         0.0705
     50 H25         9.5447    0.6106   -0.5399 H         1 <0>         0.3783
@<TRIPOS>BOND
     1    1    6 ar
     2    1    2 ar
     3    1   28 1
     4    2    3 ar
     5    2   29 1
     6    3    4 ar
     7    4    5 ar
     8    4   20 1
     9    5    6 ar
    10    6    7 1
    11    7   12 1
    12    7    8 2
    13    8    9 1
    14    8   30 1
    15    9   10 1
    16    9   11 1
    17   11   12 2
    18   12   13 1
    19   13   14 1
    20   13   19 1
    21   13   15 1
    22   15   16 1
    23   15   31 1
    24   15   32 1
    25   16   17 1
    26   16   33 1
    27   16   34 1
    28   17   18 1
    29   17   35 1
    30   17   36 1
    31   18   19 1
    32   19   37 1
    33   19   38 1
    34   20   21 1
    35   20   39 1
    36   21   26 1
    37   21   22 1
    38   21   40 1
    39   22   23 1
    40   22   41 1
    41   22   42 1
    42   23   24 1
    43   23   43 1
    44   23   44 1
    45   24   25 1
    46   24   27 1
    47   24   45 1
    48   25   26 1
    49   25   46 1
    50   25   47 1
    51   26   48 1
    52   26   49 1
    53   27   50 1
@<TRIPOS>MOLECULE
ZINC30691792
   49    51     0     0     0
SMALL
USER_CHARGES
6-(2,4-difluorophenoxy)-2-[[3-hydroxy-1-(2-hydroxyethyl)propyl]amino]-8-methyl-pyrido[2,3-d]pyrimidin-7-one
@<TRIPOS>ATOM
      1 C1          4.8540   -2.9986    0.3688 C.3       1 <0>         0.0683
      2 N1          3.5707   -2.2985    0.2736 N.am      1 <0>        -0.4995
      3 C2          2.4049   -3.0209    0.2849 C.ar      1 <0>         0.4522
      4 C3          1.1663   -2.3495    0.1933 C.ar      1 <0>        -0.2637
      5 C4          1.1502   -0.8930    0.0880 C.2       1 <0>        -0.0905
      6 C5          2.3412   -0.2332    0.0821 C.2       1 <0>         0.0088
      7 C6          3.5538   -0.9577    0.1711 C.2       1 <0>         0.5622
      8 O1          4.6102   -0.3501    0.1597 O.2       1 <0>        -0.4932
      9 O2          2.3658    1.1229   -0.0150 O.3       1 <0>        -0.2185
     10 C7          1.1794    1.7863    0.0107 C.ar      1 <0>         0.0320
     11 C8          0.5956    2.2109   -1.1735 C.ar      1 <0>        -0.0597
     12 C9         -0.6071    2.8905   -1.1457 C.ar      1 <0>        -0.1491
     13 C10        -1.2361    3.1387    0.0626 C.ar      1 <0>         0.1407
     14 C11        -0.6563    2.7158    1.2465 C.ar      1 <0>        -0.1818
     15 C12         0.5505    2.0402    1.2232 C.ar      1 <0>         0.1250
     16 F1          1.1168    1.6272    2.3782 F         1 <0>        -0.1160
     17 F2         -2.4144    3.7992    0.0867 F         1 <0>        -0.1226
     18 C13        -0.0117   -3.1039    0.2059 C.ar      1 <0>         0.2539
     19 N2          0.0838   -4.4183    0.3034 N.ar      1 <0>        -0.5757
     20 C14         1.2660   -5.0175    0.3878 C.ar      1 <0>         0.6098
     21 N3          2.4068   -4.3447    0.3802 N.ar      1 <0>        -0.5977
     22 N4          1.3073   -6.3949    0.4880 N.pl3     1 <0>        -0.6963
     23 C15         0.0619   -7.1662    0.4994 C.3       1 <0>         0.1696
     24 C16         0.3365   -8.5858   -0.0008 C.3       1 <0>        -0.1274
     25 C17         0.7677   -8.5351   -1.4679 C.3       1 <0>         0.0867
     26 O3          1.0243   -9.8610   -1.9351 O.3       1 <0>        -0.6043
     27 C18        -0.4881   -7.2256    1.9259 C.3       1 <0>        -0.1310
     28 C19        -0.8795   -5.8181    2.3806 C.3       1 <0>         0.0963
     29 O4         -1.3932   -5.8736    3.7130 O.3       1 <0>        -0.6094
     30 H1          4.6761   -4.0814    0.4453 H         1 <0>         0.1086
     31 H2          5.3954   -2.6520    1.2614 H         1 <0>         0.0815
     32 H3          5.4540   -2.7881   -0.5288 H         1 <0>         0.0815
     33 H4          0.2175   -0.3531    0.0162 H         1 <0>         0.1480
     34 H5          1.0832    2.0143   -2.1169 H         1 <0>         0.1573
     35 H6         -1.0591    3.2249   -2.0678 H         1 <0>         0.1555
     36 H7         -1.1461    2.9137    2.1885 H         1 <0>         0.1592
     37 H8         -0.9764   -2.6234    0.1372 H         1 <0>         0.1809
     38 H9          2.2754   -6.9124    0.5592 H         1 <0>         0.4394
     39 H10        -0.6449   -6.6505   -0.1673 H         1 <0>         0.1005
     40 H11         1.1381   -9.0381    0.6016 H         1 <0>         0.0800
     41 H12        -0.5777   -9.1905    0.0920 H         1 <0>         0.0921
     42 H13        -0.0339   -8.0828   -2.0702 H         1 <0>         0.0420
     43 H14         1.6818   -7.9303   -1.5607 H         1 <0>         0.0426
     44 H15         1.3473  -10.0253   -2.9737 H         1 <0>         0.4126
     45 H16        -1.3731   -7.8783    1.9507 H         1 <0>         0.0829
     46 H17         0.2829   -7.6275    2.5997 H         1 <0>         0.0722
     47 H18         0.0056   -5.1654    2.3557 H         1 <0>         0.0338
     48 H19        -1.6505   -5.4162    1.7068 H         1 <0>         0.0533
     49 H20        -1.7283   -4.9524    4.2121 H         1 <0>         0.4072
@<TRIPOS>BOND
     1    1    2 1
     2    1   30 1
     3    1   31 1
     4    1   32 1
     5    2    7 am
     6    2    3 1
     7    3   21 ar
     8    3    4 ar
     9    4    5 1
    10    4   18 ar
    11    5    6 2
    12    5   33 1
    13    6    7 1
    14    6    9 1
    15    7    8 2
    16    9   10 1
    17   10   15 ar
    18   10   11 ar
    19   11   12 ar
    20   11   34 1
    21   12   13 ar
    22   12   35 1
    23   13   14 ar
    24   13   17 1
    25   14   15 ar
    26   14   36 1
    27   15   16 1
    28   18   19 ar
    29   18   37 1
    30   19   20 ar
    31   20   21 ar
    32   20   22 1
    33   22   23 1
    34   22   38 1
    35   23   24 1
    36   23   27 1
    37   23   39 1
    38   24   25 1
    39   24   40 1
    40   24   41 1
    41   25   26 1
    42   25   42 1
    43   25   43 1
    44   26   44 1
    45   27   28 1
    46   27   45 1
    47   27   46 1
    48   28   29 1
    49   28   47 1
    50   28   48 1
    51   29   49 1
@<TRIPOS>MOLECULE
ZINC36377992
   41    43     0     0     0
SMALL
USER_CHARGES

@<TRIPOS>ATOM
      1 C1         -0.4515    0.6754    0.2601 C.ar      1 <0>        -0.0384
      2 C2          0.6760    0.9916   -0.4750 C.ar      1 <0>        -0.1566
      3 C3          1.7918    0.1756   -0.4188 C.ar      1 <0>         0.1477
      4 C4          1.7785   -0.9629    0.3780 C.ar      1 <0>         0.0226
      5 C5          0.6435   -1.2771    1.1157 C.ar      1 <0>         0.1464
      6 C6         -0.4686   -0.4565    1.0540 C.ar      1 <0>        -0.1570
      7 F1          0.6257   -2.3831    1.8915 F         1 <0>        -0.1144
      8 N1          2.9080   -1.7932    0.4373 N.am      1 <0>        -0.5048
      9 C7          3.8916   -1.5617    1.3921 C.ar      1 <0>         0.4090
     10 C8          3.6937   -0.5728    2.3546 C.ar      1 <0>        -0.2052
     11 C9          4.6693   -0.3428    3.3021 C.ar      1 <0>        -0.0088
     12 C10         5.8358   -1.1196    3.2623 C.ar      1 <0>        -0.2080
     13 C11         5.9664   -2.1000    2.2617 C.ar      1 <0>         0.2617
     14 N2          4.9981   -2.2874    1.3759 N.ar      1 <0>        -0.4541
     15 C12         7.1899   -2.9309    2.2011 C.ar      1 <0>        -0.0596
     16 C13         7.2993   -4.0749    2.9922 C.ar      1 <0>        -0.0259
     17 C14         8.4405   -4.8460    2.9321 C.ar      1 <0>        -0.1576
     18 C15         9.4800   -4.4874    2.0872 C.ar      1 <0>         0.1374
     19 C16         9.3790   -3.3530    1.2992 C.ar      1 <0>        -0.1885
     20 C17         8.2371   -2.5757    1.3471 C.ar      1 <0>         0.1638
     21 F2          8.1362   -1.4722    0.5743 F         1 <0>        -0.1281
     22 F3         10.5957   -5.2473    2.0329 F         1 <0>        -0.1310
     23 C18         6.9076   -0.9123    4.2518 C.2       1 <0>         0.5688
     24 O1          7.9558   -1.5203    4.1492 O.2       1 <0>        -0.5180
     25 N3          6.7262   -0.0488    5.2707 N.am      1 <0>        -0.8501
     26 C19         3.0394   -2.8152   -0.4315 C.2       1 <0>         0.7040
     27 O2          4.0180   -3.5346   -0.3802 O.2       1 <0>        -0.5065
     28 N4          2.0858   -3.0396   -1.3572 N.am      1 <0>        -0.8545
     29 F4          2.8928    0.4848   -1.1381 F         1 <0>        -0.1138
     30 H1         -1.3196    1.3165    0.2175 H         1 <0>         0.1561
     31 H2          0.6857    1.8765   -1.0940 H         1 <0>         0.1561
     32 H3         -1.3511   -0.7001    1.6270 H         1 <0>         0.1561
     33 H4          2.7838    0.0089    2.3580 H         1 <0>         0.1421
     34 H5          4.5379    0.4183    4.0570 H         1 <0>         0.1497
     35 H6          6.4911   -4.3559    3.6512 H         1 <0>         0.1382
     36 H7          8.5253   -5.7313    3.5447 H         1 <0>         0.1450
     37 H8         10.1916   -3.0779    0.6432 H         1 <0>         0.1500
     38 H9          5.8902    0.4361    5.3525 H         1 <0>         0.3988
     39 H10         7.4318    0.0877    5.9221 H         1 <0>         0.4086
     40 H11         1.3050   -2.4656   -1.3981 H         1 <0>         0.3955
     41 H12         2.1804   -3.7751   -1.9825 H         1 <0>         0.4233
@<TRIPOS>BOND
     1    1    6 ar
     2    1    2 ar
     3    1   30 1
     4    2    3 ar
     5    2   31 1
     6    3    4 ar
     7    3   29 1
     8    4    5 ar
     9    4    8 1
    10    5    6 ar
    11    5    7 1
    12    6   32 1
    13    8    9 1
    14    8   26 am
    15    9   14 ar
    16    9   10 ar
    17   10   11 ar
    18   10   33 1
    19   11   12 ar
    20   11   34 1
    21   12   13 ar
    22   12   23 1
    23   13   14 ar
    24   13   15 1
    25   15   20 ar
    26   15   16 ar
    27   16   17 ar
    28   16   35 1
    29   17   18 ar
    30   17   36 1
    31   18   19 ar
    32   18   22 1
    33   19   20 ar
    34   19   37 1
    35   20   21 1
    36   23   24 2
    37   23   25 am
    38   25   38 1
    39   25   39 1
    40   26   27 2
    41   26   28 am
    42   28   40 1
    43   28   41 1
@<TRIPOS>MOLECULE
ZINC43175302
   57    60     0     0     0
SMALL
USER_CHARGES

@<TRIPOS>ATOM
      1 C1         -0.6600    0.0055    0.8437 C.3       1 <0>         0.1213
      2 N1          0.0171   -0.4221   -0.3830 N.pl3     1 <0>        -0.6379
      3 C2          1.4674   -0.2613   -0.5133 C.3       1 <0>         0.1201
      4 C3         -0.7140   -0.9783   -1.4198 C.2       1 <0>         0.3947
      5 C4         -0.9179   -2.3309   -1.6502 C.2       1 <0>        -0.2281
      6 C5         -1.7168   -2.4399   -2.8076 C.2       1 <0>         0.0871
      7 N2         -1.9742   -1.2364   -3.2412 N.2       1 <0>        -0.2869
      8 N3         -1.3665   -0.3051   -2.3918 N.pl3     1 <0>        -0.3657
      9 C6         -1.4252    1.1517   -2.5346 C.3       1 <0>         0.1730
     10 C7         -0.3295    1.6102   -3.4621 C.ar      1 <0>        -0.1168
     11 C8          0.8771    2.0439   -2.9454 C.ar      1 <0>        -0.0998
     12 C9          1.8821    2.4644   -3.7962 C.ar      1 <0>        -0.1236
     13 C10         1.6808    2.4508   -5.1637 C.ar      1 <0>        -0.1082
     14 C11         0.4746    2.0162   -5.6805 C.ar      1 <0>        -0.1224
     15 C12        -0.5289    1.5916   -4.8299 C.ar      1 <0>        -0.0888
     16 C13        -0.3954   -3.4487   -0.8357 C.ar      1 <0>         0.3167
     17 C14        -0.7599   -4.7698   -1.1238 C.ar      1 <0>        -0.2914
     18 C15        -0.2462   -5.7806   -0.3356 C.ar      1 <0>         0.1912
     19 N4          0.5701   -5.4742    0.6623 N.ar      1 <0>        -0.5822
     20 C16         0.8991   -4.2154    0.9135 C.ar      1 <0>         0.5693
     21 N5          0.4344   -3.2155    0.1807 N.ar      1 <0>        -0.5604
     22 N6          1.7549   -3.9393    1.9657 N.pl3     1 <0>        -0.6937
     23 C17         2.2846   -5.0321    2.7851 C.3       1 <0>         0.1633
     24 C18         1.2795   -5.3778    3.8856 C.3       1 <0>        -0.1268
     25 C19         1.0436   -4.1486    4.7655 C.3       1 <0>        -0.1102
     26 C20         2.3662   -3.7148    5.4007 C.3       1 <0>         0.1043
     27 C21         3.3714   -3.3690    4.3003 C.3       1 <0>        -0.1522
     28 C22         3.6072   -4.5983    3.4204 C.3       1 <0>        -0.1264
     29 O1          2.1459   -2.5667    6.2225 O.3       1 <0>        -0.5683
     30 H1         -0.4261    1.0515    1.0422 H         1 <0>         0.0476
     31 H2         -1.7372   -0.1094    0.7231 H         1 <0>         0.0577
     32 H3         -0.3205   -0.6074    1.6787 H         1 <0>         0.0529
     33 H4          1.8750    0.1287    0.4193 H         1 <0>         0.0693
     34 H5          1.9218   -1.2275   -0.7325 H         1 <0>         0.0527
     35 H6          1.6845    0.4345   -1.3238 H         1 <0>         0.0405
     36 H7         -2.0567   -3.3610   -3.2576 H         1 <0>         0.1882
     37 H8         -2.3931    1.4377   -2.9463 H         1 <0>         0.1030
     38 H9         -1.2935    1.6181   -1.5582 H         1 <0>         0.1008
     39 H10         1.0343    2.0545   -1.8770 H         1 <0>         0.1244
     40 H11         2.8245    2.8039   -3.3925 H         1 <0>         0.1242
     41 H12         2.4658    2.7800   -5.8284 H         1 <0>         0.1239
     42 H13         0.3172    2.0059   -6.7489 H         1 <0>         0.1250
     43 H14        -1.4700    1.2486   -5.2338 H         1 <0>         0.1257
     44 H15        -1.4274   -4.9928   -1.9429 H         1 <0>         0.1388
     45 H16        -0.5073   -6.8103   -0.5302 H         1 <0>         0.1630
     46 H17         2.0039   -3.0223    2.1605 H         1 <0>         0.4085
     47 H18         2.4526   -5.9078    2.1583 H         1 <0>         0.0942
     48 H19         0.3372   -5.6869    3.4330 H         1 <0>         0.0751
     49 H20         1.6736   -6.1909    4.4953 H         1 <0>         0.0727
     50 H21         0.6495   -3.3356    4.1558 H         1 <0>         0.0686
     51 H22         0.3275   -4.3949    5.5495 H         1 <0>         0.0673
     52 H23         2.7603   -4.5278    6.0104 H         1 <0>         0.0557
     53 H24         2.9772   -2.5560    3.6906 H         1 <0>         0.0682
     54 H25         4.3136   -3.0600    4.7528 H         1 <0>         0.0686
     55 H26         4.0013   -5.4113    4.0301 H         1 <0>         0.0818
     56 H27         4.3233   -4.3520    2.6364 H         1 <0>         0.0730
     57 H28         2.9434   -2.2360    6.6582 H         1 <0>         0.3775
@<TRIPOS>BOND
     1    1    2 1
     2    1   30 1
     3    1   31 1
     4    1   32 1
     5    2    3 1
     6    2    4 1
     7    3   33 1
     8    3   34 1
     9    3   35 1
    10    4    8 1
    11    4    5 2
    12    5    6 1
    13    5   16 1
    14    6    7 2
    15    6   36 1
    16    7    8 1
    17    8    9 1
    18    9   10 1
    19    9   37 1
    20    9   38 1
    21   10   15 ar
    22   10   11 ar
    23   11   12 ar
    24   11   39 1
    25   12   13 ar
    26   12   40 1
    27   13   14 ar
    28   13   41 1
    29   14   15 ar
    30   14   42 1
    31   15   43 1
    32   16   21 ar
    33   16   17 ar
    34   17   18 ar
    35   17   44 1
    36   18   19 ar
    37   18   45 1
    38   19   20 ar
    39   20   21 ar
    40   20   22 1
    41   22   23 1
    42   22   46 1
    43   23   28 1
    44   23   24 1
    45   23   47 1
    46   24   25 1
    47   24   48 1
    48   24   49 1
    49   25   26 1
    50   25   50 1
    51   25   51 1
    52   26   27 1
    53   26   29 1
    54   26   52 1
    55   27   28 1
    56   27   53 1
    57   27   54 1
    58   28   55 1
    59   28   56 1
    60   29   57 1
@<TRIPOS>MOLECULE
ZINC43175302
   58    61     0     0     0
SMALL
USER_CHARGES

@<TRIPOS>ATOM
      1 C1         -0.7841   -0.0119    0.4092 C.3       1 <0>         0.1078
      2 N1          0.3590   -0.3574   -0.4393 N.pl3     1 <0>        -0.6265
      3 C2          1.7236   -0.1946    0.0681 C.3       1 <0>         0.1073
      4 C3          0.1496   -0.8381   -1.7215 C.2       1 <0>         0.4987
      5 C4          0.1048   -2.1707   -2.1040 C.2       1 <0>        -0.1726
      6 C5         -0.1297   -2.1966   -3.4947 C.2       1 <0>         0.2208
      7 N2         -0.2193   -0.9652   -3.9169 N.pl3     1 <0>        -0.3719
      8 N3         -0.0549   -0.0971   -2.8318 N.pl3     1 <0>        -0.3283
      9 C6         -0.0948    1.3662   -2.8907 C.3       1 <0>         0.1459
     10 C7          1.3043    1.9005   -3.0587 C.ar      1 <0>        -0.1491
     11 C8          2.0261    2.3077   -1.9524 C.ar      1 <0>        -0.0879
     12 C9          3.3095    2.7978   -2.1065 C.ar      1 <0>        -0.1151
     13 C10         3.8712    2.8802   -3.3669 C.ar      1 <0>        -0.0875
     14 C11         3.1497    2.4721   -4.4731 C.ar      1 <0>        -0.1151
     15 C12         1.8679    1.9780   -4.3186 C.ar      1 <0>        -0.0972
     16 C13         0.2720   -3.3439   -1.2200 C.ar      1 <0>         0.2829
     17 C14         0.1056   -4.6411   -1.7205 C.ar      1 <0>        -0.2835
     18 C15         0.2724   -5.7057   -0.8569 C.ar      1 <0>         0.2086
     19 N4          0.5826   -5.4712    0.4099 N.ar      1 <0>        -0.5601
     20 C16         0.7344   -4.2336    0.8580 C.ar      1 <0>         0.5797
     21 N5          0.5890   -3.1838    0.0646 N.ar      1 <0>        -0.5554
     22 N6          1.0585   -4.0332    2.1886 N.pl3     1 <0>        -0.6838
     23 C17         1.2293   -5.1818    3.0818 C.3       1 <0>         0.1593
     24 C18        -0.1338   -5.6086    3.6301 C.3       1 <0>        -0.1279
     25 C19        -0.7577   -4.4472    4.4064 C.3       1 <0>        -0.1099
     26 C20         0.1599   -4.0584    5.5673 C.3       1 <0>         0.1023
     27 C21         1.5230   -3.6315    5.0191 C.3       1 <0>        -0.1523
     28 C22         2.1469   -4.7930    4.2428 C.3       1 <0>        -0.1280
     29 O1         -0.4229   -2.9736    6.2924 O.3       1 <0>        -0.5686
     30 H1         -0.9909    1.0549    0.3235 H         1 <0>         0.0530
     31 H2         -1.6586   -0.5784    0.0891 H         1 <0>         0.0668
     32 H3         -0.5534   -0.2551    1.4464 H         1 <0>         0.0888
     33 H4          2.0454   -1.1187    0.5483 H         1 <0>         0.0708
     34 H5          2.3939    0.0372   -0.7596 H         1 <0>         0.0618
     35 H6          1.7470    0.6188    0.7933 H         1 <0>         0.0808
     36 H7         -0.2192   -3.0831   -4.1051 H         1 <0>         0.2406
     37 H8         -0.7072    1.6793   -3.7363 H         1 <0>         0.1243
     38 H9         -0.5239    1.7555   -1.9675 H         1 <0>         0.1366
     39 H10         1.5873    2.2433   -0.9677 H         1 <0>         0.1292
     40 H11         3.8732    3.1166   -1.2422 H         1 <0>         0.1349
     41 H12         4.8736    3.2637   -3.4873 H         1 <0>         0.1346
     42 H13         3.5884    2.5368   -5.4579 H         1 <0>         0.1335
     43 H14         1.3056    1.6557   -5.1825 H         1 <0>         0.1211
     44 H15        -0.1476   -4.8052   -2.7575 H         1 <0>         0.1445
     45 H16         0.1510   -6.7190   -1.2103 H         1 <0>         0.1745
     46 H17         1.1725   -3.1324    2.5297 H         1 <0>         0.4117
     47 H18         1.6738   -6.0092    2.5288 H         1 <0>         0.0982
     48 H19        -0.7876   -5.8856    2.8031 H         1 <0>         0.0748
     49 H20        -0.0067   -6.4632    4.2947 H         1 <0>         0.0787
     50 H21        -0.8848   -3.5926    3.7418 H         1 <0>         0.0654
     51 H22        -1.7289   -4.7513    4.7970 H         1 <0>         0.0706
     52 H23         0.2870   -4.9129    6.2319 H         1 <0>         0.0588
     53 H24         1.3959   -2.7770    4.3545 H         1 <0>         0.0654
     54 H25         2.1767   -3.3545    5.8461 H         1 <0>         0.0722
     55 H26         2.2740   -5.6475    4.9073 H         1 <0>         0.0870
     56 H27         3.1180   -4.4889    3.8522 H         1 <0>         0.0746
     57 H28         0.1061   -2.6740    7.0444 H         1 <0>         0.3806
     58 H29        -0.3779   -0.6950   -4.8350 H         1 <0>         0.4734
@<TRIPOS>BOND
     1    1    2 1
     2    1   30 1
     3    1   31 1
     4    1   32 1
     5    2    3 1
     6    2    4 1
     7    3   33 1
     8    3   34 1
     9    3   35 1
    10    4    8 1
    11    4    5 2
    12    5    6 1
    13    5   16 1
    14    6    7 2
    15    6   36 1
    16    7    8 1
    17    7   58 1
    18    8    9 1
    19    9   10 1
    20    9   37 1
    21    9   38 1
    22   10   15 ar
    23   10   11 ar
    24   11   12 ar
    25   11   39 1
    26   12   13 ar
    27   12   40 1
    28   13   14 ar
    29   13   41 1
    30   14   15 ar
    31   14   42 1
    32   15   43 1
    33   16   21 ar
    34   16   17 ar
    35   17   18 ar
    36   17   44 1
    37   18   19 ar
    38   18   45 1
    39   19   20 ar
    40   20   21 ar
    41   20   22 1
    42   22   23 1
    43   22   46 1
    44   23   28 1
    45   23   24 1
    46   23   47 1
    47   24   25 1
    48   24   48 1
    49   24   49 1
    50   25   26 1
    51   25   50 1
    52   25   51 1
    53   26   27 1
    54   26   29 1
    55   26   52 1
    56   27   28 1
    57   27   53 1
    58   27   54 1
    59   28   55 1
    60   28   56 1
    61   29   57 1
@<TRIPOS>MOLECULE
ZINC58633224
   46    49     0     0     0
SMALL
USER_CHARGES

@<TRIPOS>ATOM
      1 C1          0.0061    1.4638   -0.3326 C.3       1 <0>         0.0692
      2 N1          0.0190    0.0075   -0.1738 N.am      1 <0>        -0.5030
      3 C2         -1.1667   -0.6667   -0.0299 C.ar      1 <0>         0.4666
      4 C3         -1.1578   -2.0702    0.1228 C.ar      1 <0>        -0.2897
      5 C4          0.1185   -2.7800    0.1246 C.2       1 <0>         0.0266
      6 C5          1.2608   -2.0539   -0.0224 C.2       1 <0>        -0.0441
      7 C6          1.1930   -0.6486   -0.1770 C.2       1 <0>         0.5312
      8 O1          2.2258   -0.0160   -0.3120 O.2       1 <0>        -0.5008
      9 O2          2.4679   -2.6800   -0.0252 O.3       1 <0>        -0.2141
     10 C7          3.3138   -2.4399    1.0118 C.ar      1 <0>         0.0835
     11 C8          2.8933   -1.6721    2.0874 C.ar      1 <0>        -0.1285
     12 C9          3.7539   -1.4288    3.1406 C.ar      1 <0>        -0.1228
     13 C10         5.0363   -1.9506    3.1236 C.ar      1 <0>         0.1014
     14 C11         5.4595   -2.7171    2.0511 C.ar      1 <0>        -0.1543
     15 C12         4.5987   -2.9680    0.9978 C.ar      1 <0>         0.1132
     16 F1          5.0091   -3.7209   -0.0463 F         1 <0>        -0.1197
     17 F2          5.8759   -1.7112    4.1546 F         1 <0>        -0.1289
     18 C13        -2.3773   -2.7400    0.2678 C.ar      1 <0>         0.2730
     19 N2         -3.4912   -2.0290    0.2558 N.ar      1 <0>        -0.5773
     20 C14        -3.4630   -0.7093    0.1100 C.ar      1 <0>         0.6155
     21 N3         -2.3328   -0.0330   -0.0304 N.ar      1 <0>        -0.5988
     22 N4         -4.6577   -0.0155    0.1047 N.pl3     1 <0>        -0.6787
     23 C15        -5.9240   -0.7362    0.2579 C.3       1 <0>         0.1569
     24 C16        -6.3937   -1.2433   -1.1090 C.3       1 <0>        -0.1664
     25 C17        -7.7549   -1.9259   -0.9512 C.3       1 <0>         0.0636
     26 O3         -8.6865   -1.0025   -0.3841 O.3       1 <0>        -0.3805
     27 C18        -8.3231   -0.5307    0.9149 C.3       1 <0>         0.0655
     28 C19        -6.9847    0.2080    0.8321 C.3       1 <0>        -0.1666
     29 H1          1.0285    1.8269   -0.4377 H         1 <0>         0.1019
     30 H2         -0.5663    1.7273   -1.2220 H         1 <0>         0.0817
     31 H3         -0.4534    1.9207    0.5438 H         1 <0>         0.0817
     32 H4          0.1553   -3.8532    0.2400 H         1 <0>         0.1638
     33 H5          1.8934   -1.2643    2.1017 H         1 <0>         0.1368
     34 H6          3.4261   -0.8305    3.9779 H         1 <0>         0.1472
     35 H7          6.4602   -3.1232    2.0391 H         1 <0>         0.1595
     36 H8         -2.4078   -3.8130    0.3864 H         1 <0>         0.1883
     37 H9         -4.6582    0.9487   -0.0006 H         1 <0>         0.4173
     38 H10        -5.7836   -1.5805    0.9329 H         1 <0>         0.0996
     39 H11        -6.4852   -0.4031   -1.7974 H         1 <0>         0.0736
     40 H12        -5.6706   -1.9589   -1.5002 H         1 <0>         0.0811
     41 H13        -8.1139   -2.2510   -1.9277 H         1 <0>         0.0988
     42 H14        -7.6542   -2.7901   -0.2946 H         1 <0>         0.0564
     43 H15        -9.0914    0.1493    1.2828 H         1 <0>         0.1015
     44 H16        -8.2298   -1.3766    1.5960 H         1 <0>         0.0563
     45 H17        -6.6842    0.5303    1.8290 H         1 <0>         0.0828
     46 H18        -7.0881    1.0775    0.1829 H         1 <0>         0.0799
@<TRIPOS>BOND
     1    1    2 1
     2    1   29 1
     3    1   30 1
     4    1   31 1
     5    2    7 am
     6    2    3 1
     7    3   21 ar
     8    3    4 ar
     9    4    5 1
    10    4   18 ar
    11    5    6 2
    12    5   32 1
    13    6    7 1
    14    6    9 1
    15    7    8 2
    16    9   10 1
    17   10   15 ar
    18   10   11 ar
    19   11   12 ar
    20   11   33 1
    21   12   13 ar
    22   12   34 1
    23   13   14 ar
    24   13   17 1
    25   14   15 ar
    26   14   35 1
    27   15   16 1
    28   18   19 ar
    29   18   36 1
    30   19   20 ar
    31   20   21 ar
    32   20   22 1
    33   22   23 1
    34   22   37 1
    35   23   28 1
    36   23   24 1
    37   23   38 1
    38   24   25 1
    39   24   39 1
    40   24   40 1
    41   25   26 1
    42   25   41 1
    43   25   42 1
    44   26   27 1
    45   27   28 1
    46   27   43 1
    47   27   44 1
    48   28   45 1
    49   28   46 1
@<TRIPOS>MOLECULE
ZINC01493878
   48    50     0     0     0
SMALL
USER_CHARGES

@<TRIPOS>ATOM
      1 C1         -1.0955   -5.0083   -6.9234 C.3       1 <0>         0.0847
      2 N1         -1.5520   -4.3038   -5.7228 N.am      1 <0>        -0.7137
      3 C2         -1.8827   -5.0004   -4.6175 C.2       1 <0>         0.5696
      4 O1         -1.8023   -6.2129   -4.6168 O.2       1 <0>        -0.5284
      5 C3         -2.3445   -4.2878   -3.4031 C.ar      1 <0>         0.1129
      6 C4         -2.6788   -5.0128   -2.2640 C.ar      1 <0>        -0.1883
      7 C5         -3.1110   -4.3279   -1.1310 C.ar      1 <0>         0.1595
      8 C6         -3.1903   -2.9389   -1.1877 C.ar      1 <0>        -0.1766
      9 C7         -2.8404   -2.2885   -2.3571 C.ar      1 <0>         0.1349
     10 N2         -2.4302   -2.9626   -3.4105 N.ar      1 <0>        -0.4815
     11 O2         -3.4471   -4.9979    0.0005 O.3       1 <0>        -0.2437
     12 C8         -3.4462   -6.3570   -0.0383 C.ar      1 <0>         0.0568
     13 C9         -2.2447   -7.0505   -0.0178 C.ar      1 <0>        -0.1074
     14 C10        -2.2431   -8.4307   -0.0577 C.ar      1 <0>        -0.1009
     15 C11        -3.4442   -9.1246   -0.1179 C.ar      1 <0>         0.1671
     16 C12        -4.6464   -8.4301   -0.1379 C.ar      1 <0>        -0.1272
     17 C13        -4.6469   -7.0500   -0.0928 C.ar      1 <0>        -0.0940
     18 N3         -3.4432  -10.5252   -0.1588 N.am      1 <0>        -0.6776
     19 C14        -2.5108  -11.2187    0.5239 C.2       1 <0>         0.7077
     20 O3         -1.6217  -10.6297    1.1080 O.2       1 <0>        -0.5493
     21 N4         -2.5639  -12.5649    0.5593 N.am      1 <0>        -0.6795
     22 C15        -1.6655  -13.2800    1.3600 C.ar      1 <0>         0.1700
     23 C16        -1.2529  -12.7583    2.5792 C.ar      1 <0>        -0.0742
     24 C17        -0.3670  -13.4659    3.3674 C.ar      1 <0>        -0.0871
     25 C18         0.1097  -14.6941    2.9434 C.ar      1 <0>        -0.0077
     26 C19        -0.2993  -15.2159    1.7290 C.ar      1 <0>        -0.1564
     27 C20        -1.1898  -14.5147    0.9394 C.ar      1 <0>        -0.0879
     28 C21         0.2222  -16.5533    1.2702 C.3       1 <0>         0.5112
     29 F1         -0.3299  -16.8663    0.0234 F         1 <0>        -0.1743
     30 F2          1.6160  -16.4983    1.1626 F         1 <0>        -0.1671
     31 F3         -0.1354  -17.5367    2.1987 F         1 <0>        -0.1677
     32 Cl1         1.2234  -15.5812    3.9366 Cl        1 <0>        -0.0394
     33 H1         -0.8760   -4.2843   -7.7081 H         1 <0>         0.0803
     34 H2         -0.1948   -5.5764   -6.6909 H         1 <0>         0.0631
     35 H3         -1.8761   -5.6883   -7.2645 H         1 <0>         0.0629
     36 H4         -1.6162   -3.3359   -5.7233 H         1 <0>         0.4141
     37 H5         -2.6047   -6.0902   -2.2584 H         1 <0>         0.1546
     38 H6         -3.5217   -2.3755   -0.3280 H         1 <0>         0.1523
     39 H7         -2.9005   -1.2112   -2.4052 H         1 <0>         0.1747
     40 H8         -1.3104   -6.5106    0.0290 H         1 <0>         0.1364
     41 H9         -1.3078   -8.9704   -0.0424 H         1 <0>         0.1514
     42 H10        -5.5809   -8.9693   -0.1851 H         1 <0>         0.1386
     43 H11        -5.5820   -6.5098   -0.1039 H         1 <0>         0.1400
     44 H12        -4.1137  -10.9957   -0.6785 H         1 <0>         0.4131
     45 H13        -3.2246  -13.0383    0.0299 H         1 <0>         0.4146
     46 H14        -1.6244  -11.7997    2.9103 H         1 <0>         0.1546
     47 H15        -0.0456  -13.0604    4.3154 H         1 <0>         0.1524
     48 H16        -1.5123  -14.9245   -0.0064 H         1 <0>         0.1525
@<TRIPOS>BOND
     1    1    2 1
     2    1   33 1
     3    1   34 1
     4    1   35 1
     5    2    3 am
     6    2   36 1
     7    3    4 2
     8    3    5 1
     9    5   10 ar
    10    5    6 ar
    11    6    7 ar
    12    6   37 1
    13    7    8 ar
    14    7   11 1
    15    8    9 ar
    16    8   38 1
    17    9   10 ar
    18    9   39 1
    19   11   12 1
    20   12   17 ar
    21   12   13 ar
    22   13   14 ar
    23   13   40 1
    24   14   15 ar
    25   14   41 1
    26   15   16 ar
    27   15   18 1
    28   16   17 ar
    29   16   42 1
    30   17   43 1
    31   18   19 am
    32   18   44 1
    33   19   20 2
    34   19   21 am
    35   21   22 1
    36   21   45 1
    37   22   27 ar
    38   22   23 ar
    39   23   24 ar
    40   23   46 1
    41   24   25 ar
    42   24   47 1
    43   25   26 ar
    44   25   32 1
    45   26   27 ar
    46   26   28 1
    47   27   48 1
    48   28   29 1
    49   28   30 1
    50   28   31 1
@<TRIPOS>MOLECULE
ZINC03814434
   62    69     0     0     0
SMALL
USER_CHARGES

@<TRIPOS>ATOM
      1 C1         -0.1295    1.5952   -0.2973 C.3       1 <0>        -0.1687
      2 C2         -0.0862    0.0696   -0.1900 C.3       1 <0>         0.3342
      3 C3          0.5692   -0.4501   -1.4637 C.3       1 <0>         0.0405
      4 H1          1.4796    0.1159   -1.6612 H         1 <0>         0.1372
      5 C4          0.9167   -1.9328   -1.2889 C.3       1 <0>        -0.0061
      6 H2          1.3963   -2.3075   -2.1932 H         1 <0>         0.1555
      7 C5          1.8785   -2.0596   -0.1021 C.3       1 <0>        -0.1827
      8 C6          1.2061   -1.5198    1.1541 C.3       1 <0>         0.2999
      9 H3          1.9797   -1.4243    1.9161 H         1 <0>         0.1550
     10 O1          0.6555   -0.2442    0.9666 O.3       1 <0>        -0.3234
     11 N1          0.2189   -2.4746    1.6600 N.pl3     1 <0>        -0.5366
     12 C7          0.4705   -3.5508    2.4739 C.ar      1 <0>         0.1469
     13 C8          1.6649   -4.0152    3.0240 C.ar      1 <0>        -0.1522
     14 C9          1.5948   -5.1456    3.8201 C.ar      1 <0>        -0.0582
     15 C10         0.4006   -5.7997    4.0696 C.ar      1 <0>        -0.1457
     16 C11        -0.7984   -5.3597    3.5358 C.ar      1 <0>        -0.0280
     17 C12        -0.7487   -4.2198    2.7307 C.ar      1 <0>        -0.1131
     18 C13        -1.7893   -3.4830    2.0197 C.ar      1 <0>         0.0276
     19 C14        -1.1442   -2.4197    1.3841 C.ar      1 <0>         0.0376
     20 C15        -1.8806   -1.5095    0.6175 C.ar      1 <0>         0.0894
     21 N2         -1.4718   -0.3951   -0.1095 N.pl3     1 <0>        -0.5183
     22 C16        -2.5611    0.1913   -0.7090 C.ar      1 <0>         0.1618
     23 C17        -2.6521    1.3277   -1.5118 C.ar      1 <0>        -0.1305
     24 C18        -3.9109    1.6745   -1.9733 C.ar      1 <0>        -0.0737
     25 C19        -5.0393    0.9368   -1.6616 C.ar      1 <0>        -0.1358
     26 C20        -4.9745   -0.1955   -0.8662 C.ar      1 <0>        -0.0503
     27 C21        -3.7147   -0.5596   -0.3919 C.ar      1 <0>        -0.1042
     28 C22        -3.2693   -1.6660    0.4845 C.ar      1 <0>        -0.0360
     29 C23        -3.9084   -2.7313    1.1102 C.ar      1 <0>        -0.0288
     30 C24        -3.1873   -3.6421    1.8754 C.ar      1 <0>        -0.1255
     31 C25        -4.1221   -4.6480    2.4030 C.2       1 <0>         0.5632
     32 O2         -3.8062   -5.5851    3.1110 O.2       1 <0>        -0.5106
     33 N3         -5.3744   -4.3851    1.9926 N.am      1 <0>        -0.7162
     34 C26        -5.3495   -3.1771    1.1601 C.3       1 <0>         0.1358
     35 N4         -0.3067   -2.7008   -1.0216 N.4       1 <0>        -0.5252
     36 C27         0.0145   -4.1336   -0.9773 C.3       1 <0>        -0.0497
     37 O3         -0.3340   -0.2979   -2.5607 O.3       1 <0>        -0.3614
     38 C28         0.3101   -0.0933   -3.8198 C.3       1 <0>         0.0162
     39 H4          0.8261    2.0094    0.0240 H         1 <0>         0.0984
     40 H5         -0.3202    1.8814   -1.3317 H         1 <0>         0.1036
     41 H6         -0.9255    1.9818    0.3392 H         1 <0>         0.0921
     42 H7          2.1370   -3.1081    0.0458 H         1 <0>         0.1233
     43 H8          2.7835   -1.4869   -0.3048 H         1 <0>         0.1455
     44 H9          2.6036   -3.5149    2.8368 H         1 <0>         0.1365
     45 H10         2.5026   -5.5304    4.2610 H         1 <0>         0.1359
     46 H11         0.4045   -6.6780    4.6980 H         1 <0>         0.1352
     47 H12        -1.7278   -5.8736    3.7323 H         1 <0>         0.1600
     48 H13        -1.7792    1.9122   -1.7624 H         1 <0>         0.1440
     49 H14        -4.0153    2.5500   -2.5970 H         1 <0>         0.1336
     50 H15        -5.9967    1.2527   -2.0488 H         1 <0>         0.1332
     51 H16        -5.8575   -0.7687   -0.6249 H         1 <0>         0.1415
     52 H17        -6.1628   -4.9065    2.2103 H         1 <0>         0.4348
     53 H18        -5.9671   -2.3994    1.6094 H         1 <0>         0.1115
     54 H19        -5.7060   -3.4063    0.1559 H         1 <0>         0.1103
     55 H20        -0.6958   -2.4158   -0.1353 H         1 <0>         0.4186
     56 H21         0.4349   -4.4415   -1.9347 H         1 <0>         0.1256
     57 H22         0.7403   -4.3189   -0.1854 H         1 <0>         0.1191
     58 H23        -0.8932   -4.7035   -0.7789 H         1 <0>         0.1256
     59 H24         0.9168    0.8112   -3.7748 H         1 <0>         0.0633
     60 H25         0.9482   -0.9479   -4.0446 H         1 <0>         0.0514
     61 H26        -0.4433    0.0130   -4.6003 H         1 <0>         0.1100
     62 H27        -0.9785   -2.5293   -1.7546 H         1 <0>         0.4274
@<TRIPOS>BOND
     1    1    2 1
     2    1   39 1
     3    1   40 1
     4    1   41 1
     5    2   10 1
     6    2   21 1
     7    2    3 1
     8    3    4 1
     9    3    5 1
    10    3   37 1
    11    5    6 1
    12    5    7 1
    13    5   35 1
    14    7    8 1
    15    7   42 1
    16    7   43 1
    17    8    9 1
    18    8   10 1
    19    8   11 1
    20   11   19 1
    21   11   12 1
    22   12   17 ar
    23   12   13 ar
    24   13   14 ar
    25   13   44 1
    26   14   15 ar
    27   14   45 1
    28   15   16 ar
    29   15   46 1
    30   16   17 ar
    31   16   47 1
    32   17   18 1
    33   18   30 ar
    34   18   19 ar
    35   19   20 ar
    36   20   28 ar
    37   20   21 1
    38   21   22 1
    39   22   27 ar
    40   22   23 ar
    41   23   24 ar
    42   23   48 1
    43   24   25 ar
    44   24   49 1
    45   25   26 ar
    46   25   50 1
    47   26   27 ar
    48   26   51 1
    49   27   28 1
    50   28   29 ar
    51   29   34 1
    52   29   30 ar
    53   30   31 1
    54   31   32 2
    55   31   33 am
    56   33   34 1
    57   33   52 1
    58   34   53 1
    59   34   54 1
    60   35   36 1
    61   35   55 1
    62   35   62 1
    63   36   56 1
    64   36   57 1
    65   36   58 1
    66   37   38 1
    67   38   59 1
    68   38   60 1
    69   38   61 1
@<TRIPOS>MOLECULE
ZINC05332367
   33    36     0     0     0
SMALL
USER_CHARGES

@<TRIPOS>ATOM
      1 C1          0.1498    1.5587   -0.3194 C.ar      1 <0>        -0.1172
      2 C2          1.3550    2.2361   -0.4956 C.ar      1 <0>        -0.1216
      3 C3          2.5410    1.5687   -0.4880 C.ar      1 <0>        -0.0945
      4 C4          2.5541    0.1756   -0.2994 C.ar      1 <0>        -0.0407
      5 C5          3.7595   -0.5453   -0.2854 C.ar      1 <0>        -0.0712
      6 C6          3.7319   -1.9087   -0.0977 C.ar      1 <0>         0.1536
      7 C7          2.5172   -2.5812    0.0788 C.ar      1 <0>        -0.0988
      8 C8          1.3373   -1.9064    0.0688 C.ar      1 <0>        -0.1001
      9 C9          1.3284   -0.5133   -0.1199 C.ar      1 <0>        -0.0477
     10 C10         0.1239    0.2106   -0.1344 C.ar      1 <0>        -0.1058
     11 N1          4.9326   -2.6310   -0.0836 N.pl3     1 <0>        -0.4519
     12 C11         5.3680   -3.5421   -1.0217 C.2       1 <0>         0.1402
     13 N2          6.5394   -3.9788   -0.6195 N.2       1 <0>        -0.2560
     14 N3          6.8628   -3.4132    0.4881 N.2       1 <0>        -0.3350
     15 C12         5.9199   -2.5749    0.8605 C.2       1 <0>         0.3874
     16 S1          5.9264   -1.5699    2.3078 S.3       1 <0>        -0.7777
     17 C13         4.6520   -3.9506   -2.2476 C.ar      1 <0>         0.0649
     18 C14         3.6078   -3.1733   -2.7643 C.ar      1 <0>        -0.1701
     19 C15         2.9669   -3.5923   -3.9109 C.ar      1 <0>         0.1028
     20 N4          3.3251   -4.7077   -4.5186 N.ar      1 <0>        -0.4927
     21 C16         4.3031   -5.4694   -4.0658 C.ar      1 <0>         0.0991
     22 C17         5.0022   -5.1230   -2.9290 C.ar      1 <0>        -0.1449
     23 H1         -0.7774    2.1126   -0.3254 H         1 <0>         0.1208
     24 H2          1.3476    3.3063   -0.6406 H         1 <0>         0.1218
     25 H3          3.4673    2.1064   -0.6264 H         1 <0>         0.1277
     26 H4          4.7009   -0.0337   -0.4212 H         1 <0>         0.1330
     27 H5          2.5173   -3.6513    0.2246 H         1 <0>         0.1237
     28 H6          0.4081   -2.4396    0.2060 H         1 <0>         0.1330
     29 H7         -0.8179   -0.3005    0.0011 H         1 <0>         0.1261
     30 H8          3.3089   -2.2597   -2.2718 H         1 <0>         0.1342
     31 H9          2.1605   -2.9998   -4.3172 H         1 <0>         0.1550
     32 H10         4.5622   -6.3743   -4.5954 H         1 <0>         0.1580
     33 H11         5.8047   -5.7486   -2.5670 H         1 <0>         0.1445
@<TRIPOS>BOND
     1    1   10 ar
     2    1    2 ar
     3    1   23 1
     4    2    3 ar
     5    2   24 1
     6    3    4 ar
     7    3   25 1
     8    4    9 ar
     9    4    5 ar
    10    5    6 ar
    11    5   26 1
    12    6    7 ar
    13    6   11 1
    14    7    8 ar
    15    7   27 1
    16    8    9 ar
    17    8   28 1
    18    9   10 ar
    19   10   29 1
    20   11   15 1
    21   11   12 1
    22   12   13 2
    23   12   17 1
    24   13   14 1
    25   14   15 2
    26   15   16 1
    27   17   22 ar
    28   17   18 ar
    29   18   19 ar
    30   18   30 1
    31   19   20 ar
    32   19   31 1
    33   20   21 ar
    34   21   22 ar
    35   21   32 1
    36   22   33 1
@<TRIPOS>MOLECULE
ZINC14687377
   46    48     0     0     0
SMALL
USER_CHARGES

@<TRIPOS>ATOM
      1 C1         -0.0187    1.5258    0.0104 C.3       1 <0>        -0.1523
      2 C2          0.0021   -0.0041    0.0020 C.3       1 <0>         0.0560
      3 O1         -1.3386   -0.4987    0.0122 O.3       1 <0>        -0.3458
      4 C3         -1.4971   -1.8382    0.0065 C.2       1 <0>         0.5347
      5 O2         -0.5226   -2.5659   -0.0067 O.2       1 <0>        -0.4922
      6 C4         -2.8425   -2.4162    0.0162 C.2       1 <0>        -0.2221
      7 C5         -3.5507   -2.7149   -1.2080 C.2       1 <0>        -0.0216
      8 C6         -4.7793   -3.2433   -1.0611 C.2       1 <0>        -0.2565
      9 S1         -4.9775   -3.3365    0.7047 S.3       1 <0>         0.3010
     10 C7         -3.5020   -2.7113    1.2017 C.2       1 <0>         0.0535
     11 N1         -3.0468   -2.5294    2.4982 N.am      1 <0>        -0.6240
     12 C8         -3.8273   -2.8749    3.5412 C.2       1 <0>         0.5082
     13 O3         -4.9280   -3.3451    3.3453 O.2       1 <0>        -0.4826
     14 C9         -3.3324   -2.6772    4.9508 C.3       1 <0>        -0.0878
     15 C10        -4.3869   -3.1395    5.9230 C.ar      1 <0>        -0.1164
     16 C11        -5.3455   -2.2517    6.3752 C.ar      1 <0>        -0.0608
     17 C12        -6.3130   -2.6729    7.2667 C.ar      1 <0>        -0.1499
     18 C13        -6.3225   -3.9882    7.7080 C.ar      1 <0>         0.1338
     19 C14        -5.3599   -4.8772    7.2524 C.ar      1 <0>        -0.2066
     20 C15        -4.3976   -4.4523    6.3568 C.ar      1 <0>        -0.0603
     21 O4         -7.2730   -4.4049    8.5854 O.3       1 <0>        -0.3170
     22 C16        -7.2215   -5.7725    8.9964 C.3       1 <0>         0.0261
     23 C17        -2.9503   -2.4503   -2.5647 C.3       1 <0>        -0.1103
     24 C18        -3.8600   -2.6141   -3.7839 C.3       1 <0>        -0.1658
     25 C19        -2.7663   -3.6461   -3.5013 C.3       1 <0>        -0.1634
     26 H1          1.0039    1.9031    0.0027 H         1 <0>         0.0811
     27 H2         -0.5459    1.8868   -0.8726 H         1 <0>         0.0678
     28 H3         -0.5289    1.8773    0.9072 H         1 <0>         0.0667
     29 H4          0.5123   -0.3556   -0.8948 H         1 <0>         0.0688
     30 H5          0.5293   -0.3651    0.8851 H         1 <0>         0.0676
     31 H6         -5.4774   -3.5394   -1.8301 H         1 <0>         0.1902
     32 H7         -2.1664   -2.1534    2.6548 H         1 <0>         0.4191
     33 H8         -2.4212   -3.2563    5.1005 H         1 <0>         0.1115
     34 H9         -3.1228   -1.6206    5.1174 H         1 <0>         0.1125
     35 H10        -5.3377   -1.2279    6.0314 H         1 <0>         0.1287
     36 H11        -7.0612   -1.9789    7.6202 H         1 <0>         0.1329
     37 H12        -5.3651   -5.9016    7.5944 H         1 <0>         0.1297
     38 H13        -3.6506   -5.1451    5.9985 H         1 <0>         0.1239
     39 H14        -7.3248   -6.4182    8.1243 H         1 <0>         0.0568
     40 H15        -6.2666   -5.9698    9.4836 H         1 <0>         0.0563
     41 H16        -8.0340   -5.9728    9.6950 H         1 <0>         0.1017
     42 H17        -2.1976   -1.6627   -2.6002 H         1 <0>         0.1071
     43 H18        -4.8927   -2.9133   -3.6048 H         1 <0>         0.1003
     44 H19        -3.7059   -1.9342   -4.6218 H         1 <0>         0.1007
     45 H20        -1.8928   -3.6451   -4.1532 H         1 <0>         0.0991
     46 H21        -3.0796   -4.6242   -3.1361 H         1 <0>         0.0994
@<TRIPOS>BOND
     1    1    2 1
     2    1   26 1
     3    1   27 1
     4    1   28 1
     5    2    3 1
     6    2   29 1
     7    2   30 1
     8    3    4 1
     9    4    5 2
    10    4    6 1
    11    6   10 2
    12    6    7 1
    13    7    8 2
    14    7   23 1
    15    8    9 1
    16    8   31 1
    17    9   10 1
    18   10   11 1
    19   11   12 am
    20   11   32 1
    21   12   13 2
    22   12   14 1
    23   14   15 1
    24   14   33 1
    25   14   34 1
    26   15   20 ar
    27   15   16 ar
    28   16   17 ar
    29   16   35 1
    30   17   18 ar
    31   17   36 1
    32   18   19 ar
    33   18   21 1
    34   19   20 ar
    35   19   37 1
    36   20   38 1
    37   21   22 1
    38   22   39 1
    39   22   40 1
    40   22   41 1
    41   23   25 1
    42   23   24 1
    43   23   42 1
    44   24   25 1
    45   24   43 1
    46   24   44 1
    47   25   45 1
    48   25   46 1
@<TRIPOS>MOLECULE
ZINC71318764
   33    35     0     0     0
SMALL
USER_CHARGES

@<TRIPOS>ATOM
      1 C1         -0.0164    1.3552    0.0095 C.ar      1 <0>        -0.1189
      2 C2          1.1573    2.0973    0.0023 C.ar      1 <0>        -0.0954
      3 C3          2.3741    1.4452   -0.0128 C.ar      1 <0>        -0.0759
      4 C4          2.4061    0.0671   -0.0204 C.ar      1 <0>        -0.1127
      5 C5          1.2281   -0.7107   -0.0134 C.ar      1 <0>        -0.0747
      6 C6          0.0021   -0.0041    0.0020 C.ar      1 <0>        -0.0768
      7 C7          1.4506   -2.1491   -0.0232 C.2       1 <0>        -0.0948
      8 C8          2.7062   -2.6192   -0.0376 C.2       1 <0>        -0.1374
      9 S1          3.7042   -1.1421   -0.0393 S.3       1 <0>         0.0404
     10 C9          0.2817   -3.1002   -0.0167 C.3       1 <0>        -0.0815
     11 C10        -0.2001   -3.3137   -1.4285 C.2       1 <0>         0.5048
     12 O1          0.3515   -2.7491   -2.3494 O.2       1 <0>        -0.4854
     13 N1         -1.2438   -4.1321   -1.6679 N.am      1 <0>        -0.6132
     14 C11        -1.6871   -4.3286   -2.9670 C.2       1 <0>         0.0857
     15 C12        -2.7397   -5.1227   -3.3979 C.2       1 <0>        -0.2759
     16 C13        -2.9895   -5.1481   -4.8210 C.2       1 <0>        -0.1018
     17 C14        -2.1680   -4.3938   -5.5743 C.2       1 <0>        -0.2559
     18 S2         -1.0781   -3.6547   -4.3776 S.3       1 <0>         0.2875
     19 C15        -3.5565   -5.8968   -2.4580 C.2       1 <0>         0.5917
     20 O2         -3.3181   -5.8527   -1.2653 O.2       1 <0>        -0.5661
     21 N2         -4.5712   -6.6572   -2.9147 N.am      1 <0>        -0.8487
     22 H1         -0.9657    1.8698    0.0259 H         1 <0>         0.1276
     23 H2          1.1186    3.1766    0.0080 H         1 <0>         0.1353
     24 H3          3.2942    2.0107   -0.0189 H         1 <0>         0.1324
     25 H4         -0.9293   -0.5508    0.0079 H         1 <0>         0.1191
     26 H5          3.0347   -3.6480   -0.0458 H         1 <0>         0.1899
     27 H6          0.5920   -4.0542    0.4096 H         1 <0>         0.1162
     28 H7         -0.5255   -2.6797    0.5830 H         1 <0>         0.1129
     29 H8         -1.6849   -4.5837   -0.9314 H         1 <0>         0.4339
     30 H9         -3.7857   -5.7360   -5.2532 H         1 <0>         0.1419
     31 H10        -2.1721   -4.2647   -6.6466 H         1 <0>         0.1891
     32 H11        -4.7612   -6.6923   -3.8653 H         1 <0>         0.4018
     33 H12        -5.1115   -7.1693   -2.2929 H         1 <0>         0.4046
@<TRIPOS>BOND
     1    1    6 ar
     2    1    2 ar
     3    1   22 1
     4    2    3 ar
     5    2   23 1
     6    3    4 ar
     7    3   24 1
     8    4    9 1
     9    4    5 ar
    10    5    6 ar
    11    5    7 1
    12    6   25 1
    13    7    8 2
    14    7   10 1
    15    8    9 1
    16    8   26 1
    17   10   11 1
    18   10   27 1
    19   10   28 1
    20   11   12 2
    21   11   13 am
    22   13   14 1
    23   13   29 1
    24   14   18 1
    25   14   15 2
    26   15   16 1
    27   15   19 1
    28   16   17 2
    29   16   30 1
    30   17   18 1
    31   17   31 1
    32   19   20 2
    33   19   21 am
    34   21   32 1
    35   21   33 1
@<TRIPOS>MOLECULE
ZINC13647791
   43    46     0     0     0
SMALL
USER_CHARGES

@<TRIPOS>ATOM
      1 C1         -0.0166    1.3699    0.0096 C.ar      1 <0>        -0.0800
      2 C2          1.1572    2.1045    0.0023 C.ar      1 <0>        -0.1190
      3 C3          2.3694    1.4373   -0.0129 C.ar      1 <0>        -0.0394
      4 C4          2.3887    0.0627   -0.0205 C.ar      1 <0>        -0.1883
      5 C5          1.2179   -0.7095   -0.0134 C.ar      1 <0>         0.1191
      6 C6          0.0021   -0.0041    0.0020 C.ar      1 <0>        -0.1207
      7 N1          1.3955   -2.0811   -0.0225 N.pl3     1 <0>        -0.6290
      8 C7          2.6545   -2.6113   -0.0374 C.2       1 <0>         0.2414
      9 C8          3.0385   -3.9533   -0.0487 C.2       1 <0>        -0.1370
     10 C9          2.0433   -4.9829   -0.0452 C.1       1 <0>         0.2720
     11 N2          1.2537   -5.7996   -0.0424 N.1       1 <0>        -0.4249
     12 C10         4.4680   -4.3104   -0.0642 C.ar      1 <0>         0.3088
     13 C11         4.8666   -5.6555   -0.0815 C.ar      1 <0>        -0.2844
     14 C12         6.2058   -5.9409   -0.0954 C.ar      1 <0>         0.2007
     15 N3          7.0848   -4.9482   -0.0923 N.ar      1 <0>        -0.5794
     16 C13         6.6886   -3.6836   -0.0759 C.ar      1 <0>         0.5826
     17 N4          5.4049   -3.3593   -0.0676 N.ar      1 <0>        -0.5825
     18 N5          7.6395   -2.6778   -0.0728 N.pl3     1 <0>        -0.7005
     19 C14         9.0646   -3.0170   -0.0875 C.3       1 <0>         0.1450
     20 C15         9.8948   -1.7318   -0.0805 C.3       1 <0>        -0.0888
     21 C16        11.3608   -2.0808   -0.0957 C.ar      1 <0>        -0.1340
     22 C17        12.0518   -2.2615    1.0929 C.ar      1 <0>        -0.0689
     23 C18        13.3992   -2.5815    1.0307 C.ar      1 <0>        -0.1701
     24 C19        14.0048   -2.7089   -0.2053 C.ar      1 <0>         0.0971
     25 N6         13.3163   -2.5294   -1.3154 N.ar      1 <0>        -0.4833
     26 C20        12.0320   -2.2302   -1.2943 C.ar      1 <0>         0.1060
     27 S1          3.6842   -1.1528   -0.0394 S.3       1 <0>         0.1837
     28 H1         -0.9648    1.8866    0.0260 H         1 <0>         0.1374
     29 H2          1.1270    3.1841    0.0081 H         1 <0>         0.1413
     30 H3          3.2952    1.9934   -0.0191 H         1 <0>         0.1400
     31 H4         -0.9301   -0.5494    0.0080 H         1 <0>         0.1308
     32 H5          0.6237   -2.6686   -0.0180 H         1 <0>         0.4164
     33 H6          4.1333   -6.4484   -0.0833 H         1 <0>         0.1381
     34 H7          6.5434   -6.9667   -0.1085 H         1 <0>         0.1667
     35 H8          7.3622   -1.7483   -0.0608 H         1 <0>         0.4130
     36 H9          9.3060   -3.6103    0.7944 H         1 <0>         0.0692
     37 H10         9.2920   -3.5916   -0.9854 H         1 <0>         0.0705
     38 H11         9.6534   -1.1385   -0.9624 H         1 <0>         0.0847
     39 H12         9.6674   -1.1572    0.8174 H         1 <0>         0.0829
     40 H13        11.5523   -2.1551    2.0445 H         1 <0>         0.1348
     41 H14        13.9686   -2.7291    1.9364 H         1 <0>         0.1364
     42 H15        15.0542   -2.9580   -0.2624 H         1 <0>         0.1564
     43 H16        11.4998   -2.0959   -2.2244 H         1 <0>         0.1551
@<TRIPOS>BOND
     1    1    6 ar
     2    1    2 ar
     3    1   28 1
     4    2    3 ar
     5    2   29 1
     6    3    4 ar
     7    3   30 1
     8    4   27 1
     9    4    5 ar
    10    5    6 ar
    11    5    7 1
    12    6   31 1
    13    7    8 1
    14    7   32 1
    15    8    9 2
    16    8   27 1
    17    9   10 1
    18    9   12 1
    19   10   11 3
    20   12   17 ar
    21   12   13 ar
    22   13   14 ar
    23   13   33 1
    24   14   15 ar
    25   14   34 1
    26   15   16 ar
    27   16   17 ar
    28   16   18 1
    29   18   19 1
    30   18   35 1
    31   19   20 1
    32   19   36 1
    33   19   37 1
    34   20   21 1
    35   20   38 1
    36   20   39 1
    37   21   26 ar
    38   21   22 ar
    39   22   23 ar
    40   22   40 1
    41   23   24 ar
    42   23   41 1
    43   24   25 ar
    44   24   42 1
    45   25   26 ar
    46   26   43 1
@<TRIPOS>MOLECULE
ZINC14959957
   28    28     0     0     0
SMALL
USER_CHARGES

@<TRIPOS>ATOM
      1 C1         -0.0161    1.5257    0.0111 C.3       1 <0>        -0.1556
      2 C2          0.0042   -0.0041    0.0026 C.3       1 <0>         0.0690
      3 O1          0.6746   -0.4651   -1.1722 O.3       1 <0>        -0.2969
      4 C3          0.7799   -1.8060   -1.3340 C.ar      1 <0>         0.4420
      5 C4          1.4321   -2.3212   -2.4641 C.ar      1 <0>        -0.2149
      6 C5          1.5306   -3.7202   -2.6131 C.ar      1 <0>         0.3538
      7 C6          0.9735   -4.5277   -1.6275 C.ar      1 <0>        -0.3261
      8 C7          0.3453   -3.9373   -0.5407 C.ar      1 <0>         0.4628
      9 N1          0.2721   -2.6178   -0.4235 N.ar      1 <0>        -0.5658
     10 N2         -0.2127   -4.7429    0.4466 N.am      1 <0>        -0.6591
     11 C8         -0.7348   -4.1846    1.5566 C.2       1 <0>         0.5019
     12 O2         -0.8021   -2.9777    1.6542 O.2       1 <0>        -0.4701
     13 C9         -1.2351   -5.0602    2.6765 C.3       1 <0>        -0.1700
     14 N3          2.1657   -4.2758   -3.7134 N.pl3     1 <0>        -0.8427
     15 C10         1.9876   -1.4424   -3.4490 C.1       1 <0>         0.2725
     16 N4          2.4282   -0.7453   -4.2302 N.1       1 <0>        -0.4274
     17 H1          1.0066    1.9027    0.0048 H         1 <0>         0.0644
     18 H2         -0.5419    1.8870   -0.8727 H         1 <0>         0.0643
     19 H3         -0.5275    1.8774    0.9071 H         1 <0>         0.0818
     20 H4          0.5300   -0.3654    0.8864 H         1 <0>         0.0745
     21 H5         -1.0185   -0.3811    0.0088 H         1 <0>         0.0738
     22 H6          1.0290   -5.6033   -1.7075 H         1 <0>         0.1465
     23 H7         -0.2261   -5.7065    0.3361 H         1 <0>         0.4221
     24 H8         -1.0930   -6.1075    2.4102 H         1 <0>         0.0789
     25 H9         -0.6790   -4.8382    3.5874 H         1 <0>         0.1007
     26 H10        -2.2952   -4.8680    2.8422 H         1 <0>         0.1003
     27 H11         2.5495   -3.7005   -4.3936 H         1 <0>         0.4074
     28 H12         2.2260   -5.2397   -3.8030 H         1 <0>         0.4119
@<TRIPOS>BOND
     1    1    2 1
     2    1   17 1
     3    1   18 1
     4    1   19 1
     5    2    3 1
     6    2   20 1
     7    2   21 1
     8    3    4 1
     9    4    9 ar
    10    4    5 ar
    11    5    6 ar
    12    5   15 1
    13    6    7 ar
    14    6   14 1
    15    7    8 ar
    16    7   22 1
    17    8    9 ar
    18    8   10 1
    19   10   11 am
    20   10   23 1
    21   11   12 2
    22   11   13 1
    23   13   24 1
    24   13   25 1
    25   13   26 1
    26   14   27 1
    27   14   28 1
    28   15   16 3
@<TRIPOS>MOLECULE
ZINC14959960
   46    47     0     0     0
SMALL
USER_CHARGES

@<TRIPOS>ATOM
      1 C1          2.8824   -6.4072    4.7168 C.3       1 <0>        -0.1552
      2 C2          2.1528   -5.8740    3.4821 C.3       1 <0>         0.0698
      3 O1          2.1422   -4.4455    3.5150 O.3       1 <0>        -0.2974
      4 C3          1.5303   -3.8111    2.4862 C.ar      1 <0>         0.4422
      5 C4          1.4912   -2.4091    2.4579 C.ar      1 <0>        -0.2167
      6 C5          0.8492   -1.7688    1.3776 C.ar      1 <0>         0.3538
      7 C6          0.2819   -2.5616    0.3859 C.ar      1 <0>        -0.3271
      8 C7          0.3649   -3.9424    0.4899 C.ar      1 <0>         0.4673
      9 N1          0.9799   -4.5179    1.5150 N.ar      1 <0>        -0.5640
     10 N2         -0.2018   -4.7376   -0.5010 N.am      1 <0>        -0.6596
     11 C8         -0.0402   -6.0752   -0.4661 C.2       1 <0>         0.5088
     12 O2          0.5194   -6.5939    0.4765 O.2       1 <0>        -0.4507
     13 C9         -0.5549   -6.9261   -1.5983 C.3       1 <0>        -0.0901
     14 C10        -0.2496   -8.3748   -1.3169 C.ar      1 <0>        -0.0653
     15 C11         0.8944   -8.9525   -1.8328 C.ar      1 <0>        -0.0983
     16 C12         1.1756  -10.2855   -1.5735 C.ar      1 <0>         0.0937
     17 C13         0.3082  -11.0388   -0.7960 C.ar      1 <0>        -0.1638
     18 C14        -0.8354  -10.4613   -0.2803 C.ar      1 <0>        -0.1672
     19 C15        -1.1140   -9.1265   -0.5354 C.ar      1 <0>         0.1111
     20 O3         -2.2372   -8.5563   -0.0229 O.3       1 <0>        -0.3149
     21 C16        -3.0823   -9.3894    0.7732 C.3       1 <0>         0.0284
     22 O4          2.3014  -10.8542   -2.0817 O.3       1 <0>        -0.3174
     23 C17         2.5280  -12.2313   -1.7744 C.3       1 <0>         0.0276
     24 N3          0.7849   -0.3856    1.3065 N.pl3     1 <0>        -0.8432
     25 C18         2.0920   -1.6418    3.5072 C.1       1 <0>         0.2733
     26 N4          2.5686   -1.0332    4.3395 N.1       1 <0>        -0.4293
     27 H1          2.3690   -6.0683    5.6167 H         1 <0>         0.0639
     28 H2          2.8905   -7.4969    4.6917 H         1 <0>         0.0806
     29 H3          3.9073   -6.0362    4.7217 H         1 <0>         0.0643
     30 H4          2.6662   -6.2129    2.5823 H         1 <0>         0.0746
     31 H5          1.1279   -6.2450    3.4773 H         1 <0>         0.0734
     32 H6         -0.2184   -2.1070   -0.4564 H         1 <0>         0.1464
     33 H7         -0.7132   -4.3294   -1.2170 H         1 <0>         0.4216
     34 H8         -1.6327   -6.7935   -1.6917 H         1 <0>         0.1130
     35 H9         -0.0701   -6.6265   -2.5275 H         1 <0>         0.1091
     36 H10         1.5696   -8.3661   -2.4384 H         1 <0>         0.1371
     37 H11         0.5270  -12.0770   -0.5944 H         1 <0>         0.1309
     38 H12        -1.5111  -11.0479    0.3244 H         1 <0>         0.1316
     39 H13        -3.4285  -10.2326    0.1754 H         1 <0>         0.0547
     40 H14        -2.5230   -9.7587    1.6327 H         1 <0>         0.0549
     41 H15        -3.9401   -8.8124    1.1185 H         1 <0>         0.0997
     42 H16         3.4575  -12.5592   -2.2399 H         1 <0>         0.1005
     43 H17         2.5992  -12.3555   -0.6939 H         1 <0>         0.0547
     44 H18         1.7002  -12.8295   -2.1552 H         1 <0>         0.0545
     45 H19         1.1847    0.1551    2.0056 H         1 <0>         0.4070
     46 H20         0.3401    0.0415    0.5577 H         1 <0>         0.4117
@<TRIPOS>BOND
     1    1    2 1
     2    1   27 1
     3    1   28 1
     4    1   29 1
     5    2    3 1
     6    2   30 1
     7    2   31 1
     8    3    4 1
     9    4    9 ar
    10    4    5 ar
    11    5    6 ar
    12    5   25 1
    13    6    7 ar
    14    6   24 1
    15    7    8 ar
    16    7   32 1
    17    8    9 ar
    18    8   10 1
    19   10   11 am
    20   10   33 1
    21   11   12 2
    22   11   13 1
    23   13   14 1
    24   13   34 1
    25   13   35 1
    26   14   19 ar
    27   14   15 ar
    28   15   16 ar
    29   15   36 1
    30   16   17 ar
    31   16   22 1
    32   17   18 ar
    33   17   37 1
    34   18   19 ar
    35   18   38 1
    36   19   20 1
    37   20   21 1
    38   21   39 1
    39   21   40 1
    40   21   41 1
    41   22   23 1
    42   23   42 1
    43   23   43 1
    44   23   44 1
    45   24   45 1
    46   24   46 1
    47   25   26 3
@<TRIPOS>MOLECULE
ZINC14960076
   52    53     0     0     0
SMALL
USER_CHARGES

@<TRIPOS>ATOM
      1 C1         -5.4208   -6.4939    0.0106 C.3       1 <0>        -0.1557
      2 C2         -3.9952   -5.9383    0.0069 C.3       1 <0>         0.0698
      3 O1         -4.0406   -4.5100    0.0098 O.3       1 <0>        -0.2967
      4 C3         -2.8538   -3.8570    0.0071 C.ar      1 <0>         0.4427
      5 C4         -2.8315   -2.4543    0.0154 C.ar      1 <0>        -0.2150
      6 C5         -1.5851   -1.7943    0.0124 C.ar      1 <0>         0.3541
      7 C6         -0.4304   -2.5691    0.0013 C.ar      1 <0>        -0.3262
      8 C7         -0.5404   -3.9520   -0.0065 C.ar      1 <0>         0.4657
      9 N1         -1.7265   -4.5463    0.0020 N.ar      1 <0>        -0.5647
     10 N2          0.6133   -4.7292   -0.0176 N.am      1 <0>        -0.6585
     11 C8          0.5231   -6.0705    0.0781 C.2       1 <0>         0.5096
     12 O2         -0.5647   -6.6065    0.0809 O.2       1 <0>        -0.4490
     13 C9          1.7742   -6.9043    0.1815 C.3       1 <0>        -0.1005
     14 C10         1.4005   -8.3612    0.2762 C.ar      1 <0>        -0.0097
     15 C11         1.2846   -8.9656    1.5131 C.ar      1 <0>        -0.1732
     16 C12         0.9402  -10.3061    1.6002 C.ar      1 <0>         0.1867
     17 C13         0.7121  -11.0401    0.4454 C.ar      1 <0>        -0.6495
     18 C14         0.8280  -10.4359   -0.7910 C.ar      1 <0>        -0.0768
     19 C15         1.1673   -9.0936   -0.8780 C.ar      1 <0>         0.0953
     20 O3          1.2759   -8.4973   -2.0953 O.3       1 <0>        -0.3118
     21 C16         1.0218   -9.3117   -3.2417 C.3       1 <0>         0.0217
     22 S1          0.2752  -12.7435    0.5561 S.o2      1 <0>         2.5043
     23 O4         -0.8080  -12.7810    1.4752 O.2       1 <0>        -0.9229
     24 O5          0.0973  -13.1605   -0.7906 O.2       1 <0>        -0.9428
     25 C17         1.7316  -13.5527    1.2736 C.3       1 <0>        -0.6470
     26 O6          0.8266  -10.9012    2.8177 O.3       1 <0>        -0.3136
     27 C18         1.0761  -10.0856    3.9642 C.3       1 <0>         0.0242
     28 N3         -1.5129   -0.4096    0.0200 N.pl3     1 <0>        -0.8428
     29 C19        -4.0524   -1.7060    0.0263 C.1       1 <0>         0.2721
     30 N4         -5.0209   -1.1124    0.0350 N.1       1 <0>        -0.4271
     31 H1         -5.3861   -7.5834    0.0084 H         1 <0>         0.0821
     32 H2         -5.9429   -6.1488    0.9030 H         1 <0>         0.0644
     33 H3         -5.9488   -6.1454   -0.8769 H         1 <0>         0.0644
     34 H4         -3.4671   -6.2868    0.8945 H         1 <0>         0.0741
     35 H5         -3.4730   -6.2834   -0.8854 H         1 <0>         0.0737
     36 H6          0.5420   -2.0992   -0.0017 H         1 <0>         0.1465
     37 H7          1.4826   -4.3058   -0.0943 H         1 <0>         0.4220
     38 H8          2.3916   -6.7443   -0.7024 H         1 <0>         0.1190
     39 H9          2.3319   -6.6137    1.0718 H         1 <0>         0.1121
     40 H10         1.4625   -8.3942    2.4121 H         1 <0>         0.1445
     41 H11         0.6511  -11.0075   -1.6901 H         1 <0>         0.1580
     42 H12         1.7256  -10.1438   -3.2594 H         1 <0>         0.0597
     43 H13         0.0036   -9.6979   -3.1945 H         1 <0>         0.0602
     44 H14         1.1424   -8.7145   -4.1455 H         1 <0>         0.1043
     45 H15         1.9385  -13.1250    2.2545 H         1 <0>         0.1355
     46 H16         1.5402  -14.6209    1.3760 H         1 <0>         0.1332
     47 H17         2.5911  -13.3985    0.6213 H         1 <0>         0.1298
     48 H18         0.9517  -10.6818    4.8682 H         1 <0>         0.1097
     49 H19         2.0945   -9.6995    3.9208 H         1 <0>         0.0613
     50 H20         0.3723   -9.2533    3.9782 H         1 <0>         0.0633
     51 H21        -2.3266    0.1184    0.0274 H         1 <0>         0.4074
     52 H22        -0.6488    0.0310    0.0178 H         1 <0>         0.4118
@<TRIPOS>BOND
     1    1    2 1
     2    1   31 1
     3    1   32 1
     4    1   33 1
     5    2    3 1
     6    2   34 1
     7    2   35 1
     8    3    4 1
     9    4    9 ar
    10    4    5 ar
    11    5    6 ar
    12    5   29 1
    13    6    7 ar
    14    6   28 1
    15    7    8 ar
    16    7   36 1
    17    8    9 ar
    18    8   10 1
    19   10   11 am
    20   10   37 1
    21   11   12 2
    22   11   13 1
    23   13   14 1
    24   13   38 1
    25   13   39 1
    26   14   19 ar
    27   14   15 ar
    28   15   16 ar
    29   15   40 1
    30   16   17 ar
    31   16   26 1
    32   17   18 ar
    33   17   22 1
    34   18   19 ar
    35   18   41 1
    36   19   20 1
    37   20   21 1
    38   21   42 1
    39   21   43 1
    40   21   44 1
    41   22   23 2
    42   22   24 2
    43   22   25 1
    44   25   45 1
    45   25   46 1
    46   25   47 1
    47   26   27 1
    48   27   48 1
    49   27   49 1
    50   27   50 1
    51   28   51 1
    52   28   52 1
    53   29   30 3
@<TRIPOS>MOLECULE
ZINC34802946
   67    71     0     0     0
SMALL
USER_CHARGES

@<TRIPOS>ATOM
      1 C1         -0.0483    1.5024    0.0098 C.3       1 <0>        -0.1268
      2 C2         -0.0195   -0.0043    0.0016 C.ar      1 <0>        -0.0386
      3 C3         -0.0178   -0.6868   -1.1996 C.ar      1 <0>        -0.1235
      4 C4          0.0085   -2.0667   -1.2158 C.ar      1 <0>        -0.0785
      5 C5          0.0330   -2.7811   -0.0158 C.ar      1 <0>        -0.1428
      6 C6          0.0314   -2.0969    1.1984 C.ar      1 <0>        -0.0380
      7 C7          0.0111   -0.7058    1.2063 C.ar      1 <0>        -0.0517
      8 C8          0.0158    0.0300    2.4946 C.ar      1 <0>        -0.0766
      9 C9          0.9293    1.0770    2.6951 C.ar      1 <0>        -0.0509
     10 C10         0.9551    1.7681    3.8654 C.ar      1 <0>        -0.1204
     11 C11         0.0589    1.4368    4.8939 C.ar      1 <0>         0.2183
     12 C12        -0.8687    0.3799    4.7012 C.ar      1 <0>        -0.2144
     13 C13        -0.8839   -0.3174    3.4865 C.ar      1 <0>        -0.0354
     14 C14        -1.7564    0.0690    5.7490 C.ar      1 <0>         0.2451
     15 N1         -1.6869    0.7718    6.8601 N.ar      1 <0>        -0.5576
     16 C15        -0.8035    1.7573    7.0067 C.ar      1 <0>         0.5740
     17 N2          0.0519    2.0930    6.0606 N.ar      1 <0>        -0.5737
     18 N3         -0.7822    2.4573    8.1995 N.pl3     1 <0>        -0.6964
     19 C16        -1.7195    2.1088    9.2701 C.3       1 <0>         0.1398
     20 C17        -1.4872    3.0285   10.4706 C.3       1 <0>         0.0428
     21 N4         -2.4271    2.6791   11.5442 N.3       1 <0>        -0.5321
     22 C18        -3.8120    2.9741   11.1487 C.3       1 <0>         0.0117
     23 C19        -4.7604    2.5406   12.2697 C.3       1 <0>         0.0630
     24 O1         -4.3910    3.2025   13.4824 O.3       1 <0>        -0.3850
     25 C20        -3.0483    2.9369   13.8974 C.3       1 <0>         0.0630
     26 C21        -2.0826    3.3743   12.7929 C.3       1 <0>         0.0183
     27 C22         0.0602   -4.2590   -0.0337 C.2       1 <0>         0.5622
     28 O2          0.0816   -4.8792    1.0117 O.2       1 <0>        -0.5109
     29 N5          0.0613   -4.9189   -1.2088 N.am      1 <0>        -0.6699
     30 C23         0.1847   -6.3117   -1.2285 C.ar      1 <0>         0.1443
     31 C24         0.8894   -6.9337   -2.2514 C.ar      1 <0>        -0.1118
     32 C25         1.0099   -8.3092   -2.2677 C.ar      1 <0>        -0.0994
     33 C26         0.4298   -9.0675   -1.2671 C.ar      1 <0>        -0.0865
     34 C27        -0.2722   -8.4516   -0.2475 C.ar      1 <0>        -0.1641
     35 C28        -0.3920   -7.0758   -0.2225 C.ar      1 <0>        -0.0722
     36 C29        -0.9025   -9.2820    0.8407 C.3       1 <0>         0.5092
     37 F1         -0.6426  -10.6360    0.6040 F         1 <0>        -0.1761
     38 F2         -0.3653   -8.9135    2.0788 F         1 <0>        -0.1725
     39 F3         -2.2849   -9.0671    0.8497 F         1 <0>        -0.1757
     40 H1          0.9721    1.8854   -0.0029 H         1 <0>         0.0793
     41 H2         -0.5817    1.8604   -0.8708 H         1 <0>         0.0726
     42 H3         -0.5562    1.8513    0.9089 H         1 <0>         0.0756
     43 H4         -0.0375   -0.1384   -2.1297 H         1 <0>         0.1346
     44 H5          0.0097   -2.5949   -2.1579 H         1 <0>         0.1271
     45 H6          0.0504   -2.6442    2.1292 H         1 <0>         0.1408
     46 H7          1.6219    1.3369    1.9082 H         1 <0>         0.1341
     47 H8          1.6644    2.5707    4.0039 H         1 <0>         0.1396
     48 H9         -1.5883   -1.1204    3.3272 H         1 <0>         0.1367
     49 H10        -2.4780   -0.7275    5.6434 H         1 <0>         0.1790
     50 H11        -0.1467    3.1789    8.3270 H         1 <0>         0.4144
     51 H12        -2.7417    2.2301    8.9119 H         1 <0>         0.0688
     52 H13        -1.5600    1.0730    9.5698 H         1 <0>         0.0789
     53 H14        -0.4650    2.9072   10.8288 H         1 <0>         0.0845
     54 H15        -1.6467    4.0643   10.1709 H         1 <0>         0.0436
     55 H16        -3.9204    4.0444   10.9738 H         1 <0>         0.0453
     56 H17        -4.0538    2.4291   10.2363 H         1 <0>         0.0911
     57 H18        -5.7831    2.8094   12.0054 H         1 <0>         0.1000
     58 H19        -4.6911    1.4617   12.4082 H         1 <0>         0.0622
     59 H20        -2.8329    3.4922   14.8102 H         1 <0>         0.1003
     60 H21        -2.9293    1.8694   14.0832 H         1 <0>         0.0619
     61 H22        -1.0621    3.1215   13.0806 H         1 <0>         0.0888
     62 H23        -2.1634    4.4511   12.6442 H         1 <0>         0.0455
     63 H24        -0.0236   -4.4277   -2.0409 H         1 <0>         0.4141
     64 H25         1.3423   -6.3421   -3.0333 H         1 <0>         0.1370
     65 H26         1.5573   -8.7933   -3.0629 H         1 <0>         0.1416
     66 H27         0.5252  -10.1432   -1.2823 H         1 <0>         0.1414
     67 H28        -0.9370   -6.5950    0.5764 H         1 <0>         0.1510
@<TRIPOS>BOND
     1    1    2 1
     2    1   40 1
     3    1   41 1
     4    1   42 1
     5    2    7 ar
     6    2    3 ar
     7    3    4 ar
     8    3   43 1
     9    4    5 ar
    10    4   44 1
    11    5    6 ar
    12    5   27 1
    13    6    7 ar
    14    6   45 1
    15    7    8 1
    16    8   13 ar
    17    8    9 ar
    18    9   10 ar
    19    9   46 1
    20   10   11 ar
    21   10   47 1
    22   11   17 ar
    23   11   12 ar
    24   12   13 ar
    25   12   14 ar
    26   13   48 1
    27   14   15 ar
    28   14   49 1
    29   15   16 ar
    30   16   17 ar
    31   16   18 1
    32   18   19 1
    33   18   50 1
    34   19   20 1
    35   19   51 1
    36   19   52 1
    37   20   21 1
    38   20   53 1
    39   20   54 1
    40   21   26 1
    41   21   22 1
    42   22   23 1
    43   22   55 1
    44   22   56 1
    45   23   24 1
    46   23   57 1
    47   23   58 1
    48   24   25 1
    49   25   26 1
    50   25   59 1
    51   25   60 1
    52   26   61 1
    53   26   62 1
    54   27   28 2
    55   27   29 am
    56   29   30 1
    57   29   63 1
    58   30   35 ar
    59   30   31 ar
    60   31   32 ar
    61   31   64 1
    62   32   33 ar
    63   32   65 1
    64   33   34 ar
    65   33   66 1
    66   34   35 ar
    67   34   36 1
    68   35   67 1
    69   36   37 1
    70   36   38 1
    71   36   39 1
@<TRIPOS>MOLECULE
ZINC34802946
   68    72     0     0     0
SMALL
USER_CHARGES

@<TRIPOS>ATOM
      1 C1         -0.0483    1.5024    0.0098 C.3       1 <0>        -0.1276
      2 C2         -0.0195   -0.0043    0.0016 C.ar      1 <0>        -0.0366
      3 C3         -0.0178   -0.6868   -1.1996 C.ar      1 <0>        -0.1221
      4 C4          0.0085   -2.0667   -1.2158 C.ar      1 <0>        -0.0731
      5 C5          0.0330   -2.7811   -0.0158 C.ar      1 <0>        -0.1410
      6 C6          0.0314   -2.0969    1.1984 C.ar      1 <0>        -0.0362
      7 C7          0.0111   -0.7058    1.2063 C.ar      1 <0>        -0.0635
      8 C8          0.0158    0.0300    2.4946 C.ar      1 <0>        -0.0553
      9 C9          0.9293    1.0770    2.6951 C.ar      1 <0>        -0.0467
     10 C10         0.9551    1.7681    3.8654 C.ar      1 <0>        -0.1170
     11 C11         0.0589    1.4368    4.8939 C.ar      1 <0>         0.2111
     12 C12        -0.8687    0.3799    4.7012 C.ar      1 <0>        -0.2001
     13 C13        -0.8839   -0.3174    3.4865 C.ar      1 <0>        -0.0453
     14 C14        -1.7564    0.0690    5.7490 C.ar      1 <0>         0.2479
     15 N1         -1.6869    0.7718    6.8601 N.ar      1 <0>        -0.5684
     16 C15        -0.8035    1.7573    7.0067 C.ar      1 <0>         0.5623
     17 N2          0.0519    2.0930    6.0606 N.ar      1 <0>        -0.5576
     18 N3         -0.7822    2.4573    8.1995 N.pl3     1 <0>        -0.7040
     19 C16        -1.7195    2.1088    9.2701 C.3       1 <0>         0.1188
     20 C17        -1.4872    3.0285   10.4706 C.3       1 <0>        -0.0230
     21 N4         -2.4271    2.6791   11.5442 N.4       1 <0>        -0.3805
     22 C18        -3.8007    2.9572   11.1027 C.3       1 <0>        -0.0511
     23 C19        -4.7779    2.5921   12.2228 C.3       1 <0>         0.0367
     24 O1         -4.4442    3.3332   13.3998 O.3       1 <0>        -0.3561
     25 C20        -3.1064    3.1140   13.8559 C.3       1 <0>         0.0359
     26 C21        -2.1261    3.4800   12.7388 C.3       1 <0>        -0.0426
     27 C22         0.0602   -4.2590   -0.0337 C.2       1 <0>         0.5618
     28 O2          0.0816   -4.8792    1.0117 O.2       1 <0>        -0.5123
     29 N5          0.0613   -4.9189   -1.2088 N.am      1 <0>        -0.6683
     30 C23         0.1847   -6.3117   -1.2285 C.ar      1 <0>         0.1414
     31 C24         0.8894   -6.9337   -2.2514 C.ar      1 <0>        -0.1102
     32 C25         1.0099   -8.3092   -2.2677 C.ar      1 <0>        -0.0984
     33 C26         0.4298   -9.0675   -1.2671 C.ar      1 <0>        -0.0844
     34 C27        -0.2722   -8.4516   -0.2475 C.ar      1 <0>        -0.1647
     35 C28        -0.3920   -7.0758   -0.2225 C.ar      1 <0>        -0.0721
     36 C29        -0.9025   -9.2820    0.8407 C.3       1 <0>         0.5095
     37 F1         -0.6426  -10.6360    0.6040 F         1 <0>        -0.1749
     38 F2         -0.3653   -8.9135    2.0788 F         1 <0>        -0.1737
     39 F3         -2.2849   -9.0671    0.8497 F         1 <0>        -0.1759
     40 H1          0.9721    1.8854   -0.0029 H         1 <0>         0.0806
     41 H2         -0.5817    1.8604   -0.8708 H         1 <0>         0.0754
     42 H3         -0.5562    1.8513    0.9089 H         1 <0>         0.0730
     43 H4         -0.0375   -0.1384   -2.1297 H         1 <0>         0.1371
     44 H5          0.0097   -2.5949   -2.1579 H         1 <0>         0.1298
     45 H6          0.0504   -2.6442    2.1292 H         1 <0>         0.1405
     46 H7          1.6219    1.3369    1.9082 H         1 <0>         0.1398
     47 H8          1.6644    2.5707    4.0039 H         1 <0>         0.1435
     48 H9         -1.5883   -1.1204    3.3272 H         1 <0>         0.1410
     49 H10        -2.4780   -0.7275    5.6434 H         1 <0>         0.1829
     50 H11        -0.1467    3.1789    8.3270 H         1 <0>         0.4205
     51 H12        -2.7417    2.2301    8.9119 H         1 <0>         0.0871
     52 H13        -1.5600    1.0730    9.5698 H         1 <0>         0.0876
     53 H14        -0.4650    2.9072   10.8288 H         1 <0>         0.1408
     54 H15        -1.6467    4.0643   10.1709 H         1 <0>         0.1388
     55 H16        -3.8989    4.0165   10.8654 H         1 <0>         0.1412
     56 H17        -4.0250    2.3635   10.2165 H         1 <0>         0.1457
     57 H18        -5.7940    2.8378   11.9139 H         1 <0>         0.1434
     58 H19        -4.7086    1.5248   12.4329 H         1 <0>         0.0831
     59 H20        -2.9127    3.7373   14.7289 H         1 <0>         0.1435
     60 H21        -2.9799    2.0645   14.1218 H         1 <0>         0.0826
     61 H22        -1.1073    3.2744   13.0672 H         1 <0>         0.1445
     62 H23        -2.2249    4.5391   12.5009 H         1 <0>         0.1407
     63 H24        -0.0236   -4.4277   -2.0409 H         1 <0>         0.4145
     64 H25         1.3423   -6.3421   -3.0333 H         1 <0>         0.1377
     65 H26         1.5573   -8.7933   -3.0629 H         1 <0>         0.1430
     66 H27         0.5252  -10.1432   -1.2823 H         1 <0>         0.1425
     67 H28        -0.9370   -6.5950    0.5764 H         1 <0>         0.1500
     68 H29        -2.3364    1.6987   11.7648 H         1 <0>         0.4260
@<TRIPOS>BOND
     1    1    2 1
     2    1   40 1
     3    1   41 1
     4    1   42 1
     5    2    7 ar
     6    2    3 ar
     7    3    4 ar
     8    3   43 1
     9    4    5 ar
    10    4   44 1
    11    5    6 ar
    12    5   27 1
    13    6    7 ar
    14    6   45 1
    15    7    8 1
    16    8   13 ar
    17    8    9 ar
    18    9   10 ar
    19    9   46 1
    20   10   11 ar
    21   10   47 1
    22   11   17 ar
    23   11   12 ar
    24   12   13 ar
    25   12   14 ar
    26   13   48 1
    27   14   15 ar
    28   14   49 1
    29   15   16 ar
    30   16   17 ar
    31   16   18 1
    32   18   19 1
    33   18   50 1
    34   19   20 1
    35   19   51 1
    36   19   52 1
    37   20   21 1
    38   20   53 1
    39   20   54 1
    40   21   26 1
    41   21   22 1
    42   21   68 1
    43   22   23 1
    44   22   55 1
    45   22   56 1
    46   23   24 1
    47   23   57 1
    48   23   58 1
    49   24   25 1
    50   25   26 1
    51   25   59 1
    52   25   60 1
    53   26   61 1
    54   26   62 1
    55   27   28 2
    56   27   29 am
    57   29   30 1
    58   29   63 1
    59   30   35 ar
    60   30   31 ar
    61   31   32 ar
    62   31   64 1
    63   32   33 ar
    64   32   65 1
    65   33   34 ar
    66   33   66 1
    67   34   35 ar
    68   34   36 1
    69   35   67 1
    70   36   37 1
    71   36   38 1
    72   36   39 1
@<TRIPOS>MOLECULE
ZINC06718813
   46    49     0     0     0
SMALL
USER_CHARGES
3-[4-(3-amino-1H-indazol-4-yl)phenyl]-1-(2-fluoro-5-methyl-phenyl)urea
@<TRIPOS>ATOM
      1 C1          6.9492   -0.6708   -4.4566 C.3       1 <0>        -0.1151
      2 C2          7.3188   -0.0066   -3.1554 C.ar      1 <0>        -0.0747
      3 C3          8.6152   -0.0905   -2.6815 C.ar      1 <0>        -0.1060
      4 C4          8.9590    0.5169   -1.4879 C.ar      1 <0>        -0.1295
      5 C5          8.0061    1.2101   -0.7639 C.ar      1 <0>         0.0645
      6 C6          6.7020    1.2957   -1.2387 C.ar      1 <0>         0.1336
      7 C7          6.3607    0.6802   -2.4351 C.ar      1 <0>        -0.0953
      8 N1          5.7336    1.9963   -0.5085 N.am      1 <0>        -0.6783
      9 C8          4.4547    1.5712   -0.5040 C.2       1 <0>         0.7069
     10 O1          4.1265    0.6239   -1.1921 O.2       1 <0>        -0.5500
     11 N2          3.5395    2.1961    0.2631 N.am      1 <0>        -0.6801
     12 C9          2.2409    1.6865    0.3572 C.ar      1 <0>         0.1677
     13 C10         1.1632    2.5541    0.4899 C.ar      1 <0>        -0.1430
     14 C11        -0.1180    2.0545    0.5834 C.ar      1 <0>        -0.0892
     15 C12        -0.3326    0.6766    0.5442 C.ar      1 <0>        -0.0682
     16 C13         0.7509   -0.1919    0.4104 C.ar      1 <0>        -0.0779
     17 C14         2.0300    0.3132    0.3174 C.ar      1 <0>        -0.1142
     18 C15        -1.7083    0.1367    0.6449 C.ar      1 <0>         0.0376
     19 C16        -2.0347   -0.7648    1.6483 C.ar      1 <0>        -0.1557
     20 C17        -3.3230   -1.2675    1.7456 C.ar      1 <0>        -0.0592
     21 C18        -4.2968   -0.8911    0.8473 C.ar      1 <0>        -0.1529
     22 C19        -3.9969    0.0086   -0.1734 C.ar      1 <0>         0.1547
     23 C20        -2.6946    0.5292   -0.2801 C.ar      1 <0>        -0.1858
     24 C21        -2.7034    1.4283   -1.4324 C.2       1 <0>         0.3642
     25 N3         -3.9099    1.4169   -1.9352 N.2       1 <0>        -0.3205
     26 N4         -4.7292    0.5606   -1.1926 N.pl3     1 <0>        -0.5119
     27 H1         -5.6955    0.3797   -1.3759 H         1 <0>         0.4473
     28 N5         -1.6172    2.1667   -1.9108 N.pl3     1 <0>        -0.8360
     29 F1          8.3418    1.8036    0.4023 F         1 <0>        -0.1384
     30 H2          6.6188   -1.6912   -4.2627 H         1 <0>         0.0755
     31 H3          6.1436   -0.1125   -4.9335 H         1 <0>         0.0695
     32 H4          7.8178   -0.6890   -5.1149 H         1 <0>         0.0704
     33 H5          9.3607   -0.6319   -3.2448 H         1 <0>         0.1352
     34 H6          9.9724    0.4496   -1.1204 H         1 <0>         0.1410
     35 H7          5.3477    0.7413   -2.8045 H         1 <0>         0.1523
     36 H8          5.9835    2.7876   -0.0061 H         1 <0>         0.4118
     37 H9          3.7818    2.9993    0.7499 H         1 <0>         0.4106
     38 H10         1.3298    3.6208    0.5203 H         1 <0>         0.1310
     39 H11        -0.9554    2.7293    0.6824 H         1 <0>         0.1315
     40 H12         0.5876   -1.2590    0.3794 H         1 <0>         0.1314
     41 H13         2.8692   -0.3587    0.2138 H         1 <0>         0.1391
     42 H14        -1.2822   -1.0738    2.3586 H         1 <0>         0.1292
     43 H15        -3.5651   -1.9655    2.5334 H         1 <0>         0.1325
     44 H16        -5.2951   -1.2940    0.9345 H         1 <0>         0.1278
     45 H17        -0.7342    2.0309   -1.5329 H         1 <0>         0.4118
     46 H18        -1.7465    2.8151   -2.6206 H         1 <0>         0.4050
@<TRIPOS>BOND
     1    1    2 1
     2    1   30 1
     3    1   31 1
     4    1   32 1
     5    2    7 ar
     6    2    3 ar
     7    3    4 ar
     8    3   33 1
     9    4    5 ar
    10    4   34 1
    11    5    6 ar
    12    5   29 1
    13    6    7 ar
    14    6    8 1
    15    7   35 1
    16    8    9 am
    17    8   36 1
    18    9   10 2
    19    9   11 am
    20   11   12 1
    21   11   37 1
    22   12   17 ar
    23   12   13 ar
    24   13   14 ar
    25   13   38 1
    26   14   15 ar
    27   14   39 1
    28   15   16 ar
    29   15   18 1
    30   16   17 ar
    31   16   40 1
    32   17   41 1
    33   18   23 ar
    34   18   19 ar
    35   19   20 ar
    36   19   42 1
    37   20   21 ar
    38   20   43 1
    39   21   22 ar
    40   21   44 1
    41   22   26 1
    42   22   23 ar
    43   23   24 1
    44   24   25 2
    45   24   28 1
    46   25   26 1
    47   26   27 1
    48   28   45 1
    49   28   46 1
@<TRIPOS>MOLECULE
ZINC00602685
   47    50     0     0     0
SMALL
USER_CHARGES
4-[4-(4-fluorophenyl)-5-(4-pyridyl)oxazol-2-yl]-1-methyl-piperidin-4-ol
@<TRIPOS>ATOM
      1 C1          7.6834   -4.0978    2.6361 C.3       1 <0>        -0.0418
      2 C2          6.6968   -3.1113    0.6577 C.3       1 <0>         0.0044
      3 C3          5.9967   -1.8614    0.1197 C.3       1 <0>        -0.1385
      4 C4          4.6461   -1.6966    0.8220 C.3       1 <0>         0.2371
      5 C5          4.8730   -1.6100    2.3338 C.3       1 <0>        -0.1704
      6 C6          5.6057   -2.8672    2.8076 C.3       1 <0>         0.0050
      7 C7          3.9784   -0.4346    0.3398 C.2       1 <0>         0.1462
      8 N1          2.8174   -0.0007    0.7382 N.2       1 <0>        -0.4433
      9 C8          2.5376    1.1524    0.0965 C.2       1 <0>         0.0682
     10 C9          3.6019    1.4160   -0.7423 C.2       1 <0>         0.0259
     11 O1          4.4883    0.4114   -0.5644 O.3       1 <0>        -0.1784
     12 C10         3.7452    2.5689   -1.6506 C.ar      1 <0>         0.0129
     13 C11         2.7014    2.9457   -2.5071 C.ar      1 <0>        -0.1358
     14 C12         2.8775    4.0325   -3.3363 C.ar      1 <0>         0.1128
     15 N2          4.0116    4.7079   -3.3376 N.ar      1 <0>        -0.4667
     16 C13         5.0212    4.3848   -2.5511 C.ar      1 <0>         0.1091
     17 C14         4.9311    3.3154   -1.6862 C.ar      1 <0>        -0.1485
     18 C15         1.3168    1.9763    0.2567 C.ar      1 <0>        -0.0432
     19 C16         0.0669    1.3643    0.3485 C.ar      1 <0>        -0.0546
     20 C17        -1.0674    2.1360    0.4919 C.ar      1 <0>        -0.1524
     21 C18        -0.9655    3.5165    0.5554 C.ar      1 <0>         0.1208
     22 C19         0.2740    4.1292    0.4647 C.ar      1 <0>        -0.1499
     23 C20         1.4137    3.3663    0.3159 C.ar      1 <0>        -0.0643
     24 F1         -2.0789    4.2678    0.7007 F         1 <0>        -0.1300
     25 O2          3.8139   -2.8201    0.5264 O.3       1 <0>        -0.5334
     26 H1          8.6600   -4.1124    2.1522 H         1 <0>         0.1237
     27 H2          7.8125   -3.9751    3.7115 H         1 <0>         0.1235
     28 H3          7.1653   -5.0359    2.4371 H         1 <0>         0.1252
     29 H4          6.0830   -3.9883    0.4521 H         1 <0>         0.1429
     30 H5          7.6652   -3.2235    0.1701 H         1 <0>         0.1371
     31 H6          5.8384   -1.9665   -0.9536 H         1 <0>         0.1278
     32 H7          6.6162   -0.9854    0.3121 H         1 <0>         0.1093
     33 H8          5.4750   -0.7303    2.5616 H         1 <0>         0.1040
     34 H9          3.9118   -1.5355    2.8424 H         1 <0>         0.1296
     35 H10         4.9970   -3.7453    2.5920 H         1 <0>         0.1404
     36 H11         5.7815   -2.8022    3.8814 H         1 <0>         0.1374
     37 H12         1.7723    2.3952   -2.5144 H         1 <0>         0.1422
     38 H13         2.0780    4.3331   -3.9973 H         1 <0>         0.1688
     39 H14         5.9307    4.9662   -2.5861 H         1 <0>         0.1666
     40 H15         5.7612    3.0568   -1.0456 H         1 <0>         0.1390
     41 H16        -0.0131    0.2883    0.3028 H         1 <0>         0.1374
     42 H17        -2.0362    1.6633    0.5586 H         1 <0>         0.1449
     43 H18         0.3480    5.2057    0.5103 H         1 <0>         0.1444
     44 H19         2.3794    3.8448    0.2449 H         1 <0>         0.1305
     45 H20         2.9413   -2.7831    0.9413 H         1 <0>         0.4043
     46 N3          6.9077   -2.9545    2.1125 N.4       1 <0>        -0.3987
     47 H21         7.4340   -2.0892    2.2813 H         1 <0>         0.4282
@<TRIPOS>BOND
     1    1   26 1
     2    1   27 1
     3    1   28 1
     4    1   46 1
     5    2    3 1
     6    2   29 1
     7    2   30 1
     8    2   46 1
     9    3    4 1
    10    3   31 1
    11    3   32 1
    12    4    5 1
    13    4    7 1
    14    4   25 1
    15    5    6 1
    16    5   33 1
    17    5   34 1
    18    6   35 1
    19    6   36 1
    20    6   46 1
    21    7   11 1
    22    7    8 2
    23    8    9 1
    24    9   10 2
    25    9   18 1
    26   10   11 1
    27   10   12 1
    28   12   17 ar
    29   12   13 ar
    30   13   14 ar
    31   13   37 1
    32   14   15 ar
    33   14   38 1
    34   15   16 ar
    35   16   17 ar
    36   16   39 1
    37   17   40 1
    38   18   23 ar
    39   18   19 ar
    40   19   20 ar
    41   19   41 1
    42   20   21 ar
    43   20   42 1
    44   21   22 ar
    45   21   24 1
    46   22   23 ar
    47   22   43 1
    48   23   44 1
    49   25   45 1
    50   46   47 1
@<TRIPOS>MOLECULE
ZINC14951176
   39    42     0     0     0
SMALL
USER_CHARGES

@<TRIPOS>ATOM
      1 C1          0.2405    1.0255    0.8302 C.ar      1 <0>        -0.0645
      2 C2          1.4224    1.7334    0.7710 C.ar      1 <0>        -0.1488
      3 C3          2.3671    1.4303   -0.1967 C.ar      1 <0>         0.1270
      4 C4          2.1300    0.4154   -1.1103 C.ar      1 <0>        -0.1484
      5 C5          0.9516   -0.2992   -1.0607 C.ar      1 <0>        -0.0503
      6 C6         -0.0037    0.0016   -0.0874 C.ar      1 <0>        -0.0633
      7 C7         -1.2678   -0.7602   -0.0291 C.2       1 <0>         0.1046
      8 C8         -1.3961   -2.1162   -0.0863 C.2       1 <0>         0.0796
      9 N1         -2.7456   -2.4073    0.0017 N.pl3     1 <0>        -0.5519
     10 C9         -3.4195   -1.2472    0.1100 C.2       1 <0>         0.4661
     11 C10        -4.8730   -1.1131    0.2269 C.2       1 <0>        -0.2712
     12 C11        -5.4545    0.1603    0.3285 C.2       1 <0>        -0.0131
     13 C12        -6.8063    0.2847    0.4372 C.2       1 <0>        -0.2432
     14 C13        -7.6177   -0.8599    0.4477 C.2       1 <0>         0.3274
     15 O1         -8.9418   -0.7377    0.5542 O.2       1 <0>        -0.6199
     16 C14        -7.0368   -2.1329    0.3456 C.2       1 <0>        -0.2432
     17 C15        -5.6854   -2.2577    0.2315 C.2       1 <0>        -0.0132
     18 N2         -2.5363   -0.2302    0.0993 N.pl3     1 <0>        -0.5537
     19 C16        -0.2980   -3.0933   -0.2185 C.ar      1 <0>         0.0029
     20 C17         0.8460   -3.0046    0.5859 C.ar      1 <0>        -0.1375
     21 C18         1.8471   -3.9391    0.4288 C.ar      1 <0>         0.1110
     22 N3          1.7384   -4.9058   -0.4634 N.ar      1 <0>        -0.4697
     23 C19         0.6787   -5.0262   -1.2411 C.ar      1 <0>         0.1111
     24 C20        -0.3725   -4.1394   -1.1479 C.ar      1 <0>        -0.1541
     25 F1          3.5233    2.1271   -0.2501 F         1 <0>        -0.1285
     26 H1         -0.4930    1.2596    1.5875 H         1 <0>         0.1388
     27 H2          1.6122    2.5258    1.4800 H         1 <0>         0.1474
     28 H3          2.8693    0.1839   -1.8628 H         1 <0>         0.1469
     29 H4          0.7677   -1.0896   -1.7733 H         1 <0>         0.1375
     30 H5         -3.1383   -3.2941   -0.0126 H         1 <0>         0.4530
     31 H6         -4.8300    1.0414    0.3209 H         1 <0>         0.1049
     32 H7         -7.2538    1.2645    0.5158 H         1 <0>         0.1221
     33 H8         -7.6616   -3.0138    0.3533 H         1 <0>         0.1221
     34 H9         -5.2386   -3.2374    0.1489 H         1 <0>         0.1046
     35 H10        -2.7542    0.7126    0.1673 H         1 <0>         0.4532
     36 H11         0.9421   -2.2159    1.3174 H         1 <0>         0.1420
     37 H12         2.7328   -3.8793    1.0439 H         1 <0>         0.1658
     38 H13         0.6328   -5.8333   -1.9573 H         1 <0>         0.1659
     39 H14        -1.2383   -4.2467   -1.7845 H         1 <0>         0.1405
@<TRIPOS>BOND
     1    1    6 ar
     2    1    2 ar
     3    1   26 1
     4    2    3 ar
     5    2   27 1
     6    3    4 ar
     7    3   25 1
     8    4    5 ar
     9    4   28 1
    10    5    6 ar
    11    5   29 1
    12    6    7 1
    13    7   18 1
    14    7    8 2
    15    8    9 1
    16    8   19 1
    17    9   10 1
    18    9   30 1
    19   10   11 2
    20   10   18 1
    21   11   17 1
    22   11   12 1
    23   12   13 2
    24   12   31 1
    25   13   14 1
    26   13   32 1
    27   14   15 2
    28   14   16 1
    29   16   17 2
    30   16   33 1
    31   17   34 1
    32   18   35 1
    33   19   24 ar
    34   19   20 ar
    35   20   21 ar
    36   20   36 1
    37   21   22 ar
    38   21   37 1
    39   22   23 ar
    40   23   24 ar
    41   23   38 1
    42   24   39 1
@<TRIPOS>MOLECULE
ZINC14951176
   40    43     0     0     0
SMALL
USER_CHARGES

@<TRIPOS>ATOM
      1 C1          0.2405    1.0255    0.8302 C.ar      1 <0>        -0.0528
      2 C2          1.4224    1.7334    0.7710 C.ar      1 <0>        -0.1439
      3 C3          2.3671    1.4303   -0.1967 C.ar      1 <0>         0.1411
      4 C4          2.1300    0.4154   -1.1103 C.ar      1 <0>        -0.1508
      5 C5          0.9516   -0.2992   -1.0607 C.ar      1 <0>        -0.0597
      6 C6         -0.0037    0.0016   -0.0874 C.ar      1 <0>        -0.0905
      7 C7         -1.2678   -0.7602   -0.0291 C.2       1 <0>         0.1717
      8 C8         -1.3961   -2.1162   -0.0863 C.2       1 <0>         0.0049
      9 N1         -2.7456   -2.4073    0.0017 N.pl3     1 <0>        -0.5619
     10 C9         -3.4195   -1.2472    0.1100 C.2       1 <0>         0.4672
     11 C10        -4.8730   -1.1131    0.2269 C.2       1 <0>        -0.2599
     12 C11        -5.6849   -2.2580    0.2378 C.2       1 <0>        -0.0193
     13 C12        -7.0367   -2.1330    0.3465 C.2       1 <0>        -0.2271
     14 C13        -7.6177   -0.8599    0.4475 C.2       1 <0>         0.3291
     15 O1         -8.9418   -0.7377    0.5539 O.2       1 <0>        -0.5899
     16 C14        -6.8064    0.2847    0.4370 C.2       1 <0>        -0.2265
     17 C15        -5.4541    0.1600    0.3338 C.2       1 <0>        -0.0193
     18 N2         -2.5363   -0.2302    0.0993 N.pl3     1 <0>        -0.5609
     19 C16        -0.2980   -3.0933   -0.2185 C.ar      1 <0>         0.1131
     20 C17         0.8460   -3.0046    0.5859 C.ar      1 <0>        -0.1113
     21 C18         1.8471   -3.9391    0.4288 C.ar      1 <0>         0.1475
     22 N3          1.7384   -4.9058   -0.4634 N.ar      1 <0>        -0.4453
     23 C19         0.6789   -5.0260   -1.2413 C.ar      1 <0>         0.1502
     24 C20        -0.3725   -4.1394   -1.1479 C.ar      1 <0>        -0.1247
     25 F1          3.5233    2.1271   -0.2501 F         1 <0>        -0.1206
     26 H1         -0.4930    1.2596    1.5875 H         1 <0>         0.1448
     27 H2          1.6122    2.5258    1.4800 H         1 <0>         0.1545
     28 H3          2.8693    0.1839   -1.8628 H         1 <0>         0.1503
     29 H4          0.7677   -1.0896   -1.7733 H         1 <0>         0.1343
     30 H5         -3.1383   -3.2941   -0.0126 H         1 <0>         0.4541
     31 H6         -5.2377   -3.2379    0.1597 H         1 <0>         0.1066
     32 H7         -7.6615   -3.0138    0.3545 H         1 <0>         0.1278
     33 H8         -7.2539    1.2645    0.5152 H         1 <0>         0.1286
     34 H9         -4.8293    1.0409    0.3299 H         1 <0>         0.1087
     35 H10        -2.7542    0.7126    0.1673 H         1 <0>         0.4588
     36 H11         0.9421   -2.2159    1.3174 H         1 <0>         0.1893
     37 H12         2.7328   -3.8793    1.0439 H         1 <0>         0.2181
     38 H13         0.6331   -5.8328   -1.9578 H         1 <0>         0.2182
     39 H14        -1.2383   -4.2467   -1.7845 H         1 <0>         0.1884
     40 H15         2.4602   -5.5480   -0.5503 H         1 <0>         0.4572
@<TRIPOS>BOND
     1    1    6 ar
     2    1    2 ar
     3    1   26 1
     4    2    3 ar
     5    2   27 1
     6    3    4 ar
     7    3   25 1
     8    4    5 ar
     9    4   28 1
    10    5    6 ar
    11    5   29 1
    12    6    7 1
    13    7   18 1
    14    7    8 2
    15    8    9 1
    16    8   19 1
    17    9   10 1
    18    9   30 1
    19   10   11 2
    20   10   18 1
    21   11   17 1
    22   11   12 1
    23   12   13 2
    24   12   31 1
    25   13   14 1
    26   13   32 1
    27   14   15 2
    28   14   16 1
    29   16   17 2
    30   16   33 1
    31   17   34 1
    32   18   35 1
    33   19   24 ar
    34   19   20 ar
    35   20   21 ar
    36   20   36 1
    37   21   22 ar
    38   21   37 1
    39   22   23 ar
    40   22   40 1
    41   23   24 ar
    42   23   38 1
    43   24   39 1
@<TRIPOS>MOLECULE
ZINC14951176
   39    42     0     0     0
SMALL
USER_CHARGES

@<TRIPOS>ATOM
      1 C1         -0.0169    1.3921    0.0097 C.ar      1 <0>        -0.0566
      2 C2          1.1683    2.0955    0.0022 C.ar      1 <0>        -0.1420
      3 C3          2.3804    1.4175   -0.0135 C.ar      1 <0>         0.1205
      4 C4          2.4035    0.0288   -0.0217 C.ar      1 <0>        -0.1413
      5 C5          1.2227   -0.6820   -0.0137 C.ar      1 <0>        -0.0915
      6 C6          0.0021   -0.0041    0.0020 C.ar      1 <0>        -0.0305
      7 C7         -1.2663   -0.7622    0.0101 C.2       1 <0>         0.2668
      8 N1         -2.4688   -0.2344    0.0239 N.2       1 <0>        -0.4516
      9 H1         -0.6429   -2.7598   -0.0166 H         1 <0>         0.4248
     10 C8         -3.3891   -1.2133    0.0276 C.2       1 <0>         0.0607
     11 C9         -2.7170   -2.4244    0.0153 C.2       1 <0>         0.0509
     12 N2         -1.3752   -2.1239   -0.0017 N.pl3     1 <0>        -0.5528
     13 C10        -3.3214   -3.7709    0.0147 C.ar      1 <0>        -0.0389
     14 C11        -4.3834   -4.0632    0.8738 C.ar      1 <0>        -0.0572
     15 C12        -4.9440   -5.3230    0.8688 C.ar      1 <0>        -0.1473
     16 C13        -4.4555   -6.2985    0.0139 C.ar      1 <0>         0.1118
     17 C14        -3.4017   -6.0145   -0.8405 C.ar      1 <0>        -0.1493
     18 C15        -2.8374   -4.7564   -0.8492 C.ar      1 <0>        -0.0780
     19 F1         -5.0084   -7.5311    0.0136 F         1 <0>        -0.1337
     20 C16        -4.8582   -1.0303    0.0430 C.ar      1 <0>         0.0400
     21 C17        -5.7004   -1.9173   -0.6371 C.ar      1 <0>        -0.1586
     22 C18        -7.0629   -1.7095   -0.5964 C.ar      1 <0>         0.1014
     23 N3         -7.5737   -0.6921    0.0713 N.ar      1 <0>        -0.4840
     24 C19        -6.8154    0.1672    0.7258 C.ar      1 <0>         0.1006
     25 C20        -5.4433    0.0310    0.7427 C.ar      1 <0>        -0.1465
     26 O1          3.5463    2.1144   -0.0214 O.3       1 <0>        -0.4977
     27 H2         -0.9589    1.9200    0.0260 H         1 <0>         0.1437
     28 H3          1.1545    3.1754    0.0081 H         1 <0>         0.1381
     29 H4          3.3480   -0.4948   -0.0346 H         1 <0>         0.1359
     30 H5          1.2415   -1.7618   -0.0204 H         1 <0>         0.1230
     31 H6         -4.7644   -3.3041    1.5409 H         1 <0>         0.1365
     32 H7         -5.7651   -5.5501    1.5325 H         1 <0>         0.1435
     33 H8         -3.0248   -6.7788   -1.5040 H         1 <0>         0.1419
     34 H9         -2.0195   -4.5348   -1.5187 H         1 <0>         0.1326
     35 H10        -5.2894   -2.7518   -1.1857 H         1 <0>         0.1340
     36 H11        -7.7211   -2.3883   -1.1184 H         1 <0>         0.1574
     37 H12        -7.2760    0.9856    1.2591 H         1 <0>         0.1586
     38 H13        -4.8292    0.7351    1.2845 H         1 <0>         0.1395
     39 H14         3.8927    2.3115    0.8597 H         1 <0>         0.3954
@<TRIPOS>BOND
     1    1    6 ar
     2    1    2 ar
     3    1   27 1
     4    2    3 ar
     5    2   28 1
     6    3    4 ar
     7    3   26 1
     8    4    5 ar
     9    4   29 1
    10    5    6 ar
    11    5   30 1
    12    6    7 1
    13    7    8 2
    14    7   12 1
    15    8   10 1
    16    9   12 1
    17   10   20 1
    18   10   11 2
    19   11   13 1
    20   11   12 1
    21   13   18 ar
    22   13   14 ar
    23   14   15 ar
    24   14   31 1
    25   15   16 ar
    26   15   32 1
    27   16   17 ar
    28   16   19 1
    29   17   18 ar
    30   17   33 1
    31   18   34 1
    32   20   25 ar
    33   20   21 ar
    34   21   22 ar
    35   21   35 1
    36   22   23 ar
    37   22   36 1
    38   23   24 ar
    39   24   25 ar
    40   24   37 1
    41   25   38 1
    42   26   39 1
@<TRIPOS>MOLECULE
ZINC14951176
   40    43     0     0     0
SMALL
USER_CHARGES

@<TRIPOS>ATOM
      1 C1         -0.0079    1.3560    0.4128 C.ar      1 <0>        -0.0502
      2 C2          1.1789    2.0446    0.5411 C.ar      1 <0>        -0.1379
      3 C3          2.3872    1.3600    0.5181 C.ar      1 <0>         0.1743
      4 C4          2.4048   -0.0205    0.3656 C.ar      1 <0>        -0.1372
      5 C5          1.2223   -0.7164    0.2363 C.ar      1 <0>        -0.0529
      6 C6          0.0054   -0.0319    0.2597 C.ar      1 <0>        -0.1114
      7 C7         -1.2648   -0.7743    0.1224 C.cat     1 <0>         0.3974
      8 N1         -2.5103   -0.2175    0.1240 N.pl3     1 <0>        -0.5055
      9 H1         -2.7195    0.7253    0.2141 H         1 <0>         0.4639
     10 C8         -3.4150   -1.2456   -0.0267 C.2       1 <0>         0.1188
     11 C9         -2.6710   -2.4104   -0.1160 C.2       1 <0>         0.1124
     12 N2         -1.3744   -2.0755   -0.0265 N.pl3     1 <0>        -0.4709
     13 C10        -3.2098   -3.7802   -0.2862 C.ar      1 <0>        -0.0876
     14 C11        -4.1834   -4.0340   -1.2519 C.ar      1 <0>        -0.0424
     15 C12        -4.6816   -5.3110   -1.4069 C.ar      1 <0>        -0.1470
     16 C13        -4.2164   -6.3406   -0.6047 C.ar      1 <0>         0.1433
     17 C14        -3.2491   -6.0935    0.3562 C.ar      1 <0>        -0.1478
     18 C15        -2.7406   -4.8209    0.5148 C.ar      1 <0>        -0.0599
     19 F1         -4.7080   -7.5895   -0.7596 F         1 <0>        -0.1208
     20 C16        -4.8840   -1.1288   -0.0821 C.ar      1 <0>        -0.0205
     21 C17        -5.7034   -1.9735    0.6798 C.ar      1 <0>        -0.1289
     22 C18        -7.0715   -1.8287    0.5974 C.ar      1 <0>         0.1171
     23 N3         -7.6107   -0.9116   -0.1841 N.ar      1 <0>        -0.4578
     24 C19        -6.8767   -0.0959   -0.9180 C.ar      1 <0>         0.1165
     25 C20        -5.5005   -0.1662   -0.8936 C.ar      1 <0>        -0.1481
     26 O1          3.5548    2.0423    0.6448 O.3       1 <0>        -0.4899
     27 H2         -0.9472    1.8885    0.4352 H         1 <0>         0.1371
     28 H3          1.1694    3.1181    0.6592 H         1 <0>         0.1540
     29 H4          3.3464   -0.5492    0.3479 H         1 <0>         0.1543
     30 H5          1.2369   -1.7897    0.1170 H         1 <0>         0.1372
     31 H6         -4.5471   -3.2320   -1.8771 H         1 <0>         0.1402
     32 H7         -5.4356   -5.5085   -2.1544 H         1 <0>         0.1527
     33 H8         -2.8897   -6.8992    0.9791 H         1 <0>         0.1527
     34 H9         -1.9838   -4.6301    1.2612 H         1 <0>         0.1391
     35 H10        -5.2693   -2.7263    1.3211 H         1 <0>         0.1460
     36 H11        -7.7114   -2.4748    1.1801 H         1 <0>         0.1719
     37 H12        -7.3614    0.6395   -1.5430 H         1 <0>         0.1713
     38 H13        -4.9063    0.5074   -1.4932 H         1 <0>         0.1422
     39 H14         3.8545    2.1428    1.5587 H         1 <0>         0.4115
     40 H15        -0.6320   -2.6987   -0.0633 H         1 <0>         0.4629
@<TRIPOS>BOND
     1    1    6 ar
     2    1    2 ar
     3    1   27 1
     4    2    3 ar
     5    2   28 1
     6    3    4 ar
     7    3   26 1
     8    4    5 ar
     9    4   29 1
    10    5    6 ar
    11    5   30 1
    12    6    7 1
    13    7   12 2
    14    7    8 1
    15    8    9 1
    16    8   10 1
    17   10   11 2
    18   10   20 1
    19   11   12 1
    20   11   13 1
    21   12   40 1
    22   13   18 ar
    23   13   14 ar
    24   14   15 ar
    25   14   31 1
    26   15   16 ar
    27   15   32 1
    28   16   17 ar
    29   16   19 1
    30   17   18 ar
    31   17   33 1
    32   18   34 1
    33   20   25 ar
    34   20   21 ar
    35   21   22 ar
    36   21   35 1
    37   22   23 ar
    38   22   36 1
    39   23   24 ar
    40   24   25 ar
    41   24   37 1
    42   25   38 1
    43   26   39 1
@<TRIPOS>MOLECULE
ZINC14951176
   40    43     0     0     0
SMALL
USER_CHARGES

@<TRIPOS>ATOM
      1 C1         -0.0268    1.3873   -0.2487 C.ar      1 <0>        -0.0533
      2 C2          1.1507    2.0881   -0.3954 C.ar      1 <0>        -0.1372
      3 C3          2.3508    1.4075   -0.5560 C.ar      1 <0>         0.1741
      4 C4          2.3694    0.0187   -0.5693 C.ar      1 <0>        -0.1379
      5 C5          1.1963   -0.6894   -0.4227 C.ar      1 <0>        -0.0501
      6 C6         -0.0123   -0.0089   -0.2611 C.ar      1 <0>        -0.1113
      7 C7         -1.2726   -0.7643   -0.1040 C.cat     1 <0>         0.3964
      8 N1         -1.3739   -2.1224    0.0021 N.pl3     1 <0>        -0.5087
      9 H1         -0.6406   -2.7573   -0.0113 H         1 <0>         0.4641
     10 C8         -2.7098   -2.4213    0.1324 C.2       1 <0>         0.1445
     11 C9         -3.3862   -1.2129    0.1003 C.2       1 <0>         0.0865
     12 N2         -2.4734   -0.2367   -0.0386 N.pl3     1 <0>        -0.4668
     13 C10        -4.8514   -1.0295    0.2063 C.ar      1 <0>        -0.0181
     14 C11        -5.5878   -1.6830    1.2008 C.ar      1 <0>        -0.1314
     15 C12        -6.9507   -1.4834    1.2636 C.ar      1 <0>         0.1177
     16 N3         -7.5598   -0.6900    0.4025 N.ar      1 <0>        -0.4587
     17 C13        -6.9031   -0.0552   -0.5501 C.ar      1 <0>         0.1173
     18 C14        -5.5375   -0.1932   -0.6817 C.ar      1 <0>        -0.1516
     19 C15        -3.3053   -3.7640    0.2776 C.ar      1 <0>        -0.0905
     20 C16        -4.4063   -4.1307   -0.5000 C.ar      1 <0>        -0.0398
     21 C17        -4.9583   -5.3865   -0.3599 C.ar      1 <0>        -0.1481
     22 C18        -4.4232   -6.2840    0.5507 C.ar      1 <0>         0.1454
     23 C19        -3.3311   -5.9257    1.3253 C.ar      1 <0>        -0.1491
     24 C20        -2.7664   -4.6752    1.1893 C.ar      1 <0>        -0.0562
     25 F1         -4.9685   -7.5129    0.6840 F         1 <0>        -0.1204
     26 O1          3.5092    2.1019   -0.7007 O.3       1 <0>        -0.4899
     27 H2         -0.9590    1.9172   -0.1198 H         1 <0>         0.1369
     28 H3          1.1404    3.1680   -0.3860 H         1 <0>         0.1542
     29 H4          3.3045   -0.5068   -0.6950 H         1 <0>         0.1540
     30 H5          1.2115   -1.7693   -0.4335 H         1 <0>         0.1375
     31 H6         -5.0961   -2.3342    1.9084 H         1 <0>         0.1454
     32 H7         -7.5277   -1.9833    2.0275 H         1 <0>         0.1715
     33 H8         -7.4422    0.5842   -1.2336 H         1 <0>         0.1711
     34 H9         -5.0059    0.3326   -1.4610 H         1 <0>         0.1417
     35 H10        -4.8245   -3.4319   -1.2094 H         1 <0>         0.1408
     36 H11        -5.8095   -5.6711   -0.9606 H         1 <0>         0.1531
     37 H12        -2.9189   -6.6290    2.0337 H         1 <0>         0.1530
     38 H13        -1.9125   -4.3987    1.7900 H         1 <0>         0.1398
     39 H14         3.9581    2.2964    0.1334 H         1 <0>         0.4114
     40 H15        -2.6712    0.7118   -0.0857 H         1 <0>         0.4627
@<TRIPOS>BOND
     1    1    6 ar
     2    1    2 ar
     3    1   27 1
     4    2    3 ar
     5    2   28 1
     6    3    4 ar
     7    3   26 1
     8    4    5 ar
     9    4   29 1
    10    5    6 ar
    11    5   30 1
    12    6    7 1
    13    7   12 2
    14    7    8 1
    15    8    9 1
    16    8   10 1
    17   10   11 2
    18   10   19 1
    19   11   12 1
    20   11   13 1
    21   12   40 1
    22   13   18 ar
    23   13   14 ar
    24   14   15 ar
    25   14   31 1
    26   15   16 ar
    27   15   32 1
    28   16   17 ar
    29   17   18 ar
    30   17   33 1
    31   18   34 1
    32   19   24 ar
    33   19   20 ar
    34   20   21 ar
    35   20   35 1
    36   21   22 ar
    37   21   36 1
    38   22   23 ar
    39   22   25 1
    40   23   24 ar
    41   23   37 1
    42   24   38 1
    43   26   39 1
@<TRIPOS>MOLECULE
ZINC27439698
   59    62     0     0     0
SMALL
USER_CHARGES

@<TRIPOS>ATOM
      1 C1         -0.2063    1.0844    0.8125 C.2       1 <0>        -0.0780
      2 C2         -0.0916   -0.1284    0.2785 C.2       1 <0>        -0.2217
      3 C3          1.1892   -0.8472    0.3546 C.2       1 <0>         0.5464
      4 O1          2.1435   -0.3327    0.9059 O.2       1 <0>        -0.5301
      5 N1          1.3054   -2.0761   -0.1864 N.am      1 <0>        -0.6549
      6 C4          2.5517   -2.7129   -0.2160 C.ar      1 <0>         0.1200
      7 C5          3.7048   -1.9595   -0.1827 C.ar      1 <0>        -0.0579
      8 C6          4.9490   -2.5997   -0.2120 C.ar      1 <0>        -0.1974
      9 C7          5.0154   -4.0138   -0.2753 C.ar      1 <0>         0.2129
     10 C8          3.8313   -4.7603   -0.3083 C.ar      1 <0>        -0.1947
     11 C9          2.6164   -4.1137   -0.2734 C.ar      1 <0>         0.1622
     12 O2          1.4681   -4.8389   -0.3002 O.3       1 <0>        -0.3093
     13 C10         1.5999   -6.2606   -0.3586 C.3       1 <0>         0.0588
     14 C11         0.2106   -6.9010   -0.3813 C.3       1 <0>        -0.1156
     15 C12         0.3517   -8.4232   -0.4438 C.3       1 <0>         0.0578
     16 N2         -0.9822   -9.0382   -0.4657 N.3       1 <0>        -0.5360
     17 C13        -1.6880   -8.8108    0.8038 C.3       1 <0>         0.0125
     18 C14        -3.0921   -9.4148    0.7161 C.3       1 <0>         0.0626
     19 O3         -2.9885  -10.8047    0.3955 O.3       1 <0>        -0.3850
     20 C15        -2.3071  -11.0626   -0.8351 C.3       1 <0>         0.0628
     21 C16        -0.8951  -10.4753   -0.7631 C.3       1 <0>         0.0171
     22 N3          6.2221   -4.6015   -0.3018 N.ar      1 <0>        -0.5452
     23 C17         7.3156   -3.8777   -0.2694 C.ar      1 <0>         0.3493
     24 N4          7.3023   -2.5556   -0.2097 N.ar      1 <0>        -0.5859
     25 C18         6.1642   -1.8746   -0.1796 C.ar      1 <0>         0.4714
     26 N5          6.1650   -0.4957   -0.1182 N.pl3     1 <0>        -0.6328
     27 C19         7.3694    0.2084   -0.2227 C.ar      1 <0>         0.1581
     28 C20         7.5013    1.4536    0.3785 C.ar      1 <0>        -0.1169
     29 C21         8.6911    2.1472    0.2750 C.ar      1 <0>        -0.1176
     30 C22         9.7524    1.6027   -0.4280 C.ar      1 <0>         0.0901
     31 C23         9.6235    0.3609   -1.0292 C.ar      1 <0>        -0.0524
     32 C24         8.4363   -0.3392   -0.9225 C.ar      1 <0>        -0.0856
     33 Cl1        10.9555   -0.3188   -1.9109 Cl        1 <0>        -0.0424
     34 F1         10.9152    2.2833   -0.5284 F         1 <0>        -0.1264
     35 H1          0.6411    1.5413    1.3020 H         1 <0>         0.1166
     36 H2         -1.1456    1.6141    0.7527 H         1 <0>         0.1209
     37 H3         -0.9390   -0.5853   -0.2110 H         1 <0>         0.1323
     38 H4          0.5255   -2.5194   -0.5554 H         1 <0>         0.4201
     39 H5          3.6489   -0.8820   -0.1348 H         1 <0>         0.1596
     40 H6          3.8708   -5.8385   -0.3565 H         1 <0>         0.1517
     41 H7          2.1429   -6.5383   -1.2620 H         1 <0>         0.0720
     42 H8          2.1473   -6.6110    0.5165 H         1 <0>         0.0691
     43 H9         -0.3323   -6.6233    0.5221 H         1 <0>         0.0760
     44 H10        -0.3367   -6.5506   -1.2564 H         1 <0>         0.0860
     45 H11         0.8947   -8.7010   -1.3473 H         1 <0>         0.0821
     46 H12         0.8990   -8.7736    0.4312 H         1 <0>         0.0409
     47 H13        -1.1377   -9.2854    1.6162 H         1 <0>         0.0448
     48 H14        -1.7636   -7.7398    0.9914 H         1 <0>         0.0895
     49 H15        -3.5986   -9.2990    1.6743 H         1 <0>         0.0993
     50 H16        -3.6604   -8.9035   -0.0609 H         1 <0>         0.0609
     51 H17        -2.2459  -12.1385   -0.9988 H         1 <0>         0.1001
     52 H18        -2.8525  -10.5991   -1.6572 H         1 <0>         0.0612
     53 H19        -0.3918  -10.6192   -1.7193 H         1 <0>         0.0886
     54 H20        -0.3321  -10.9764    0.0243 H         1 <0>         0.0452
     55 H21         8.2696   -4.3834   -0.2921 H         1 <0>         0.1993
     56 H22         5.3306   -0.0149   -0.0027 H         1 <0>         0.4275
     57 H23         6.6738    1.8794    0.9265 H         1 <0>         0.1431
     58 H24         8.7936    3.1154    0.7424 H         1 <0>         0.1506
     59 H25         8.3373   -1.3092   -1.3869 H         1 <0>         0.1663
@<TRIPOS>BOND
     1    1    2 2
     2    1   35 1
     3    1   36 1
     4    2    3 1
     5    2   37 1
     6    3    4 2
     7    3    5 am
     8    5    6 1
     9    5   38 1
    10    6   11 ar
    11    6    7 ar
    12    7    8 ar
    13    7   39 1
    14    8   25 ar
    15    8    9 ar
    16    9   10 ar
    17    9   22 ar
    18   10   11 ar
    19   10   40 1
    20   11   12 1
    21   12   13 1
    22   13   14 1
    23   13   41 1
    24   13   42 1
    25   14   15 1
    26   14   43 1
    27   14   44 1
    28   15   16 1
    29   15   45 1
    30   15   46 1
    31   16   21 1
    32   16   17 1
    33   17   18 1
    34   17   47 1
    35   17   48 1
    36   18   19 1
    37   18   49 1
    38   18   50 1
    39   19   20 1
    40   20   21 1
    41   20   51 1
    42   20   52 1
    43   21   53 1
    44   21   54 1
    45   22   23 ar
    46   23   24 ar
    47   23   55 1
    48   24   25 ar
    49   25   26 1
    50   26   27 1
    51   26   56 1
    52   27   32 ar
    53   27   28 ar
    54   28   29 ar
    55   28   57 1
    56   29   30 ar
    57   29   58 1
    58   30   31 ar
    59   30   34 1
    60   31   32 ar
    61   31   33 1
    62   32   59 1
@<TRIPOS>MOLECULE
ZINC14960000
   43    44     0     0     0
SMALL
USER_CHARGES

@<TRIPOS>ATOM
      1 C1         -0.0187    1.5258    0.0104 C.3       1 <0>        -0.1552
      2 C2          0.0021   -0.0041    0.0020 C.3       1 <0>         0.0652
      3 O1          0.6932   -0.4774    1.1597 O.3       1 <0>        -0.2910
      4 C3          0.8018   -1.8222    1.3054 C.ar      1 <0>         0.3800
      5 C4          1.4590   -2.3416    2.4157 C.ar      1 <0>        -0.1786
      6 C5          1.5655   -3.7224    2.5576 C.ar      1 <0>         0.2924
      7 C6          1.0042   -4.5362    1.5726 C.ar      1 <0>        -0.2069
      8 C7          0.3629   -3.9442    0.4918 C.ar      1 <0>         0.1594
      9 N1          0.2777   -2.6207    0.3945 N.ar      1 <0>        -0.5477
     10 C8         -0.2370   -4.7963   -0.5606 C.2       1 <0>         0.5761
     11 O2         -0.1668   -6.0066   -0.4758 O.2       1 <0>        -0.5207
     12 N2         -0.8608   -4.2295   -1.6123 N.am      1 <0>        -0.7068
     13 C9         -1.4543   -5.0724   -2.6532 C.3       1 <0>         0.1517
     14 C10        -2.0848   -4.1995   -3.7075 C.ar      1 <0>        -0.0560
     15 C11        -3.4061   -3.8121   -3.5845 C.ar      1 <0>        -0.1188
     16 C12        -3.9845   -3.0114   -4.5516 C.ar      1 <0>        -0.0244
     17 C13        -3.2415   -2.5977   -5.6414 C.ar      1 <0>        -0.6522
     18 C14        -1.9200   -2.9843   -5.7639 C.ar      1 <0>        -0.0244
     19 C15        -1.3403   -3.7815   -4.7947 C.ar      1 <0>        -0.1188
     20 S1         -3.9791   -1.5780   -6.8747 S.o2      1 <0>         2.4986
     21 O3         -3.2380   -1.8456   -8.0572 O.2       1 <0>        -0.9353
     22 O4         -5.3673   -1.8740   -6.8072 O.2       1 <0>        -0.9353
     23 C16        -3.6748    0.1213   -6.3177 C.3       1 <0>        -0.6498
     24 N3          2.2170   -4.2783    3.6563 N.pl3     1 <0>        -0.8449
     25 Cl1         2.1389   -1.2807    3.6098 Cl        1 <0>        -0.0379
     26 H1          1.0039    1.9031    0.0027 H         1 <0>         0.0668
     27 H2         -0.5459    1.8868   -0.8726 H         1 <0>         0.0806
     28 H3         -0.5289    1.8773    0.9072 H         1 <0>         0.0668
     29 H4         -1.0205   -0.3814    0.0098 H         1 <0>         0.0685
     30 H5          0.5123   -0.3556   -0.8948 H         1 <0>         0.0685
     31 H6          1.0678   -5.6116    1.6494 H         1 <0>         0.1582
     32 H7         -0.9169   -3.2635   -1.6800 H         1 <0>         0.4133
     33 H8         -0.6786   -5.6885   -3.1080 H         1 <0>         0.0871
     34 H9         -2.2155   -5.7148   -2.2105 H         1 <0>         0.0872
     35 H10        -3.9866   -4.1354   -2.7331 H         1 <0>         0.1367
     36 H11        -5.0170   -2.7094   -4.4559 H         1 <0>         0.1456
     37 H12        -1.3396   -2.6613   -6.6155 H         1 <0>         0.1456
     38 H13        -0.3068   -4.0804   -4.8885 H         1 <0>         0.1367
     39 H14        -2.6009    0.2922   -6.2426 H         1 <0>         0.1319
     40 H15        -4.1048    0.8210   -7.0343 H         1 <0>         0.1344
     41 H16        -4.1358    0.2718   -5.3415 H         1 <0>         0.1319
     42 H17         2.6033   -3.7017    4.3339 H         1 <0>         0.4093
     43 H18         2.2845   -5.2420    3.7436 H         1 <0>         0.4123
@<TRIPOS>BOND
     1    1    2 1
     2    1   26 1
     3    1   27 1
     4    1   28 1
     5    2    3 1
     6    2   29 1
     7    2   30 1
     8    3    4 1
     9    4    9 ar
    10    4    5 ar
    11    5    6 ar
    12    5   25 1
    13    6    7 ar
    14    6   24 1
    15    7    8 ar
    16    7   31 1
    17    8    9 ar
    18    8   10 1
    19   10   11 2
    20   10   12 am
    21   12   13 1
    22   12   32 1
    23   13   14 1
    24   13   33 1
    25   13   34 1
    26   14   19 ar
    27   14   15 ar
    28   15   16 ar
    29   15   35 1
    30   16   17 ar
    31   16   36 1
    32   17   18 ar
    33   17   20 1
    34   18   19 ar
    35   18   37 1
    36   19   38 1
    37   20   21 2
    38   20   22 2
    39   20   23 1
    40   23   39 1
    41   23   40 1
    42   23   41 1
    43   24   42 1
    44   24   43 1
@<TRIPOS>MOLECULE
ZINC14959984
   43    44     0     0     0
SMALL
USER_CHARGES

@<TRIPOS>ATOM
      1 C1         -0.0187    1.5258    0.0104 C.3       1 <0>        -0.1579
      2 C2          0.0021   -0.0041    0.0020 C.3       1 <0>         0.0624
      3 O1         -1.3386   -0.4987    0.0122 O.3       1 <0>        -0.2942
      4 C3         -1.4978   -1.8442    0.0065 C.ar      1 <0>         0.4169
      5 C4         -2.7916   -2.3917    0.0100 C.ar      1 <0>        -0.1678
      6 C5         -2.9371   -3.7908    0.0035 C.ar      1 <0>         0.3307
      7 C6         -1.7827   -4.5744   -0.0062 C.ar      1 <0>        -0.2164
      8 C7         -0.5411   -3.9531   -0.0092 C.ar      1 <0>         0.1827
      9 N1         -0.4370   -2.6274   -0.0079 N.ar      1 <0>        -0.5624
     10 C8          0.6885   -4.7811   -0.0190 C.2       1 <0>         0.5763
     11 O2          0.6047   -5.9933   -0.0244 O.2       1 <0>        -0.5051
     12 N2          1.8994   -4.1893   -0.0219 N.am      1 <0>        -0.7127
     13 C9          3.1145   -5.0075   -0.0316 C.3       1 <0>         0.1044
     14 C10         4.3248   -4.1096   -0.0331 C.ar      1 <0>        -0.0123
     15 C11         4.9948   -3.8544   -1.2152 C.ar      1 <0>        -0.1174
     16 C12         6.1048   -3.0309   -1.2165 C.ar      1 <0>        -0.0593
     17 C13         6.5448   -2.4618   -0.0358 C.ar      1 <0>        -0.1290
     18 C14         5.8744   -2.7161    1.1458 C.ar      1 <0>        -0.0166
     19 C15         4.7615   -3.5365    1.1464 C.ar      1 <0>        -0.6619
     20 S1          3.9032   -3.8558    2.6517 S.o2      1 <0>         2.6959
     21 O3          3.7291   -5.2640    2.7291 O.2       1 <0>        -0.9530
     22 O4          4.5691   -3.1138    3.6642 O.2       1 <0>        -0.9606
     23 N3          2.3903   -3.1994    2.5014 N.pl3     1 <0>        -1.2450
     24 N4         -4.1940   -4.3755    0.0072 N.pl3     1 <0>        -0.8360
     25 C16        -3.9426   -1.5399    0.0206 C.1       1 <0>         0.2633
     26 N5         -4.8558   -0.8642    0.0289 N.1       1 <0>        -0.4083
     27 H1          1.0039    1.9031    0.0027 H         1 <0>         0.0836
     28 H2         -0.5459    1.8868   -0.8726 H         1 <0>         0.0668
     29 H3         -0.5289    1.8773    0.9072 H         1 <0>         0.0673
     30 H4          0.5123   -0.3556   -0.8948 H         1 <0>         0.0733
     31 H5          0.5293   -0.3651    0.8851 H         1 <0>         0.0728
     32 H6         -1.8542   -5.6520   -0.0111 H         1 <0>         0.1623
     33 H7          1.9663   -3.2216   -0.0176 H         1 <0>         0.4074
     34 H8          3.1331   -5.6410    0.8552 H         1 <0>         0.1256
     35 H9          3.1247   -5.6324   -0.9247 H         1 <0>         0.1003
     36 H10         4.6511   -4.2990   -2.1375 H         1 <0>         0.1386
     37 H11         6.6286   -2.8321   -2.1398 H         1 <0>         0.1370
     38 H12         7.4125   -1.8189   -0.0367 H         1 <0>         0.1387
     39 H13         6.2183   -2.2719    2.0682 H         1 <0>         0.1495
     40 H14         2.1381   -2.7448    1.6826 H         1 <0>         0.4109
     41 H15         1.7564   -3.2696    3.2323 H         1 <0>         0.4232
     42 H16        -4.9880   -3.8184    0.0143 H         1 <0>         0.4094
     43 H17        -4.2795   -5.3417    0.0026 H         1 <0>         0.4166
@<TRIPOS>BOND
     1    1    2 1
     2    1   27 1
     3    1   28 1
     4    1   29 1
     5    2    3 1
     6    2   30 1
     7    2   31 1
     8    3    4 1
     9    4    9 ar
    10    4    5 ar
    11    5    6 ar
    12    5   25 1
    13    6    7 ar
    14    6   24 1
    15    7    8 ar
    16    7   32 1
    17    8    9 ar
    18    8   10 1
    19   10   11 2
    20   10   12 am
    21   12   13 1
    22   12   33 1
    23   13   14 1
    24   13   34 1
    25   13   35 1
    26   14   19 ar
    27   14   15 ar
    28   15   16 ar
    29   15   36 1
    30   16   17 ar
    31   16   37 1
    32   17   18 ar
    33   17   38 1
    34   18   19 ar
    35   18   39 1
    36   19   20 1
    37   20   21 2
    38   20   22 2
    39   20   23 1
    40   23   40 1
    41   23   41 1
    42   24   42 1
    43   24   43 1
    44   25   26 3
@<TRIPOS>MOLECULE
ZINC14959980
   44    45     0     0     0
SMALL
USER_CHARGES

@<TRIPOS>ATOM
      1 C1         -0.0187    1.5258    0.0104 C.3       1 <0>        -0.1572
      2 C2          0.0021   -0.0041    0.0020 C.3       1 <0>         0.0644
      3 O1          0.6709   -0.4649   -1.1737 O.3       1 <0>        -0.2954
      4 C3          0.7764   -1.8060   -1.3357 C.ar      1 <0>         0.4160
      5 C4          1.4284   -2.3208   -2.4685 C.ar      1 <0>        -0.1683
      6 C5          1.5285   -3.7158   -2.6192 C.ar      1 <0>         0.3299
      7 C6          0.9723   -4.5281   -1.6306 C.ar      1 <0>        -0.2180
      8 C7          0.3447   -3.9382   -0.5417 C.ar      1 <0>         0.1834
      9 N1          0.2709   -2.6155   -0.4257 N.ar      1 <0>        -0.5591
     10 C8         -0.2483   -4.7967    0.5113 C.2       1 <0>         0.5734
     11 O2         -0.1829   -6.0064    0.4172 O.2       1 <0>        -0.5177
     12 N2         -0.8601   -4.2355    1.5730 N.am      1 <0>        -0.7056
     13 C9         -1.4462   -5.0839    2.6136 C.3       1 <0>         0.1515
     14 C10        -2.0637   -4.2166    3.6802 C.ar      1 <0>        -0.0565
     15 C11        -1.3058   -3.8041    4.7601 C.ar      1 <0>        -0.1186
     16 C12        -1.8723   -3.0085    5.7384 C.ar      1 <0>        -0.0244
     17 C13        -3.1965   -2.6251    5.6366 C.ar      1 <0>        -0.6520
     18 C14        -3.9541   -3.0369    4.5561 C.ar      1 <0>        -0.0244
     19 C15        -3.3865   -3.8289    3.5756 C.ar      1 <0>        -0.1187
     20 S1         -3.9188   -1.6120    6.8842 S.o2      1 <0>         2.4983
     21 O3         -5.3071   -1.9112    6.8354 O.2       1 <0>        -0.9353
     22 O4         -3.1602   -1.8823    8.0549 O.2       1 <0>        -0.9353
     23 C16        -3.6266    0.0902    6.3295 C.3       1 <0>        -0.6498
     24 N3          2.1626   -4.2688   -3.7210 N.pl3     1 <0>        -0.8366
     25 C17         1.9812   -1.4404   -3.4534 C.1       1 <0>         0.2638
     26 N4          2.4198   -0.7421   -4.2347 N.1       1 <0>        -0.4087
     27 H1          1.0039    1.9031    0.0027 H         1 <0>         0.0668
     28 H2         -0.5459    1.8868   -0.8726 H         1 <0>         0.0668
     29 H3         -0.5289    1.8773    0.9072 H         1 <0>         0.0828
     30 H4          0.5293   -0.3651    0.8851 H         1 <0>         0.0725
     31 H5         -1.0205   -0.3814    0.0098 H         1 <0>         0.0725
     32 H6          1.0290   -5.6036   -1.7116 H         1 <0>         0.1615
     33 H7         -0.9124   -3.2698    1.6481 H         1 <0>         0.4139
     34 H8         -2.2137   -5.7207    2.1737 H         1 <0>         0.0878
     35 H9         -0.6681   -5.7057    3.0564 H         1 <0>         0.0878
     36 H10        -0.2713   -4.1036    4.8397 H         1 <0>         0.1369
     37 H11        -1.2804   -2.6868    6.5826 H         1 <0>         0.1455
     38 H12        -4.9888   -2.7377    4.4767 H         1 <0>         0.1456
     39 H13        -3.9774   -4.1476    2.7296 H         1 <0>         0.1369
     40 H14        -4.1019    0.2432    5.3605 H         1 <0>         0.1320
     41 H15        -4.0480    0.7861    7.0548 H         1 <0>         0.1343
     42 H16        -2.5543    0.2640    6.2397 H         1 <0>         0.1319
     43 H17         2.5446   -3.6920   -4.4009 H         1 <0>         0.4093
     44 H18         2.2243   -5.2325   -3.8120 H         1 <0>         0.4163
@<TRIPOS>BOND
     1    1    2 1
     2    1   27 1
     3    1   28 1
     4    1   29 1
     5    2    3 1
     6    2   30 1
     7    2   31 1
     8    3    4 1
     9    4    9 ar
    10    4    5 ar
    11    5    6 ar
    12    5   25 1
    13    6    7 ar
    14    6   24 1
    15    7    8 ar
    16    7   32 1
    17    8    9 ar
    18    8   10 1
    19   10   11 2
    20   10   12 am
    21   12   13 1
    22   12   33 1
    23   13   14 1
    24   13   34 1
    25   13   35 1
    26   14   19 ar
    27   14   15 ar
    28   15   16 ar
    29   15   36 1
    30   16   17 ar
    31   16   37 1
    32   17   18 ar
    33   17   20 1
    34   18   19 ar
    35   18   38 1
    36   19   39 1
    37   20   21 2
    38   20   22 2
    39   20   23 1
    40   23   40 1
    41   23   41 1
    42   23   42 1
    43   24   43 1
    44   24   44 1
    45   25   26 3
@<TRIPOS>MOLECULE
ZINC12370057
   34    37     0     0     0
SMALL
USER_CHARGES
4-(2,3-dihydro-1,4-benzodioxin-6-yl)-5-(5-nitrothiazol-2-yl)sulfanyl-2H-1,2,4-triazol-3-one
@<TRIPOS>ATOM
      1 C1         -1.1900   -0.7108    0.0330 C.ar      1 <0>        -0.1161
      2 C2         -0.0014   -0.0067    0.0367 C.ar      1 <0>        -0.0777
      3 C3         -0.0130    1.3801    0.0167 C.ar      1 <0>         0.0529
      4 C4         -1.2240    2.0635   -0.0033 C.ar      1 <0>         0.0892
      5 C5         -2.4160    1.3565   -0.0036 C.ar      1 <0>        -0.1302
      6 C6         -2.4002   -0.0313    0.0149 C.ar      1 <0>         0.1526
      7 N1         -3.6066   -0.7467    0.0158 N.am      1 <0>        -0.4562
      8 C7         -3.7561   -2.0849   -0.0930 C.2       1 <0>         0.6314
      9 O1         -2.8637   -2.9015   -0.2109 O.2       1 <0>        -0.5199
     10 N2         -5.0762   -2.3476   -0.0440 N.am      1 <0>        -0.4697
     11 H1         -5.4735   -3.2309   -0.0974 H         1 <0>         0.4681
     12 N3         -5.7291   -1.2463    0.0795 N.2       1 <0>        -0.1706
     13 C8         -4.8759   -0.2259    0.1217 C.2       1 <0>         0.0986
     14 S1         -5.2825    1.4296    0.2797 S.3       1 <0>         0.4163
     15 C9         -6.9888    1.3109    0.3538 C.2       1 <0>        -0.0203
     16 N4         -7.7635    0.2196    0.2951 N.2       1 <0>        -0.4453
     17 C10        -9.0520    0.3306    0.3737 C.2       1 <0>         0.1725
     18 C11        -9.6183    1.6032    0.5077 C.2       1 <0>        -0.2128
     19 S2         -8.2028    2.6104    0.5219 S.3       1 <0>         0.3102
     20 N5        -11.0445    1.9888    0.6100 N.pl3     1 <0>         0.0436
     21 O2        -11.9808    1.0632    0.5785 O.2       1 <0>        -0.1548
     22 O3        -11.3765    3.2574    0.7326 O.3       1 <0>        -0.1731
     23 O4         -1.2557    3.4241   -0.0240 O.3       1 <0>        -0.3002
     24 C12        -0.0528    4.1015    0.3556 C.3       1 <0>         0.0193
     25 C13         1.1235    3.4334   -0.3692 C.3       1 <0>         0.0176
     26 O5          1.1684    2.0572    0.0227 O.3       1 <0>        -0.2997
     27 H2         -1.1775   -1.7907    0.0466 H         1 <0>         0.1661
     28 H3          0.9391   -0.5374    0.0504 H         1 <0>         0.1526
     29 H4         -3.3574    1.8855   -0.0180 H         1 <0>         0.1291
     30 H5         -9.6806   -0.5467    0.3319 H         1 <0>         0.2008
     31 H6         -0.1148    5.1506    0.0664 H         1 <0>         0.1299
     32 H7          0.0875    4.0251    1.4338 H         1 <0>         0.0843
     33 H8          0.9790    3.5040   -1.4472 H         1 <0>         0.0830
     34 H9          2.0549    3.9258   -0.0896 H         1 <0>         0.1284
@<TRIPOS>BOND
     1    1    6 ar
     2    1    2 ar
     3    1   27 1
     4    2    3 ar
     5    2   28 1
     6    3   26 1
     7    3    4 ar
     8    4    5 ar
     9    4   23 1
    10    5    6 ar
    11    5   29 1
    12    6    7 1
    13    7   13 1
    14    7    8 am
    15    8    9 2
    16    8   10 am
    17   10   11 1
    18   10   12 1
    19   12   13 2
    20   13   14 1
    21   14   15 1
    22   15   19 1
    23   15   16 2
    24   16   17 1
    25   17   18 2
    26   17   30 1
    27   18   19 1
    28   18   20 1
    29   20   21 2
    30   20   22 1
    31   23   24 1
    32   24   25 1
    33   24   31 1
    34   24   32 1
    35   25   26 1
    36   25   33 1
    37   25   34 1
@<TRIPOS>MOLECULE
ZINC01546066
   52    54     0     0     0
SMALL
USER_CHARGES

@<TRIPOS>ATOM
      1 C1          1.3190    1.4185    0.8998 C.3       1 <0>         0.0308
      2 O1          1.1221    0.0121    0.7412 O.3       1 <0>        -0.3842
      3 C2          1.6336   -0.7719    1.8209 C.3       1 <0>         0.0626
      4 C3          1.3686   -2.2534    1.5456 C.3       1 <0>         0.0560
      5 O2          2.1105   -2.6643    0.3955 O.3       1 <0>        -0.2877
      6 C4          1.9861   -3.9631    0.0122 C.ar      1 <0>         0.1163
      7 C5          1.1727   -4.8014    0.7206 C.ar      1 <0>        -0.1508
      8 C6          1.0439   -6.1386    0.3269 C.ar      1 <0>        -0.1822
      9 C7          1.7562   -6.6146   -0.8018 C.ar      1 <0>         0.2018
     10 C8          2.5842   -5.7378   -1.5132 C.ar      1 <0>        -0.1867
     11 C9          2.6894   -4.4253   -1.1088 C.ar      1 <0>         0.1692
     12 O3          3.4878   -3.5711   -1.8004 O.3       1 <0>        -0.2847
     13 C10         4.1782   -4.1019   -2.9333 C.3       1 <0>         0.0544
     14 C11         5.0210   -3.0002   -3.5791 C.3       1 <0>         0.0626
     15 O4          6.0448   -2.5894   -2.6708 O.3       1 <0>        -0.3848
     16 C12         6.8933   -1.5581   -3.1792 C.3       1 <0>         0.0309
     17 N1          1.6146   -7.9009   -1.1583 N.ar      1 <0>        -0.5426
     18 C13         0.8310   -8.6986   -0.4725 C.ar      1 <0>         0.3422
     19 N2          0.1465   -8.2987    0.5874 N.ar      1 <0>        -0.5807
     20 C14         0.2146   -7.0483    1.0253 C.ar      1 <0>         0.4641
     21 N3         -0.5043   -6.6451    2.1328 N.pl3     1 <0>        -0.6417
     22 C15        -1.2223   -7.5837    2.8797 C.ar      1 <0>         0.1534
     23 C16        -2.4417   -7.2339    3.4483 C.ar      1 <0>        -0.1365
     24 C17        -3.1548   -8.1581    4.1879 C.ar      1 <0>        -0.0976
     25 C18        -2.6612   -9.4349    4.3666 C.ar      1 <0>        -0.1098
     26 C19        -1.4382   -9.7960    3.7995 C.ar      1 <0>         0.0290
     27 C20        -0.7210   -8.8652    3.0488 C.ar      1 <0>        -0.0846
     28 C21        -0.9239  -11.1197    3.9839 C.1       1 <0>        -0.1518
     29 C22        -0.5023  -12.2049    4.1351 C.1       1 <0>        -0.1689
     30 H1          2.3858    1.6300    0.9737 H         1 <0>         0.0438
     31 H2          0.9034    1.9430    0.0394 H         1 <0>         0.0882
     32 H3          0.8182    1.7554    1.8074 H         1 <0>         0.0421
     33 H4          2.7069   -0.6059    1.9138 H         1 <0>         0.0642
     34 H5          1.1392   -0.4804    2.7476 H         1 <0>         0.0738
     35 H6          1.6782   -2.8442    2.4078 H         1 <0>         0.0797
     36 H7          0.3045   -2.4047    1.3647 H         1 <0>         0.0731
     37 H8          0.6320   -4.4344    1.5804 H         1 <0>         0.1376
     38 H9          3.1329   -6.0870   -2.3754 H         1 <0>         0.1546
     39 H10         4.8282   -4.9164   -2.6138 H         1 <0>         0.0783
     40 H11         3.4545   -4.4770   -3.6569 H         1 <0>         0.0849
     41 H12         5.4773   -3.3804   -4.4931 H         1 <0>         0.0752
     42 H13         4.3841   -2.1485   -3.8181 H         1 <0>         0.0638
     43 H14         6.2953   -0.6764   -3.4098 H         1 <0>         0.0434
     44 H15         7.6433   -1.3027   -2.4306 H         1 <0>         0.0879
     45 H16         7.3884   -1.9084   -4.0848 H         1 <0>         0.0424
     46 H17         0.7401   -9.7278   -0.7869 H         1 <0>         0.1966
     47 H18        -0.5113   -5.7106    2.3927 H         1 <0>         0.4197
     48 H19        -2.8329   -6.2365    3.3119 H         1 <0>         0.1281
     49 H20        -4.1012   -7.8805    4.6278 H         1 <0>         0.1331
     50 H21        -3.2213  -10.1542    4.9456 H         1 <0>         0.1284
     51 H22         0.2239   -9.1405    2.6039 H         1 <0>         0.1386
     52 H23        -0.1252  -13.1754    4.2703 H         1 <0>         0.2249
@<TRIPOS>BOND
     1    1    2 1
     2    1   30 1
     3    1   31 1
     4    1   32 1
     5    2    3 1
     6    3    4 1
     7    3   33 1
     8    3   34 1
     9    4    5 1
    10    4   35 1
    11    4   36 1
    12    5    6 1
    13    6   11 ar
    14    6    7 ar
    15    7    8 ar
    16    7   37 1
    17    8   20 ar
    18    8    9 ar
    19    9   10 ar
    20    9   17 ar
    21   10   11 ar
    22   10   38 1
    23   11   12 1
    24   12   13 1
    25   13   14 1
    26   13   39 1
    27   13   40 1
    28   14   15 1
    29   14   41 1
    30   14   42 1
    31   15   16 1
    32   16   43 1
    33   16   44 1
    34   16   45 1
    35   17   18 ar
    36   18   19 ar
    37   18   46 1
    38   19   20 ar
    39   20   21 1
    40   21   22 1
    41   21   47 1
    42   22   27 ar
    43   22   23 ar
    44   23   24 ar
    45   23   48 1
    46   24   25 ar
    47   24   49 1
    48   25   26 ar
    49   25   50 1
    50   26   27 ar
    51   26   28 1
    52   27   51 1
    53   28   29 3
    54   29   52 1
@<TRIPOS>MOLECULE
ZINC23247639
   69    72     0     0     0
SMALL
USER_CHARGES
1-[4-[(4-ethylpiperazin-1-yl)methyl]-3-(trifluoromethyl)phenyl]-3-[4-(6-methylaminopyrimidin-4-yl)oxyphenyl]urea
@<TRIPOS>ATOM
      1 C1          8.9417    3.3719    8.2172 C.3       1 <0>        -0.1901
      2 C2         10.1498    2.9102    7.3997 C.3       1 <0>        -0.0070
      3 N1          9.9972    3.3533    6.0075 N.4       1 <0>        -0.4011
      4 C3         11.2367    3.1387    5.2477 C.3       1 <0>         0.0016
      5 C4         11.0629    3.6845    3.8284 C.3       1 <0>         0.0271
      6 N2          9.9288    3.0094    3.1822 N.3       1 <0>        -0.5300
      7 C5          8.6893    3.2240    3.9420 C.3       1 <0>         0.0232
      8 C6          8.8631    2.6781    5.3612 C.3       1 <0>        -0.0016
      9 C7          9.7762    3.4524    1.7899 C.3       1 <0>         0.0786
     10 C8          8.7879    2.5601    1.0842 C.ar      1 <0>        -0.0666
     11 C9          7.5022    3.0092    0.8434 C.ar      1 <0>        -0.0932
     12 C10         6.5958    2.1959    0.1923 C.ar      1 <0>        -0.0888
     13 C11         6.9731    0.9214   -0.2106 C.ar      1 <0>         0.1880
     14 C12         8.2646    0.4735    0.0326 C.ar      1 <0>        -0.1043
     15 C13         9.1683    1.2940    0.6793 C.ar      1 <0>        -0.1369
     16 C14        10.5702    0.8086    0.9441 C.3       1 <0>         0.5111
     17 F1         10.7250   -0.4786    0.4184 F         1 <0>        -0.1776
     18 F2         11.4860    1.6739    0.3362 F         1 <0>        -0.1774
     19 F3         10.8008    0.7797    2.3237 F         1 <0>        -0.1628
     20 N3          6.0552    0.0926   -0.8655 N.am      1 <0>        -0.6979
     21 C15         4.7513    0.1311   -0.5266 C.2       1 <0>         0.7117
     22 O1          4.3858    0.8194    0.4067 O.2       1 <0>        -0.5623
     23 N4          3.8526   -0.5934   -1.2222 N.am      1 <0>        -0.6900
     24 C16         2.4863   -0.4790   -0.9335 C.ar      1 <0>         0.1635
     25 C17         1.5516   -0.5518   -1.9576 C.ar      1 <0>        -0.1265
     26 C18         0.2052   -0.4394   -1.6724 C.ar      1 <0>        -0.0923
     27 C19        -0.2137   -0.2543   -0.3628 C.ar      1 <0>         0.0841
     28 C20         0.7198   -0.1815    0.6609 C.ar      1 <0>        -0.0957
     29 C21         2.0665   -0.2932    0.3769 C.ar      1 <0>        -0.1058
     30 O2         -1.5393   -0.1385   -0.0833 O.3       1 <0>        -0.2424
     31 C22        -2.3129   -1.2454   -0.1983 C.ar      1 <0>         0.3836
     32 C23        -3.6894   -1.1637   -0.0277 C.ar      1 <0>        -0.3134
     33 C24        -4.4409   -2.3284   -0.1601 C.ar      1 <0>         0.4631
     34 N5         -3.8165   -3.4721   -0.4341 N.ar      1 <0>        -0.5936
     35 C25        -2.5082   -3.5081   -0.5840 C.ar      1 <0>         0.3760
     36 N6         -1.7644   -2.4263   -0.4707 N.ar      1 <0>        -0.6039
     37 N7         -5.8178   -2.2988   -0.0034 N.pl3     1 <0>        -0.7218
     38 C26        -6.4937   -1.0344    0.2979 C.3       1 <0>         0.0891
     39 H1          9.0560    3.0401    9.2597 H         1 <0>         0.1066
     40 H2          8.0243    2.9380    7.7928 H         1 <0>         0.0798
     41 H3          8.8763    4.4695    8.1868 H         1 <0>         0.0803
     42 H4         11.0672    3.3441    7.8241 H         1 <0>         0.1306
     43 H5         10.2153    1.8126    7.4301 H         1 <0>         0.1269
     44 H6         12.0665    3.6630    5.7442 H         1 <0>         0.1361
     45 H7         11.4577    2.0621    5.2031 H         1 <0>         0.1357
     46 H8         10.8699    4.7665    3.8728 H         1 <0>         0.0625
     47 H9         11.9796    3.4990    3.2494 H         1 <0>         0.1239
     48 H10         8.4684    4.3007    3.9867 H         1 <0>         0.0621
     49 H11         7.8594    2.6998    3.4455 H         1 <0>         0.1239
     50 H12         9.0569    1.5962    5.3178 H         1 <0>         0.1351
     51 H13         7.9470    2.8635    5.9412 H         1 <0>         0.1359
     52 H14         9.4106    4.4897    1.7732 H         1 <0>         0.0663
     53 H15        10.7489    3.3982    1.2791 H         1 <0>         0.1073
     54 H16         7.2082    3.9988    1.1607 H         1 <0>         0.1358
     55 H17         5.5933    2.5489    0.0003 H         1 <0>         0.1466
     56 H18         8.5625   -0.5152   -0.2838 H         1 <0>         0.1447
     57 H19         6.3979   -0.5903   -1.6569 H         1 <0>         0.4387
     58 H20         4.1917   -1.2745   -2.0166 H         1 <0>         0.4355
     59 H21         1.8775   -0.6959   -2.9771 H         1 <0>         0.1334
     60 H22        -0.5220   -0.4960   -2.4689 H         1 <0>         0.1303
     61 H23         0.3932   -0.0371    1.6801 H         1 <0>         0.1327
     62 H24         2.7931   -0.2369    1.1740 H         1 <0>         0.1442
     63 H25        -4.1646   -0.2205    0.1982 H         1 <0>         0.1466
     64 H26        -2.0315   -4.4515   -0.8058 H         1 <0>         0.2000
     65 H27        -6.4030   -3.2246   -0.1053 H         1 <0>         0.4376
     66 H28        -7.5762   -1.2091    0.3856 H         1 <0>         0.0864
     67 H29        -6.3028   -0.3146   -0.5117 H         1 <0>         0.0603
     68 H30        -6.1096   -0.6302    1.2461 H         1 <0>         0.0599
     69 H31         9.7882    4.4332    6.0188 H         1 <0>         0.4364
@<TRIPOS>BOND
     1    1    2 1
     2    1   39 1
     3    1   40 1
     4    1   41 1
     5    2    3 1
     6    2   42 1
     7    2   43 1
     8    3    8 1
     9    3    4 1
    10    3   69 1
    11    4    5 1
    12    4   44 1
    13    4   45 1
    14    5    6 1
    15    5   46 1
    16    5   47 1
    17    6    7 1
    18    6    9 1
    19    7    8 1
    20    7   48 1
    21    7   49 1
    22    8   50 1
    23    8   51 1
    24    9   10 1
    25    9   52 1
    26    9   53 1
    27   10   15 ar
    28   10   11 ar
    29   11   12 ar
    30   11   54 1
    31   12   13 ar
    32   12   55 1
    33   13   14 ar
    34   13   20 1
    35   14   15 ar
    36   14   56 1
    37   15   16 1
    38   16   17 1
    39   16   18 1
    40   16   19 1
    41   20   21 am
    42   20   57 1
    43   21   22 2
    44   21   23 am
    45   23   24 1
    46   23   58 1
    47   24   29 ar
    48   24   25 ar
    49   25   26 ar
    50   25   59 1
    51   26   27 ar
    52   26   60 1
    53   27   28 ar
    54   27   30 1
    55   28   29 ar
    56   28   61 1
    57   29   62 1
    58   30   31 1
    59   31   36 ar
    60   31   32 ar
    61   32   33 ar
    62   32   63 1
    63   33   34 ar
    64   33   37 1
    65   34   35 ar
    66   35   36 ar
    67   35   64 1
    68   37   38 1
    69   37   65 1
    70   38   66 1
    71   38   67 1
    72   38   68 1
@<TRIPOS>MOLECULE
ZINC23247639
   69    72     0     0     0
SMALL
USER_CHARGES
1-[4-[(4-ethylpiperazin-1-yl)methyl]-3-(trifluoromethyl)phenyl]-3-[4-(6-methylaminopyrimidin-4-yl)oxyphenyl]urea
@<TRIPOS>ATOM
      1 C1          8.9417    3.3719    8.2172 C.3       1 <0>        -0.1569
      2 C2         10.1498    2.9102    7.3997 C.3       1 <0>         0.0486
      3 N1          9.9972    3.3533    6.0075 N.3       1 <0>        -0.5379
      4 C3         11.2367    3.1387    5.2477 C.3       1 <0>         0.0250
      5 C4         11.0629    3.6845    3.8284 C.3       1 <0>         0.0004
      6 N2          9.9288    3.0094    3.1822 N.4       1 <0>        -0.4202
      7 C5          8.6893    3.2240    3.9420 C.3       1 <0>        -0.0009
      8 C6          8.8631    2.6781    5.3612 C.3       1 <0>         0.0222
      9 C7          9.7762    3.4524    1.7899 C.3       1 <0>         0.0266
     10 C8          8.7879    2.5601    1.0842 C.ar      1 <0>        -0.1272
     11 C9          7.5022    3.0092    0.8434 C.ar      1 <0>        -0.0630
     12 C10         6.5958    2.1959    0.1923 C.ar      1 <0>        -0.0846
     13 C11         6.9731    0.9214   -0.2106 C.ar      1 <0>         0.2154
     14 C12         8.2646    0.4735    0.0326 C.ar      1 <0>        -0.0955
     15 C13         9.1683    1.2940    0.6793 C.ar      1 <0>        -0.1507
     16 C14        10.5702    0.8086    0.9441 C.3       1 <0>         0.5109
     17 F1         10.7250   -0.4786    0.4184 F         1 <0>        -0.1491
     18 F2         11.4860    1.6739    0.3362 F         1 <0>        -0.1584
     19 F3         10.8008    0.7797    2.3237 F         1 <0>        -0.1724
     20 N3          6.0552    0.0926   -0.8655 N.am      1 <0>        -0.6988
     21 C15         4.7513    0.1311   -0.5266 C.2       1 <0>         0.7114
     22 O1          4.3858    0.8194    0.4067 O.2       1 <0>        -0.5584
     23 N4          3.8526   -0.5934   -1.2222 N.am      1 <0>        -0.6858
     24 C16         2.4863   -0.4790   -0.9335 C.ar      1 <0>         0.1577
     25 C17         1.5516   -0.5518   -1.9576 C.ar      1 <0>        -0.1240
     26 C18         0.2052   -0.4394   -1.6724 C.ar      1 <0>        -0.0926
     27 C19        -0.2137   -0.2543   -0.3628 C.ar      1 <0>         0.0883
     28 C20         0.7198   -0.1815    0.6609 C.ar      1 <0>        -0.0957
     29 C21         2.0665   -0.2932    0.3769 C.ar      1 <0>        -0.1046
     30 O2         -1.5393   -0.1385   -0.0833 O.3       1 <0>        -0.2426
     31 C22        -2.3129   -1.2454   -0.1983 C.ar      1 <0>         0.3832
     32 C23        -3.6894   -1.1637   -0.0277 C.ar      1 <0>        -0.3126
     33 C24        -4.4409   -2.3284   -0.1601 C.ar      1 <0>         0.4635
     34 N5         -3.8165   -3.4721   -0.4341 N.ar      1 <0>        -0.5931
     35 C25        -2.5082   -3.5081   -0.5840 C.ar      1 <0>         0.3762
     36 N6         -1.7644   -2.4263   -0.4707 N.ar      1 <0>        -0.6049
     37 N7         -5.8178   -2.2988   -0.0034 N.pl3     1 <0>        -0.7212
     38 C26        -6.4937   -1.0344    0.2979 C.3       1 <0>         0.0887
     39 H1          9.0560    3.0401    9.2597 H         1 <0>         0.0714
     40 H2          8.0243    2.9380    7.7928 H         1 <0>         0.0562
     41 H3          8.8763    4.4695    8.1868 H         1 <0>         0.0696
     42 H4         11.0672    3.3441    7.8241 H         1 <0>         0.0895
     43 H5         10.2153    1.8126    7.4301 H         1 <0>         0.0455
     44 H6         12.0665    3.6630    5.7442 H         1 <0>         0.1253
     45 H7         11.4577    2.0621    5.2031 H         1 <0>         0.0582
     46 H8         10.8699    4.7665    3.8728 H         1 <0>         0.1369
     47 H9         11.9796    3.4990    3.2494 H         1 <0>         0.1329
     48 H10         8.4684    4.3007    3.9867 H         1 <0>         0.1355
     49 H11         7.8594    2.6998    3.4455 H         1 <0>         0.1312
     50 H12         9.0569    1.5962    5.3178 H         1 <0>         0.0572
     51 H13         7.9470    2.8635    5.9412 H         1 <0>         0.1266
     52 H14         9.4106    4.4897    1.7732 H         1 <0>         0.1472
     53 H15        10.7489    3.3982    1.2791 H         1 <0>         0.1420
     54 H16         7.2082    3.9988    1.1607 H         1 <0>         0.1512
     55 H17         5.5933    2.5489    0.0003 H         1 <0>         0.1583
     56 H18         8.5625   -0.5152   -0.2838 H         1 <0>         0.1556
     57 H19         6.3979   -0.5903   -1.6569 H         1 <0>         0.4440
     58 H20         4.1917   -1.2745   -2.0166 H         1 <0>         0.4371
     59 H21         1.8775   -0.6959   -2.9771 H         1 <0>         0.1338
     60 H22        -0.5220   -0.4960   -2.4689 H         1 <0>         0.1313
     61 H23         0.3932   -0.0371    1.6801 H         1 <0>         0.1341
     62 H24         2.7931   -0.2369    1.1740 H         1 <0>         0.1440
     63 H25        -4.1646   -0.2205    0.1982 H         1 <0>         0.1470
     64 H26        -2.0315   -4.4515   -0.8058 H         1 <0>         0.2001
     65 H27        -6.4030   -3.2246   -0.1053 H         1 <0>         0.4380
     66 H28        -7.5762   -1.2091    0.3856 H         1 <0>         0.0868
     67 H29        -6.3028   -0.3146   -0.5117 H         1 <0>         0.0604
     68 H30        -6.1096   -0.6302    1.2461 H         1 <0>         0.0603
     69 H31        10.1379    1.9295    3.1711 H         1 <0>         0.4253
@<TRIPOS>BOND
     1    1    2 1
     2    1   39 1
     3    1   40 1
     4    1   41 1
     5    2    3 1
     6    2   42 1
     7    2   43 1
     8    3    8 1
     9    3    4 1
    10    4    5 1
    11    4   44 1
    12    4   45 1
    13    5    6 1
    14    5   46 1
    15    5   47 1
    16    6    7 1
    17    6    9 1
    18    6   69 1
    19    7    8 1
    20    7   48 1
    21    7   49 1
    22    8   50 1
    23    8   51 1
    24    9   10 1
    25    9   52 1
    26    9   53 1
    27   10   15 ar
    28   10   11 ar
    29   11   12 ar
    30   11   54 1
    31   12   13 ar
    32   12   55 1
    33   13   14 ar
    34   13   20 1
    35   14   15 ar
    36   14   56 1
    37   15   16 1
    38   16   17 1
    39   16   18 1
    40   16   19 1
    41   20   21 am
    42   20   57 1
    43   21   22 2
    44   21   23 am
    45   23   24 1
    46   23   58 1
    47   24   29 ar
    48   24   25 ar
    49   25   26 ar
    50   25   59 1
    51   26   27 ar
    52   26   60 1
    53   27   28 ar
    54   27   30 1
    55   28   29 ar
    56   28   61 1
    57   29   62 1
    58   30   31 1
    59   31   36 ar
    60   31   32 ar
    61   32   33 ar
    62   32   63 1
    63   33   34 ar
    64   33   37 1
    65   34   35 ar
    66   35   36 ar
    67   35   64 1
    68   37   38 1
    69   37   65 1
    70   38   66 1
    71   38   67 1
    72   38   68 1
@<TRIPOS>MOLECULE
ZINC23247639
   68    71     0     0     0
SMALL
USER_CHARGES
1-[4-[(4-ethylpiperazin-1-yl)methyl]-3-(trifluoromethyl)phenyl]-3-[4-(6-methylaminopyrimidin-4-yl)oxyphenyl]urea
@<TRIPOS>ATOM
      1 C1          8.9417    3.3719    8.2172 C.3       1 <0>        -0.1510
      2 C2         10.1498    2.9102    7.3997 C.3       1 <0>         0.0499
      3 N1          9.9972    3.3533    6.0075 N.3       1 <0>        -0.5402
      4 C3         11.2367    3.1387    5.2477 C.3       1 <0>         0.0569
      5 C4         11.0629    3.6845    3.8284 C.3       1 <0>         0.0590
      6 N2          9.9288    3.0094    3.1822 N.3       1 <0>        -0.5268
      7 C5          8.6893    3.2240    3.9420 C.3       1 <0>         0.0561
      8 C6          8.8631    2.6781    5.3612 C.3       1 <0>         0.0550
      9 C7          9.7762    3.4524    1.7899 C.3       1 <0>         0.0729
     10 C8          8.7879    2.5601    1.0842 C.ar      1 <0>        -0.0447
     11 C9          7.5022    3.0092    0.8434 C.ar      1 <0>        -0.0942
     12 C10         6.5958    2.1959    0.1923 C.ar      1 <0>        -0.0884
     13 C11         6.9731    0.9214   -0.2106 C.ar      1 <0>         0.1720
     14 C12         8.2646    0.4735    0.0326 C.ar      1 <0>        -0.1038
     15 C13         9.1683    1.2940    0.6793 C.ar      1 <0>        -0.1404
     16 C14        10.5702    0.8086    0.9441 C.3       1 <0>         0.5095
     17 F1         10.7250   -0.4786    0.4184 F         1 <0>        -0.1841
     18 F2         11.4860    1.6739    0.3362 F         1 <0>        -0.1795
     19 F3         10.8008    0.7797    2.3237 F         1 <0>        -0.1519
     20 N3          6.0552    0.0926   -0.8655 N.am      1 <0>        -0.6948
     21 C15         4.7513    0.1311   -0.5266 C.2       1 <0>         0.7096
     22 O1          4.3858    0.8194    0.4067 O.2       1 <0>        -0.5587
     23 N4          3.8526   -0.5934   -1.2222 N.am      1 <0>        -0.6930
     24 C16         2.4863   -0.4790   -0.9335 C.ar      1 <0>         0.1697
     25 C17         1.5516   -0.5518   -1.9576 C.ar      1 <0>        -0.1297
     26 C18         0.2052   -0.4394   -1.6724 C.ar      1 <0>        -0.0930
     27 C19        -0.2137   -0.2543   -0.3628 C.ar      1 <0>         0.0783
     28 C20         0.7198   -0.1815    0.6609 C.ar      1 <0>        -0.0936
     29 C21         2.0665   -0.2932    0.3769 C.ar      1 <0>        -0.1059
     30 O2         -1.5393   -0.1385   -0.0833 O.3       1 <0>        -0.2412
     31 C22        -2.3129   -1.2454   -0.1983 C.ar      1 <0>         0.3851
     32 C23        -3.6894   -1.1637   -0.0277 C.ar      1 <0>        -0.3141
     33 C24        -4.4409   -2.3284   -0.1601 C.ar      1 <0>         0.4620
     34 N5         -3.8165   -3.4721   -0.4341 N.ar      1 <0>        -0.5954
     35 C25        -2.5082   -3.5081   -0.5840 C.ar      1 <0>         0.3753
     36 N6         -1.7644   -2.4263   -0.4707 N.ar      1 <0>        -0.6017
     37 N7         -5.8178   -2.2988   -0.0034 N.pl3     1 <0>        -0.7231
     38 C26        -6.4937   -1.0344    0.2979 C.3       1 <0>         0.0898
     39 H1          9.0560    3.0401    9.2597 H         1 <0>         0.0595
     40 H2          8.0243    2.9380    7.7928 H         1 <0>         0.0547
     41 H3          8.8763    4.4695    8.1868 H         1 <0>         0.0631
     42 H4         11.0672    3.3441    7.8241 H         1 <0>         0.0746
     43 H5         10.2153    1.8126    7.4301 H         1 <0>         0.0335
     44 H6         12.0665    3.6630    5.7442 H         1 <0>         0.0800
     45 H7         11.4577    2.0621    5.2031 H         1 <0>         0.0441
     46 H8         10.8699    4.7665    3.8728 H         1 <0>         0.0445
     47 H9         11.9796    3.4990    3.2494 H         1 <0>         0.0809
     48 H10         8.4684    4.3007    3.9867 H         1 <0>         0.0435
     49 H11         7.8594    2.6998    3.4455 H         1 <0>         0.0808
     50 H12         9.0569    1.5962    5.3178 H         1 <0>         0.0425
     51 H13         7.9470    2.8635    5.9412 H         1 <0>         0.0819
     52 H14         9.4106    4.4897    1.7732 H         1 <0>         0.0550
     53 H15        10.7489    3.3982    1.2791 H         1 <0>         0.0962
     54 H16         7.2082    3.9988    1.1607 H         1 <0>         0.1355
     55 H17         5.5933    2.5489    0.0003 H         1 <0>         0.1427
     56 H18         8.5625   -0.5152   -0.2838 H         1 <0>         0.1409
     57 H19         6.3979   -0.5903   -1.6569 H         1 <0>         0.4343
     58 H20         4.1917   -1.2745   -2.0166 H         1 <0>         0.4332
     59 H21         1.8775   -0.6959   -2.9771 H         1 <0>         0.1323
     60 H22        -0.5220   -0.4960   -2.4689 H         1 <0>         0.1282
     61 H23         0.3932   -0.0371    1.6801 H         1 <0>         0.1328
     62 H24         2.7931   -0.2369    1.1740 H         1 <0>         0.1466
     63 H25        -4.1646   -0.2205    0.1982 H         1 <0>         0.1463
     64 H26        -2.0315   -4.4515   -0.8058 H         1 <0>         0.1996
     65 H27        -6.4030   -3.2246   -0.1053 H         1 <0>         0.4362
     66 H28        -7.5762   -1.2091    0.3856 H         1 <0>         0.0851
     67 H29        -6.3028   -0.3146   -0.5117 H         1 <0>         0.0598
     68 H30        -6.1096   -0.6302    1.2461 H         1 <0>         0.0599
@<TRIPOS>BOND
     1    1    2 1
     2    1   39 1
     3    1   40 1
     4    1   41 1
     5    2    3 1
     6    2   42 1
     7    2   43 1
     8    3    8 1
     9    3    4 1
    10    4    5 1
    11    4   44 1
    12    4   45 1
    13    5    6 1
    14    5   46 1
    15    5   47 1
    16    6    7 1
    17    6    9 1
    18    7    8 1
    19    7   48 1
    20    7   49 1
    21    8   50 1
    22    8   51 1
    23    9   10 1
    24    9   52 1
    25    9   53 1
    26   10   15 ar
    27   10   11 ar
    28   11   12 ar
    29   11   54 1
    30   12   13 ar
    31   12   55 1
    32   13   14 ar
    33   13   20 1
    34   14   15 ar
    35   14   56 1
    36   15   16 1
    37   16   17 1
    38   16   18 1
    39   16   19 1
    40   20   21 am
    41   20   57 1
    42   21   22 2
    43   21   23 am
    44   23   24 1
    45   23   58 1
    46   24   29 ar
    47   24   25 ar
    48   25   26 ar
    49   25   59 1
    50   26   27 ar
    51   26   60 1
    52   27   28 ar
    53   27   30 1
    54   28   29 ar
    55   28   61 1
    56   29   62 1
    57   30   31 1
    58   31   36 ar
    59   31   32 ar
    60   32   33 ar
    61   32   63 1
    62   33   34 ar
    63   33   37 1
    64   34   35 ar
    65   35   36 ar
    66   35   64 1
    67   37   38 1
    68   37   65 1
    69   38   66 1
    70   38   67 1
    71   38   68 1
@<TRIPOS>MOLECULE
ZINC13982572
   63    67     0     0     0
SMALL
USER_CHARGES
2-[[(2S)-2-amino-3-phenyl-propyl]amino]-3-methyl-5-(2-naphthyl)-6-(4-pyridyl)pyrimidin-4-one
@<TRIPOS>ATOM
      1 C1          3.7379    1.8574    0.2820 C.3       1 <0>         0.0513
      2 N1          2.4027    1.2728    0.1350 N.am      1 <0>        -0.5413
      3 C2          1.3112    2.0637    0.2032 C.2       1 <0>         0.5441
      4 O1          1.4231    3.2640    0.3865 O.2       1 <0>        -0.5009
      5 C3          0.0327    1.4710    0.0571 C.2       1 <0>        -0.2220
      6 C4         -0.0402    0.0903   -0.1517 C.2       1 <0>         0.2617
      7 N2          1.0863   -0.6294   -0.2077 N.2       1 <0>        -0.5652
      8 C5          2.2676   -0.0657   -0.0703 C.2       1 <0>         0.6304
      9 N3          3.3906   -0.8468   -0.1353 N.pl3     1 <0>        -0.7284
     10 C6          3.2673   -2.2899   -0.3551 C.3       1 <0>         0.1129
     11 C7          4.6603   -2.9220   -0.3856 C.3       1 <0>         0.0270
     12 H1          5.2115   -2.5451   -1.2471 H         1 <0>         0.1520
     13 C8          4.5282   -4.4427   -0.4902 C.3       1 <0>        -0.0916
     14 C9          5.8960   -5.0563   -0.6438 C.ar      1 <0>        -0.1315
     15 C10         6.4277   -5.2530   -1.9045 C.ar      1 <0>        -0.1032
     16 C11         7.6844   -5.8115   -2.0453 C.ar      1 <0>        -0.1058
     17 C12         8.4050   -6.1829   -0.9256 C.ar      1 <0>        -0.1011
     18 C13         7.8712   -5.9910    0.3350 C.ar      1 <0>        -0.1083
     19 C14         6.6167   -5.4277    0.4759 C.ar      1 <0>        -0.1389
     20 C15        -1.3562   -0.5713   -0.3092 C.ar      1 <0>        -0.0071
     21 C16        -1.6676   -1.7317    0.4070 C.ar      1 <0>        -0.1371
     22 C17        -2.9075   -2.3129    0.2332 C.ar      1 <0>         0.0994
     23 N4         -3.7875   -1.7944   -0.6011 N.ar      1 <0>        -0.4701
     24 C18        -3.5325   -0.7049   -1.2992 C.ar      1 <0>         0.1069
     25 C19        -2.3196   -0.0563   -1.1828 C.ar      1 <0>        -0.1331
     26 C20        -1.1950    2.2937    0.1178 C.ar      1 <0>        -0.0189
     27 C21        -2.0973    2.1230    1.1828 C.ar      1 <0>        -0.0990
     28 C22        -3.2304    2.8661    1.2610 C.ar      1 <0>        -0.0990
     29 C23        -3.5149    3.8223    0.2688 C.ar      1 <0>        -0.0454
     30 C24        -4.6807    4.6040    0.3287 C.ar      1 <0>        -0.1072
     31 C25        -4.9288    5.5214   -0.6460 C.ar      1 <0>        -0.1108
     32 C26        -4.0425    5.6999   -1.7066 C.ar      1 <0>        -0.1121
     33 C27        -2.9032    4.9613   -1.7985 C.ar      1 <0>        -0.1065
     34 C28        -2.6131    4.0033   -0.8104 C.ar      1 <0>        -0.0487
     35 C29        -1.4441    3.2298   -0.8713 C.ar      1 <0>        -0.0786
     36 H2          4.1146    2.1536   -0.6970 H         1 <0>         0.0876
     37 H3          3.6821    2.7323    0.9297 H         1 <0>         0.1099
     38 H4          4.4103    1.1214    0.7226 H         1 <0>         0.0715
     39 H5          4.2676   -0.4445   -0.0357 H         1 <0>         0.4041
     40 H6          2.6853   -2.7322    0.4534 H         1 <0>         0.1086
     41 H7          2.7652   -2.4711   -1.3055 H         1 <0>         0.1254
     42 H8          4.0559   -4.8293    0.4129 H         1 <0>         0.1051
     43 H9          3.9172   -4.6956   -1.3566 H         1 <0>         0.1280
     44 H10         5.8628   -4.9670   -2.7794 H         1 <0>         0.1305
     45 H11         8.1013   -5.9618   -3.0301 H         1 <0>         0.1331
     46 H12         9.3850   -6.6233   -1.0357 H         1 <0>         0.1327
     47 H13         8.4340   -6.2815    1.2098 H         1 <0>         0.1320
     48 H14         6.1994   -5.2781    1.4608 H         1 <0>         0.1224
     49 H15         4.8906   -2.9155    1.6602 H         1 <0>         0.4394
     50 H16         6.3273   -2.9282    0.8226 H         1 <0>         0.4425
     51 H17        -0.9501   -2.1643    1.0885 H         1 <0>         0.1358
     52 H18        -3.1587   -3.2069    0.7845 H         1 <0>         0.1607
     53 H19        -4.2826   -0.3151   -1.9713 H         1 <0>         0.1619
     54 H20        -2.1177    0.8357   -1.7572 H         1 <0>         0.1383
     55 H21        -1.8857    1.3914    1.9485 H         1 <0>         0.1166
     56 H22        -3.9135    2.7238    2.0853 H         1 <0>         0.1290
     57 H23        -5.3768    4.4778    1.1446 H         1 <0>         0.1285
     58 H24        -5.8261    6.1204   -0.5964 H         1 <0>         0.1257
     59 H25        -4.2633    6.4346   -2.4668 H         1 <0>         0.1255
     60 H26        -2.2254    5.1098   -2.6261 H         1 <0>         0.1266
     61 H27        -0.7464    3.3608   -1.6852 H         1 <0>         0.1230
     62 N5          5.3811   -2.5514    0.8451 N.4       1 <0>        -0.6485
     63 H28         5.4296   -1.5280    0.9127 H         1 <0>         0.4306
@<TRIPOS>BOND
     1    1    2 1
     2    1   36 1
     3    1   37 1
     4    1   38 1
     5    2    8 1
     6    2    3 am
     7    3    4 2
     8    3    5 1
     9    5    6 2
    10    5   26 1
    11    6    7 1
    12    6   20 1
    13    7    8 2
    14    8    9 1
    15    9   10 1
    16    9   39 1
    17   10   11 1
    18   10   40 1
    19   10   41 1
    20   11   12 1
    21   11   13 1
    22   11   62 1
    23   13   14 1
    24   13   42 1
    25   13   43 1
    26   14   19 ar
    27   14   15 ar
    28   15   16 ar
    29   15   44 1
    30   16   17 ar
    31   16   45 1
    32   17   18 ar
    33   17   46 1
    34   18   19 ar
    35   18   47 1
    36   19   48 1
    37   20   25 ar
    38   20   21 ar
    39   21   22 ar
    40   21   51 1
    41   22   23 ar
    42   22   52 1
    43   23   24 ar
    44   24   25 ar
    45   24   53 1
    46   25   54 1
    47   26   35 ar
    48   26   27 ar
    49   27   28 ar
    50   27   55 1
    51   28   29 ar
    52   28   56 1
    53   29   34 ar
    54   29   30 ar
    55   30   31 ar
    56   30   57 1
    57   31   32 ar
    58   31   58 1
    59   32   33 ar
    60   32   59 1
    61   33   34 ar
    62   33   60 1
    63   34   35 ar
    64   35   61 1
    65   49   62 1
    66   50   62 1
    67   62   63 1
@<TRIPOS>MOLECULE
ZINC00007301
   28    30     0     0     0
SMALL
USER_CHARGES
4-[5-(4-fluorophenyl)-3H-imidazol-4-yl]pyridine
@<TRIPOS>ATOM
      1 C1         -0.0126    1.0758    0.0080 C.ar      1 <0>        -0.0609
      2 C2          1.1719    1.7829    0.0004 C.ar      1 <0>        -0.1530
      3 C3          1.1544    3.1684    0.0076 C.ar      1 <0>         0.1035
      4 C4         -0.0516    3.8505    0.0229 C.ar      1 <0>        -0.1516
      5 C5         -1.2414    3.1524    0.0314 C.ar      1 <0>        -0.0738
      6 C6         -1.2291    1.7578    0.0174 C.ar      1 <0>        -0.0195
      7 C7         -2.5040    1.0033    0.0193 C.2       1 <0>         0.0742
      8 C8         -3.6712    1.3683    0.6662 C.2       1 <0>         0.0152
      9 N1         -4.5870    0.3774    0.3922 N.pl3     1 <0>        -0.5598
     10 H1         -5.5334    0.3404    0.7130 H         1 <0>         0.4317
     11 C9         -3.9714   -0.5349   -0.3895 C.2       1 <0>         0.2081
     12 N2         -2.7423   -0.1605   -0.6126 N.2       1 <0>        -0.4786
     13 C10        -3.8906    2.5764    1.4845 C.ar      1 <0>         0.0270
     14 C11        -2.9469    2.9819    2.4379 C.ar      1 <0>        -0.1463
     15 C12        -3.1905    4.1199    3.1766 C.ar      1 <0>         0.1070
     16 N3         -4.2977    4.8171    3.0028 N.ar      1 <0>        -0.4807
     17 C13        -5.2147    4.4681    2.1198 C.ar      1 <0>         0.1063
     18 C14        -5.0512    3.3473    1.3343 C.ar      1 <0>        -0.1677
     19 F1          2.3170    3.8565   -0.0007 F         1 <0>        -0.1378
     20 H2          0.0021   -0.0041    0.0020 H         1 <0>         0.1386
     21 H3          2.1144    1.2557   -0.0114 H         1 <0>         0.1394
     22 H4         -0.0602    4.9304    0.0284 H         1 <0>         0.1381
     23 H5         -2.1809    3.6849    0.0436 H         1 <0>         0.1289
     24 H6         -4.4281   -1.4346   -0.7747 H         1 <0>         0.2163
     25 H7         -2.0409    2.4137    2.5887 H         1 <0>         0.1396
     26 H8         -2.4676    4.4427    3.9112 H         1 <0>         0.1618
     27 H9         -6.1056    5.0689    2.0116 H         1 <0>         0.1601
     28 H10        -5.8057    3.0678    0.6139 H         1 <0>         0.1338
@<TRIPOS>BOND
     1    1    6 ar
     2    1    2 ar
     3    1   20 1
     4    2    3 ar
     5    2   21 1
     6    3    4 ar
     7    3   19 1
     8    4    5 ar
     9    4   22 1
    10    5    6 ar
    11    5   23 1
    12    6    7 1
    13    7   12 1
    14    7    8 2
    15    8    9 1
    16    8   13 1
    17    9   10 1
    18    9   11 1
    19   11   12 2
    20   11   24 1
    21   13   18 ar
    22   13   14 ar
    23   14   15 ar
    24   14   25 1
    25   15   16 ar
    26   15   26 1
    27   16   17 ar
    28   17   18 ar
    29   17   27 1
    30   18   28 1
@<TRIPOS>MOLECULE
ZINC00007301
   29    31     0     0     0
SMALL
USER_CHARGES
4-[5-(4-fluorophenyl)-3H-imidazol-4-yl]pyridine
@<TRIPOS>ATOM
      1 C1         -0.0126    1.0758    0.0080 C.ar      1 <0>        -0.0620
      2 C2          1.1719    1.7829    0.0004 C.ar      1 <0>        -0.1474
      3 C3          1.1544    3.1684    0.0076 C.ar      1 <0>         0.1433
      4 C4         -0.0516    3.8505    0.0229 C.ar      1 <0>        -0.1465
      5 C5         -1.2414    3.1524    0.0314 C.ar      1 <0>        -0.0465
      6 C6         -1.2291    1.7578    0.0174 C.ar      1 <0>        -0.0854
      7 C7         -2.5040    1.0033    0.0193 C.2       1 <0>         0.1093
      8 C8         -3.6712    1.3683    0.6662 C.2       1 <0>         0.1083
      9 N1         -4.5870    0.3774    0.3922 N.pl3     1 <0>        -0.5069
     10 H1         -5.5334    0.3404    0.7130 H         1 <0>         0.4760
     11 C9         -3.9714   -0.5349   -0.3895 C.cat     1 <0>         0.3153
     12 C10        -3.8906    2.5764    1.4845 C.ar      1 <0>        -0.0221
     13 C11        -2.9469    2.9819    2.4379 C.ar      1 <0>        -0.1327
     14 C12        -3.1905    4.1199    3.1766 C.ar      1 <0>         0.1168
     15 N2         -4.2977    4.8171    3.0028 N.ar      1 <0>        -0.4577
     16 C13        -5.2147    4.4681    2.1198 C.ar      1 <0>         0.1168
     17 C14        -5.0512    3.3473    1.3343 C.ar      1 <0>        -0.1484
     18 F1          2.3170    3.8565   -0.0007 F         1 <0>        -0.1203
     19 H2          0.0021   -0.0041    0.0020 H         1 <0>         0.1381
     20 H3          2.1144    1.2557   -0.0114 H         1 <0>         0.1528
     21 H4         -0.0602    4.9304    0.0284 H         1 <0>         0.1528
     22 H5         -2.1809    3.6849    0.0436 H         1 <0>         0.1397
     23 H6         -4.4281   -1.4346   -0.7747 H         1 <0>         0.2704
     24 H7         -2.0409    2.4137    2.5887 H         1 <0>         0.1461
     25 H8         -2.4676    4.4427    3.9112 H         1 <0>         0.1721
     26 H9         -6.1056    5.0689    2.0116 H         1 <0>         0.1715
     27 H10        -5.8057    3.0678    0.6139 H         1 <0>         0.1425
     28 N3         -2.7419   -0.1608   -0.6129 N.pl3     1 <0>        -0.4793
     29 H11        -2.0605   -0.6752   -1.1833 H         1 <0>         0.4836
@<TRIPOS>BOND
     1    1    6 ar
     2    1    2 ar
     3    1   19 1
     4    2    3 ar
     5    2   20 1
     6    3    4 ar
     7    3   18 1
     8    4    5 ar
     9    4   21 1
    10    5    6 ar
    11    5   22 1
    12    6    7 1
    13    7    8 2
    14    7   28 1
    15    8    9 1
    16    8   12 1
    17    9   10 1
    18    9   11 1
    19   11   23 1
    20   11   28 2
    21   12   17 ar
    22   12   13 ar
    23   13   14 ar
    24   13   24 1
    25   14   15 ar
    26   14   25 1
    27   15   16 ar
    28   16   17 ar
    29   16   26 1
    30   17   27 1
    31   28   29 1
@<TRIPOS>MOLECULE
ZINC04335977
   25    28     0     0     0
SMALL
USER_CHARGES

@<TRIPOS>ATOM
      1 C1         -0.0166    1.3742    0.0096 C.ar      1 <0>        -0.0830
      2 C2          1.1706    2.0916    0.0021 C.ar      1 <0>        -0.1243
      3 C3          2.3823    1.4397   -0.0153 C.ar      1 <0>        -0.0569
      4 C4          2.4281    0.0410   -0.0258 C.ar      1 <0>        -0.1454
      5 C5          1.2170   -0.6851   -0.0143 C.ar      1 <0>         0.0500
      6 C6          0.0021   -0.0041    0.0020 C.ar      1 <0>        -0.1088
      7 C7          1.2506   -2.1591   -0.0199 C.2       1 <0>         0.0730
      8 C8          2.5639   -2.7742   -0.0443 C.ar      1 <0>        -0.1429
      9 C9          3.7793   -2.1038   -0.0604 C.ar      1 <0>        -0.1081
     10 C10         4.9294   -2.8876   -0.0855 C.ar      1 <0>        -0.0580
     11 C11         4.7889   -4.2709   -0.0911 C.ar      1 <0>        -0.1027
     12 C12         3.5603   -4.9095   -0.0724 C.ar      1 <0>        -0.0703
     13 C13         2.3922   -4.1530   -0.0476 C.ar      1 <0>         0.0737
     14 N1          1.0342   -4.3134   -0.0236 N.pl3     1 <0>        -0.4208
     15 H1          0.5868   -5.1740   -0.0178 H         1 <0>         0.4498
     16 N2          0.4180   -3.1700   -0.0087 N.2       1 <0>        -0.2006
     17 C14         3.7440   -0.6349   -0.0491 C.2       1 <0>         0.4424
     18 O1          4.7754    0.0120   -0.0592 O.2       1 <0>        -0.4413
     19 H2         -0.9607    1.8984    0.0260 H         1 <0>         0.1352
     20 H3          1.1437    3.1712    0.0097 H         1 <0>         0.1350
     21 H4          3.3001    2.0089   -0.0212 H         1 <0>         0.1415
     22 H5         -0.9260   -0.5563    0.0084 H         1 <0>         0.1375
     23 H6          5.9084   -2.4317   -0.1006 H         1 <0>         0.1458
     24 H7          5.6823   -4.8774   -0.1113 H         1 <0>         0.1405
     25 H8          3.5088   -5.9882   -0.0775 H         1 <0>         0.1387
@<TRIPOS>BOND
     1    1    6 ar
     2    1    2 ar
     3    1   19 1
     4    2    3 ar
     5    2   20 1
     6    3    4 ar
     7    3   21 1
     8    4   17 1
     9    4    5 ar
    10    5    6 ar
    11    5    7 1
    12    6   22 1
    13    7   16 2
    14    7    8 1
    15    8   13 ar
    16    8    9 ar
    17    9   10 ar
    18    9   17 1
    19   10   11 ar
    20   10   23 1
    21   11   12 ar
    22   11   24 1
    23   12   13 ar
    24   12   25 1
    25   13   14 1
    26   14   15 1
    27   14   16 1
    28   17   18 2
@<TRIPOS>MOLECULE
ZINC04335977
   25    28     0     0     0
SMALL
USER_CHARGES

@<TRIPOS>ATOM
      1 C1         -0.0168    1.3856    0.0097 C.ar      1 <0>        -0.1427
      2 C2          1.1170    2.1945    0.0032 C.ar      1 <0>        -0.0217
      3 C3          2.3711    1.6150   -0.0018 C.ar      1 <0>        -0.1545
      4 C4          2.3811    0.2055    0.0219 C.ar      1 <0>        -0.1284
      5 C5          1.2547   -0.6338   -0.0010 C.ar      1 <0>        -0.0019
      6 C6          0.0021   -0.0041    0.0020 C.ar      1 <0>        -0.0002
      7 N1          1.7529   -1.8663   -0.0388 N.2       1 <0>        -0.2064
      8 N2          3.0585   -1.8827   -0.0212 N.2       1 <0>        -0.1750
      9 C7          3.5637   -0.6566    0.0553 C.2       1 <0>        -0.0804
     10 C8          4.8090   -0.0488    0.2082 C.2       1 <0>         0.1832
     11 C9          5.9893   -0.7697    0.0663 C.2       1 <0>        -0.1794
     12 C10         7.1922   -0.1305    0.0279 C.2       1 <0>         0.0175
     13 C11         7.2645    1.2786    0.0514 C.2       1 <0>        -0.1580
     14 C12         6.1810    2.0262    0.2746 C.2       1 <0>        -0.0648
     15 C13         4.8472    1.4205    0.5359 C.3       1 <0>        -0.1143
     16 H1          4.7113    1.4792    1.6158 H         1 <0>         0.1756
     17 C14         3.7065    2.2205   -0.0350 C.2       1 <0>         0.4372
     18 O1          3.8852    3.3247   -0.5044 O.2       1 <0>        -0.4218
     19 H2         -0.9802    1.8735    0.0262 H         1 <0>         0.1380
     20 H3          1.0162    3.2698    0.0017 H         1 <0>         0.1414
     21 H4         -0.9134   -0.5771   -0.0011 H         1 <0>         0.1493
     22 H5          5.9525   -1.8461   -0.0139 H         1 <0>         0.1574
     23 H6          8.1023   -0.7101   -0.0209 H         1 <0>         0.1503
     24 H7          8.2158    1.7622   -0.1141 H         1 <0>         0.1476
     25 H8          6.2755    3.1020    0.2656 H         1 <0>         0.1520
@<TRIPOS>BOND
     1    1    6 ar
     2    1    2 ar
     3    1   19 1
     4    2    3 ar
     5    2   20 1
     6    3   17 1
     7    3    4 ar
     8    4    9 1
     9    4    5 ar
    10    5    6 ar
    11    5    7 1
    12    6   21 1
    13    7    8 2
    14    8    9 1
    15    9   10 2
    16   10   15 1
    17   10   11 1
    18   11   12 2
    19   11   22 1
    20   12   13 1
    21   12   23 1
    22   13   14 2
    23   13   24 1
    24   14   15 1
    25   14   25 1
    26   15   16 1
    27   15   17 1
    28   17   18 2
@<TRIPOS>MOLECULE
ZINC04335977
   25    28     0     0     0
SMALL
USER_CHARGES

@<TRIPOS>ATOM
      1 C1         -0.0164    1.3596    0.0095 C.ar      1 <0>        -0.0576
      2 C2          1.1713    2.0855    0.0021 C.ar      1 <0>        -0.1347
      3 C3          2.3768    1.4549   -0.0120 C.ar      1 <0>        -0.0679
      4 C4          2.4386    0.0472   -0.0213 C.ar      1 <0>        -0.1308
      5 C5          1.2221   -0.6871   -0.0140 C.ar      1 <0>         0.1082
      6 C6          0.0021   -0.0041    0.0020 C.ar      1 <0>        -0.1288
      7 C7          1.2623   -2.1488   -0.0253 C.ar      1 <0>        -0.0283
      8 C8          2.5333   -2.7124   -0.0445 C.ar      1 <0>        -0.1739
      9 C9          3.7767   -1.9860   -0.0536 C.ar      1 <0>        -0.1204
     10 C10         3.7083   -0.5824   -0.0381 C.ar      1 <0>         0.2929
     11 O1          4.8379    0.1571   -0.0391 O.3       1 <0>        -0.4795
     12 C11         4.9469   -2.7593   -0.0757 C.ar      1 <0>         0.0289
     13 C12         4.8276   -4.1389   -0.0827 C.ar      1 <0>        -0.1839
     14 C13         3.6180   -4.8159   -0.0703 C.ar      1 <0>         0.1011
     15 C14         2.4158   -4.1083   -0.0517 C.ar      1 <0>        -0.0377
     16 N1          1.0921   -4.3196   -0.0378 N.2       1 <0>        -0.2189
     17 N2          0.4367   -3.1958   -0.0225 N.2       1 <0>        -0.1913
     18 H1         -0.9619    1.8814    0.0259 H         1 <0>         0.1383
     19 H2          1.1354    3.1649    0.0072 H         1 <0>         0.1360
     20 H3          3.2881    2.0345   -0.0163 H         1 <0>         0.1414
     21 H4         -0.9259   -0.5566    0.0089 H         1 <0>         0.1451
     22 H5          5.9191   -2.2892   -0.0875 H         1 <0>         0.1508
     23 H6          5.7348   -4.7247   -0.0991 H         1 <0>         0.1453
     24 H7          3.6062   -5.8959   -0.0754 H         1 <0>         0.1485
     25 H8          5.1739    0.3631    0.8439 H         1 <0>         0.4170
@<TRIPOS>BOND
     1    1    6 ar
     2    1    2 ar
     3    1   18 1
     4    2    3 ar
     5    2   19 1
     6    3    4 ar
     7    3   20 1
     8    4   10 ar
     9    4    5 ar
    10    5    6 ar
    11    5    7 ar
    12    6   21 1
    13    7   17 1
    14    7    8 ar
    15    8   15 ar
    16    8    9 ar
    17    9   10 ar
    18    9   12 ar
    19   10   11 1
    20   11   25 1
    21   12   13 ar
    22   12   22 1
    23   13   14 ar
    24   13   23 1
    25   14   15 ar
    26   14   24 1
    27   15   16 1
    28   16   17 2
@<TRIPOS>MOLECULE
ZINC04335977
   25    28     0     0     0
SMALL
USER_CHARGES

@<TRIPOS>ATOM
      1 C1         -0.0166    1.3716    0.0096 C.ar      1 <0>        -0.0800
      2 C2          1.1708    2.0918    0.0021 C.ar      1 <0>        -0.1245
      3 C3          2.3828    1.4428   -0.0127 C.ar      1 <0>        -0.0544
      4 C4          2.4320    0.0434   -0.0205 C.ar      1 <0>        -0.1405
      5 C5          1.2210   -0.6886   -0.0124 C.ar      1 <0>         0.0405
      6 C6          0.0021   -0.0041    0.0020 C.ar      1 <0>        -0.1261
      7 C7          1.2457   -2.1536   -0.0208 C.2       1 <0>         0.0504
      8 C8          2.4853   -2.7488   -0.0355 C.ar      1 <0>        -0.1585
      9 C9          3.7667   -2.0921   -0.0444 C.ar      1 <0>        -0.1299
     10 C10         4.8847   -2.9128   -0.0585 C.ar      1 <0>        -0.0238
     11 C11         4.7118   -4.2966   -0.0633 C.ar      1 <0>        -0.1212
     12 C12         3.5050   -4.9362   -0.0556 C.ar      1 <0>        -0.0231
     13 C13         2.3094   -4.1914   -0.0406 C.ar      1 <0>         0.0660
     14 N1          0.9988   -4.3425   -0.0297 N.2       1 <0>        -0.2551
     15 H1         -0.5846   -3.1031   -0.0098 H         1 <0>         0.4487
     16 N2          0.3807   -3.1981   -0.0186 N.pl3     1 <0>        -0.3308
     17 C14         3.7519   -0.6254   -0.0360 C.2       1 <0>         0.4405
     18 O1          4.7871    0.0179   -0.0431 O.2       1 <0>        -0.4447
     19 H2         -0.9611    1.8950    0.0259 H         1 <0>         0.1352
     20 H3          1.1418    3.1714    0.0076 H         1 <0>         0.1359
     21 H4          3.2994    2.0140   -0.0187 H         1 <0>         0.1430
     22 H5         -0.9262   -0.5560    0.0082 H         1 <0>         0.1296
     23 H6          5.8766   -2.4856   -0.0660 H         1 <0>         0.1446
     24 H7          5.6007   -4.9099   -0.0744 H         1 <0>         0.1377
     25 H8          3.4673   -6.0156   -0.0604 H         1 <0>         0.1406
@<TRIPOS>BOND
     1    1    6 ar
     2    1    2 ar
     3    1   19 1
     4    2    3 ar
     5    2   20 1
     6    3    4 ar
     7    3   21 1
     8    4   17 1
     9    4    5 ar
    10    5    6 ar
    11    5    7 1
    12    6   22 1
    13    7    8 2
    14    7   16 1
    15    8    9 ar
    16    8   13 ar
    17    9   10 ar
    18    9   17 1
    19   10   11 ar
    20   10   23 1
    21   11   12 ar
    22   11   24 1
    23   12   13 ar
    24   12   25 1
    25   13   14 2
    26   14   16 1
    27   15   16 1
    28   17   18 2
@<TRIPOS>MOLECULE
ZINC02540737
   37    39     0     0     0
SMALL
USER_CHARGES

@<TRIPOS>ATOM
      1 C1          1.8081   -4.6616   -0.1863 C.3       1 <0>        -0.1532
      2 C2          0.9947   -3.3694   -0.0888 C.3       1 <0>        -0.1238
      3 C3         -0.4979   -3.7054   -0.0851 C.3       1 <0>        -0.1108
      4 C4         -1.3114   -2.4133    0.0123 C.3       1 <0>        -0.0498
      5 C5         -2.7792   -2.7336   -0.1052 C.2       1 <0>        -0.1230
      6 C6         -3.6798   -2.9315    0.9703 C.ar      1 <0>         0.0614
      7 C7         -4.9420   -3.2065    0.4005 C.ar      1 <0>         0.2369
      8 N1         -4.7889   -3.1715   -0.9660 N.pl3     1 <0>        -0.5623
      9 H1         -5.4920   -3.3243   -1.6165 H         1 <0>         0.4248
     10 C8         -3.4763   -2.8785   -1.2598 C.2       1 <0>         0.1482
     11 C9         -2.9137   -2.7464   -2.6203 C.ar      1 <0>        -0.0487
     12 C10        -2.1113   -1.6503   -2.9425 C.ar      1 <0>        -0.0701
     13 C11        -1.5883   -1.5309   -4.2122 C.ar      1 <0>        -0.1417
     14 C12        -1.8588   -2.4990   -5.1705 C.ar      1 <0>         0.1212
     15 C13        -2.6570   -3.5907   -4.8541 C.ar      1 <0>        -0.1426
     16 C14        -3.1787   -3.7204   -3.5849 C.ar      1 <0>        -0.0837
     17 O1         -1.3418   -2.3776   -6.4209 O.3       1 <0>        -0.4984
     18 N2         -5.9810   -3.4342    1.1913 N.ar      1 <0>        -0.4505
     19 C15        -5.8299   -3.4027    2.5029 C.ar      1 <0>         0.0851
     20 C16        -4.5912   -3.1329    3.0645 C.ar      1 <0>         0.0409
     21 N3         -3.5445   -2.9034    2.2954 N.ar      1 <0>        -0.4011
     22 H2          2.8715   -4.4222   -0.1889 H         1 <0>         0.0536
     23 H3          1.5814   -5.2990    0.6683 H         1 <0>         0.0533
     24 H4          1.5511   -5.1841   -1.1077 H         1 <0>         0.0520
     25 H5          1.2518   -2.8468    0.8325 H         1 <0>         0.0628
     26 H6          1.2215   -2.7320   -0.9435 H         1 <0>         0.0607
     27 H7         -0.7550   -4.2280   -1.0065 H         1 <0>         0.0595
     28 H8         -0.7247   -4.3429    0.7695 H         1 <0>         0.0621
     29 H9         -1.1197   -1.9348    0.9728 H         1 <0>         0.0793
     30 H10        -1.0209   -1.7394   -0.7936 H         1 <0>         0.0738
     31 H11        -1.9010   -0.8967   -2.1981 H         1 <0>         0.1370
     32 H12        -0.9674   -0.6833   -4.4622 H         1 <0>         0.1370
     33 H13        -2.8654   -4.3412   -5.6021 H         1 <0>         0.1349
     34 H14        -3.7953   -4.5721   -3.3382 H         1 <0>         0.1284
     35 H15        -0.4754   -2.7929   -6.5303 H         1 <0>         0.3956
     36 H16        -6.6791   -3.5885    3.1439 H         1 <0>         0.1767
     37 H17        -4.4828   -3.1100    4.1388 H         1 <0>         0.1746
@<TRIPOS>BOND
     1    1    2 1
     2    1   22 1
     3    1   23 1
     4    1   24 1
     5    2    3 1
     6    2   25 1
     7    2   26 1
     8    3    4 1
     9    3   27 1
    10    3   28 1
    11    4    5 1
    12    4   29 1
    13    4   30 1
    14    5   10 2
    15    5    6 1
    16    6   21 ar
    17    6    7 ar
    18    7    8 1
    19    7   18 ar
    20    8    9 1
    21    8   10 1
    22   10   11 1
    23   11   16 ar
    24   11   12 ar
    25   12   13 ar
    26   12   31 1
    27   13   14 ar
    28   13   32 1
    29   14   15 ar
    30   14   17 1
    31   15   16 ar
    32   15   33 1
    33   16   34 1
    34   17   35 1
    35   18   19 ar
    36   19   20 ar
    37   19   36 1
    38   20   21 ar
    39   20   37 1
@<TRIPOS>MOLECULE
ZINC19632614
   55    58     0     0     0
SMALL
USER_CHARGES

@<TRIPOS>ATOM
      1 C1         -0.7374    1.4118    0.5253 C.3       1 <0>         0.0199
      2 O1         -0.7263   -0.0171    0.5247 O.3       1 <0>        -0.2961
      3 C2          0.0734   -0.6280    1.4373 C.ar      1 <0>         0.1647
      4 C3          0.8188    0.1348    2.3090 C.ar      1 <0>        -0.1833
      5 C4          1.6420   -0.4976    3.2485 C.ar      1 <0>         0.2017
      6 C5          1.6952   -1.9130    3.2874 C.ar      1 <0>        -0.1805
      7 C6          0.9277   -2.6653    2.3903 C.ar      1 <0>        -0.1504
      8 C7          0.1268   -2.0280    1.4855 C.ar      1 <0>         0.1167
      9 O2         -0.6229   -2.7597    0.6185 O.3       1 <0>        -0.2957
     10 C8         -0.5255   -4.1819    0.7171 C.3       1 <0>         0.0569
     11 C9         -1.4334   -4.8292   -0.3307 C.3       1 <0>        -0.1162
     12 C10        -1.3291   -6.3519   -0.2252 C.3       1 <0>         0.0590
     13 N1         -2.2008   -6.9733   -1.2311 N.3       1 <0>        -0.5361
     14 C11        -3.6165   -6.7053   -0.9393 C.3       1 <0>         0.0126
     15 C12        -4.4841   -7.3184   -2.0416 C.3       1 <0>         0.0623
     16 O3         -4.2065   -8.7181   -2.1368 O.3       1 <0>        -0.3850
     17 C13        -2.8368   -9.0154   -2.4209 C.3       1 <0>         0.0626
     18 C14        -1.9524   -8.4195   -1.3224 C.3       1 <0>         0.0175
     19 C15         2.5361   -2.5234    4.2482 C.ar      1 <0>         0.4639
     20 N2          3.2308   -1.7396    5.0625 N.ar      1 <0>        -0.5813
     21 C16         3.1493   -0.4206    4.9892 C.ar      1 <0>         0.3427
     22 N3          2.3876    0.1999    4.1200 N.ar      1 <0>        -0.5394
     23 N4          2.6306   -3.8977    4.3362 N.pl3     1 <0>        -0.6396
     24 C17         3.3713   -4.4833    5.3684 C.ar      1 <0>         0.1586
     25 C18         3.4039   -3.8902    6.6240 C.ar      1 <0>        -0.0764
     26 C19         4.1353   -4.4698    7.6421 C.ar      1 <0>        -0.1191
     27 C20         4.8362   -5.6416    7.4124 C.ar      1 <0>         0.0961
     28 C21         4.8054   -6.2354    6.1608 C.ar      1 <0>        -0.0542
     29 C22         4.0703   -5.6613    5.1406 C.ar      1 <0>        -0.1133
     30 Cl1         5.6852   -7.7046    5.8756 Cl        1 <0>        -0.0422
     31 F1          5.5513   -6.2065    8.4097 F         1 <0>        -0.1250
     32 H1          0.2683    1.7831    0.3285 H         1 <0>         0.0625
     33 H2         -1.4151    1.7702   -0.2495 H         1 <0>         0.1078
     34 H3         -1.0740    1.7722    1.4974 H         1 <0>         0.0624
     35 H4          0.7687    1.2128    2.2678 H         1 <0>         0.1567
     36 H5          0.9651   -3.7443    2.4164 H         1 <0>         0.1382
     37 H6          0.5060   -4.4884    0.5431 H         1 <0>         0.0655
     38 H7         -0.8359   -4.4993    1.7126 H         1 <0>         0.0633
     39 H8         -2.4649   -4.5227   -0.1568 H         1 <0>         0.0772
     40 H9         -1.1230   -4.5118   -1.3262 H         1 <0>         0.0870
     41 H10        -0.2976   -6.6584   -0.3991 H         1 <0>         0.0806
     42 H11        -1.6394   -6.6693    0.7704 H         1 <0>         0.0394
     43 H12        -3.8805   -7.1489    0.0207 H         1 <0>         0.0445
     44 H13        -3.7829   -5.6288   -0.9016 H         1 <0>         0.0906
     45 H14        -5.5369   -7.1717   -1.8001 H         1 <0>         0.0996
     46 H15        -4.2579   -6.8370   -2.9930 H         1 <0>         0.0614
     47 H16        -2.6980  -10.0960   -2.4536 H         1 <0>         0.0999
     48 H17        -2.5626   -8.5833   -3.3833 H         1 <0>         0.0613
     49 H18        -0.9041   -8.5942   -1.5643 H         1 <0>         0.0880
     50 H19        -2.1898   -8.8905   -0.3685 H         1 <0>         0.0446
     51 H20         3.7361    0.1714    5.6759 H         1 <0>         0.1991
     52 H21         2.1833   -4.4574    3.6823 H         1 <0>         0.4215
     53 H22         2.8578   -2.9760    6.8040 H         1 <0>         0.1516
     54 H23         4.1608   -4.0084    8.6183 H         1 <0>         0.1509
     55 H24         4.0430   -6.1262    4.1662 H         1 <0>         0.1452
@<TRIPOS>BOND
     1    1    2 1
     2    1   32 1
     3    1   33 1
     4    1   34 1
     5    2    3 1
     6    3    8 ar
     7    3    4 ar
     8    4    5 ar
     9    4   35 1
    10    5   22 ar
    11    5    6 ar
    12    6    7 ar
    13    6   19 ar
    14    7    8 ar
    15    7   36 1
    16    8    9 1
    17    9   10 1
    18   10   11 1
    19   10   37 1
    20   10   38 1
    21   11   12 1
    22   11   39 1
    23   11   40 1
    24   12   13 1
    25   12   41 1
    26   12   42 1
    27   13   18 1
    28   13   14 1
    29   14   15 1
    30   14   43 1
    31   14   44 1
    32   15   16 1
    33   15   45 1
    34   15   46 1
    35   16   17 1
    36   17   18 1
    37   17   47 1
    38   17   48 1
    39   18   49 1
    40   18   50 1
    41   19   20 ar
    42   19   23 1
    43   20   21 ar
    44   21   22 ar
    45   21   51 1
    46   23   24 1
    47   23   52 1
    48   24   29 ar
    49   24   25 ar
    50   25   26 ar
    51   25   53 1
    52   26   27 ar
    53   26   54 1
    54   27   28 ar
    55   27   31 1
    56   28   29 ar
    57   28   30 1
    58   29   55 1
@<TRIPOS>MOLECULE
ZINC19632614
   57    60     0     0     0
SMALL
USER_CHARGES

@<TRIPOS>ATOM
      1 C1          0.4957    0.6763   -1.2292 C.3       1 <0>         0.0097
      2 O1          0.3708   -0.6717   -0.7717 O.3       1 <0>        -0.2780
      3 C2         -0.8861   -1.1806   -0.6878 C.ar      1 <0>         0.2175
      4 C3         -1.9704   -0.3964   -1.0449 C.ar      1 <0>        -0.2163
      5 C4         -3.2517   -0.9159   -0.9595 C.ar      1 <0>         0.2109
      6 C5         -3.4429   -2.2355   -0.5110 C.ar      1 <0>        -0.1696
      7 C6         -2.3484   -3.0191   -0.1533 C.ar      1 <0>        -0.1343
      8 C7         -1.0748   -2.4922   -0.2475 C.ar      1 <0>         0.1172
      9 O2         -0.0002   -3.2528    0.0951 O.3       1 <0>        -0.2792
     10 C8         -0.2516   -4.6209    0.4223 C.3       1 <0>         0.0522
     11 C9          1.0783   -5.3474    0.6333 C.3       1 <0>        -0.1519
     12 C10         0.8148   -6.8369    0.8638 C.3       1 <0>        -0.0151
     13 N1          2.0946   -7.5463    0.9928 N.4       1 <0>        -0.3820
     14 C11         2.8253   -7.4743   -0.2800 C.3       1 <0>        -0.0514
     15 C12         4.1584   -8.2140   -0.1429 C.3       1 <0>         0.0361
     16 O3          3.9086   -9.5683    0.2435 O.3       1 <0>        -0.3530
     17 C13         3.1775   -9.6905    1.4668 C.3       1 <0>         0.0362
     18 C14         1.8426   -8.9535    1.3327 C.3       1 <0>        -0.0460
     19 C15        -4.8247   -2.7457   -0.4360 C.cat     1 <0>         0.5319
     20 N2         -5.0725   -3.9771   -0.0222 N.pl3     1 <0>        -0.5604
     21 C16        -4.2014   -4.6012    0.8249 C.ar      1 <0>         0.0974
     22 C17        -3.7272   -3.9360    1.9592 C.ar      1 <0>        -0.0816
     23 C18        -2.8483   -4.5713    2.8111 C.ar      1 <0>        -0.1175
     24 C19        -2.4343   -5.8665    2.5448 C.ar      1 <0>         0.1198
     25 C20        -2.9002   -6.5323    1.4212 C.ar      1 <0>        -0.0716
     26 C21        -3.7851   -5.9094    0.5642 C.ar      1 <0>        -0.0825
     27 Cl1        -2.3754   -8.1547    1.0956 Cl        1 <0>        -0.0183
     28 F1         -1.5728   -6.4831    3.3830 F         1 <0>        -0.1112
     29 N3         -5.8317   -1.9199   -0.8014 N.2       1 <0>        -0.5495
     30 C22        -5.6076   -0.7054   -1.2106 C.2       1 <0>         0.4712
     31 N4         -4.3672   -0.1695   -1.3053 N.pl3     1 <0>        -0.5812
     32 H1         -4.2589    0.7427   -1.6168 H         1 <0>         0.4503
     33 H2          1.5487    0.9571   -1.2491 H         1 <0>         0.1245
     34 H3          0.0784    0.7596   -2.2327 H         1 <0>         0.0727
     35 H4         -0.0447    1.3405   -0.5547 H         1 <0>         0.0731
     36 H5         -1.8176    0.6161   -1.3882 H         1 <0>         0.1754
     37 H6         -2.4939   -4.0322    0.1915 H         1 <0>         0.1665
     38 H7         -0.8431   -4.6731    1.3364 H         1 <0>         0.0710
     39 H8         -0.7992   -5.0947   -0.3924 H         1 <0>         0.0775
     40 H9          1.7051   -5.2217   -0.2495 H         1 <0>         0.1094
     41 H10         1.5867   -4.9297    1.5023 H         1 <0>         0.1099
     42 H11         0.2340   -6.9660    1.7771 H         1 <0>         0.1336
     43 H12         0.2581   -7.2423    0.0189 H         1 <0>         0.1350
     44 H13         2.2311   -7.9385   -1.0671 H         1 <0>         0.1411
     45 H14         3.0128   -6.4308   -0.5330 H         1 <0>         0.1444
     46 H15         4.6829   -8.1989   -1.0982 H         1 <0>         0.1447
     47 H16         4.7692   -7.7256    0.6163 H         1 <0>         0.0840
     48 H17         2.9923  -10.7439    1.6765 H         1 <0>         0.1456
     49 H18         3.7548   -9.2526    2.2811 H         1 <0>         0.0847
     50 H19         1.3007   -9.0081    2.2769 H         1 <0>         0.1448
     51 H20         1.2488   -9.4172    0.5450 H         1 <0>         0.1398
     52 H21        -4.0484   -2.9261    2.1679 H         1 <0>         0.1559
     53 H22        -2.4815   -4.0580    3.6876 H         1 <0>         0.1719
     54 H23        -4.1514   -6.4303   -0.3081 H         1 <0>         0.1696
     55 H24        -6.4530   -0.0939   -1.4891 H         1 <0>         0.2492
     56 H25        -5.8728   -4.4370   -0.3202 H         1 <0>         0.4487
     57 H26         2.6450   -7.1175    1.7216 H         1 <0>         0.4269
@<TRIPOS>BOND
     1    1    2 1
     2    1   33 1
     3    1   34 1
     4    1   35 1
     5    2    3 1
     6    3    8 ar
     7    3    4 ar
     8    4    5 ar
     9    4   36 1
    10    5   31 1
    11    5    6 ar
    12    6    7 ar
    13    6   19 1
    14    7    8 ar
    15    7   37 1
    16    8    9 1
    17    9   10 1
    18   10   11 1
    19   10   38 1
    20   10   39 1
    21   11   12 1
    22   11   40 1
    23   11   41 1
    24   12   13 1
    25   12   42 1
    26   12   43 1
    27   13   18 1
    28   13   14 1
    29   13   57 1
    30   14   15 1
    31   14   44 1
    32   14   45 1
    33   15   16 1
    34   15   46 1
    35   15   47 1
    36   16   17 1
    37   17   18 1
    38   17   48 1
    39   17   49 1
    40   18   50 1
    41   18   51 1
    42   19   20 2
    43   19   29 1
    44   20   21 1
    45   20   56 1
    46   21   26 ar
    47   21   22 ar
    48   22   23 ar
    49   22   52 1
    50   23   24 ar
    51   23   53 1
    52   24   25 ar
    53   24   28 1
    54   25   26 ar
    55   25   27 1
    56   26   54 1
    57   29   30 2
    58   30   31 1
    59   30   55 1
    60   31   32 1
@<TRIPOS>MOLECULE
ZINC19632618
   69    73     0     0     0
SMALL
USER_CHARGES

@<TRIPOS>ATOM
      1 C1         -0.1643    1.5374    0.2772 C.3       1 <0>        -0.1166
      2 C2          0.0708    0.1281   -0.2021 C.ar      1 <0>        -0.1228
      3 C3         -0.6192   -0.3521   -1.2987 C.ar      1 <0>        -0.0806
      4 C4         -0.4070   -1.6434   -1.7410 C.ar      1 <0>        -0.1294
      5 C5          0.5017   -2.4641   -1.0837 C.ar      1 <0>         0.1504
      6 C6          1.1965   -1.9850    0.0175 C.ar      1 <0>        -0.1394
      7 C7          0.9852   -0.6852    0.4558 C.ar      1 <0>         0.1826
      8 N1          1.6874   -0.1967    1.5617 N.pl3     1 <0>        -0.6314
      9 C8          2.1285   -1.0695    2.5429 C.ar      1 <0>         0.5659
     10 N2          1.7764   -2.3456    2.4776 N.ar      1 <0>        -0.5577
     11 C9          2.1776   -3.2107    3.3953 C.ar      1 <0>         0.1910
     12 C10         2.9764   -2.7714    4.4364 C.ar      1 <0>        -0.2706
     13 C11         3.3313   -1.4207    4.4789 C.ar      1 <0>         0.2697
     14 N3          2.8950   -0.6087    3.5185 N.ar      1 <0>        -0.5576
     15 C12         4.1856   -0.9008    5.5740 C.ar      1 <0>        -0.1200
     16 C13         4.4510    0.4679    5.6793 C.ar      1 <0>        -0.0267
     17 C14         5.2541    0.9026    6.7193 C.ar      1 <0>        -0.1772
     18 C15         5.7636   -0.0222    7.6129 C.ar      1 <0>         0.1192
     19 N4          5.4957   -1.3077    7.4879 N.ar      1 <0>        -0.4844
     20 C16         4.7320   -1.7677    6.5181 C.ar      1 <0>         0.1336
     21 N5          0.7153   -3.7716   -1.5315 N.am      1 <0>        -0.6649
     22 C17         0.7404   -4.0356   -2.8529 C.2       1 <0>         0.5545
     23 O1          0.4912   -3.1555   -3.6535 O.2       1 <0>        -0.5086
     24 C18         1.0709   -5.3955   -3.3287 C.ar      1 <0>        -0.1216
     25 C19         1.3519   -6.4100   -2.4119 C.ar      1 <0>        -0.0841
     26 C20         1.6592   -7.6771   -2.8626 C.ar      1 <0>        -0.1244
     27 C21         1.6892   -7.9435   -4.2200 C.ar      1 <0>        -0.0692
     28 C22         1.4117   -6.9425   -5.1341 C.ar      1 <0>        -0.0994
     29 C23         1.0978   -5.6724   -4.6966 C.ar      1 <0>        -0.0536
     30 C24         2.0262   -9.3299   -4.7050 C.3       1 <0>         0.0939
     31 N6          0.7933  -10.1196   -4.8258 N.3       1 <0>        -0.5345
     32 C25         0.1866  -10.3538   -3.5078 C.3       1 <0>         0.0185
     33 C26        -1.1228  -11.1262   -3.6823 C.3       1 <0>        -0.0025
     34 N7         -0.8513  -12.4061   -4.3498 N.4       1 <0>        -0.3884
     35 C27        -0.2685  -12.1554   -5.6746 C.3       1 <0>        -0.0024
     36 C28         1.0481  -11.3916   -5.5166 C.3       1 <0>         0.0250
     37 C29        -2.1059  -13.1551   -4.5009 C.3       1 <0>        -0.0460
     38 H1          0.5251    2.2130   -0.2290 H         1 <0>         0.0728
     39 H2         -1.1901    1.8307    0.0540 H         1 <0>         0.0743
     40 H3          0.0021    1.5877    1.3533 H         1 <0>         0.0627
     41 H4         -1.3262    0.2836   -1.8111 H         1 <0>         0.1320
     42 H5         -0.9481   -2.0158   -2.5982 H         1 <0>         0.1349
     43 H6          1.9030   -2.6209    0.5302 H         1 <0>         0.1479
     44 H7          1.8658    0.7534    1.6418 H         1 <0>         0.4260
     45 H8          1.8844   -4.2483    3.3325 H         1 <0>         0.1734
     46 H9          3.3172   -3.4566    5.1985 H         1 <0>         0.1507
     47 H10         4.0401    1.1680    4.9670 H         1 <0>         0.1466
     48 H11         5.4807    1.9525    6.8318 H         1 <0>         0.1437
     49 H12         6.3909    0.3135    8.4254 H         1 <0>         0.1633
     50 H13         4.5316   -2.8268    6.4514 H         1 <0>         0.1617
     51 H14         0.8453   -4.4884   -0.8911 H         1 <0>         0.4084
     52 H15         1.3291   -6.2032   -1.3521 H         1 <0>         0.1294
     53 H16         1.8771   -8.4627   -2.1544 H         1 <0>         0.1265
     54 H17         1.4372   -7.1570   -6.1922 H         1 <0>         0.1340
     55 H18         0.8770   -4.8931   -5.4110 H         1 <0>         0.1424
     56 H19         2.5135   -9.2661   -5.6779 H         1 <0>         0.1008
     57 H20         2.6973   -9.8107   -3.9933 H         1 <0>         0.0595
     58 H21         0.8718  -10.9344   -2.8900 H         1 <0>         0.0618
     59 H22        -0.0167   -9.3975   -3.0259 H         1 <0>         0.1265
     60 H23        -1.5673  -11.3133   -2.7048 H         1 <0>         0.1359
     61 H24        -1.8127  -10.5393   -4.2887 H         1 <0>         0.1379
     62 H25        -0.0795  -13.1056   -6.1741 H         1 <0>         0.1367
     63 H26        -0.9627  -11.5633   -6.2708 H         1 <0>         0.1381
     64 H27         1.4733  -11.1924   -6.5003 H         1 <0>         0.1253
     65 H28         1.7474  -11.9892   -4.9320 H         1 <0>         0.0621
     66 H29        -2.8061  -12.5737   -5.1008 H         1 <0>         0.1233
     67 H30        -1.9046  -14.1049   -4.9963 H         1 <0>         0.1246
     68 H31        -2.5379  -13.3423   -3.5179 H         1 <0>         0.1243
     69 H32        -0.2036  -12.9443   -3.7940 H         1 <0>         0.4222
@<TRIPOS>BOND
     1    1    2 1
     2    1   38 1
     3    1   39 1
     4    1   40 1
     5    2    7 ar
     6    2    3 ar
     7    3    4 ar
     8    3   41 1
     9    4    5 ar
    10    4   42 1
    11    5    6 ar
    12    5   21 1
    13    6    7 ar
    14    6   43 1
    15    7    8 1
    16    8    9 1
    17    8   44 1
    18    9   14 ar
    19    9   10 ar
    20   10   11 ar
    21   11   12 ar
    22   11   45 1
    23   12   13 ar
    24   12   46 1
    25   13   14 ar
    26   13   15 1
    27   15   20 ar
    28   15   16 ar
    29   16   17 ar
    30   16   47 1
    31   17   18 ar
    32   17   48 1
    33   18   19 ar
    34   18   49 1
    35   19   20 ar
    36   20   50 1
    37   21   22 am
    38   21   51 1
    39   22   23 2
    40   22   24 1
    41   24   29 ar
    42   24   25 ar
    43   25   26 ar
    44   25   52 1
    45   26   27 ar
    46   26   53 1
    47   27   28 ar
    48   27   30 1
    49   28   29 ar
    50   28   54 1
    51   29   55 1
    52   30   31 1
    53   30   56 1
    54   30   57 1
    55   31   36 1
    56   31   32 1
    57   32   33 1
    58   32   58 1
    59   32   59 1
    60   33   34 1
    61   33   60 1
    62   33   61 1
    63   34   35 1
    64   34   37 1
    65   34   69 1
    66   35   36 1
    67   35   62 1
    68   35   63 1
    69   36   64 1
    70   36   65 1
    71   37   66 1
    72   37   67 1
    73   37   68 1
@<TRIPOS>MOLECULE
ZINC19632618
   69    73     0     0     0
SMALL
USER_CHARGES

@<TRIPOS>ATOM
      1 C1         -0.1643    1.5374    0.2772 C.3       1 <0>        -0.1179
      2 C2          0.0708    0.1281   -0.2021 C.ar      1 <0>        -0.1195
      3 C3         -0.6192   -0.3521   -1.2987 C.ar      1 <0>        -0.0803
      4 C4         -0.4070   -1.6434   -1.7410 C.ar      1 <0>        -0.1287
      5 C5          0.5017   -2.4641   -1.0837 C.ar      1 <0>         0.1452
      6 C6          1.1965   -1.9850    0.0175 C.ar      1 <0>        -0.1374
      7 C7          0.9852   -0.6852    0.4558 C.ar      1 <0>         0.1839
      8 N1          1.6874   -0.1967    1.5617 N.pl3     1 <0>        -0.6318
      9 C8          2.1285   -1.0695    2.5429 C.ar      1 <0>         0.5654
     10 N2          1.7764   -2.3456    2.4776 N.ar      1 <0>        -0.5590
     11 C9          2.1776   -3.2107    3.3953 C.ar      1 <0>         0.1907
     12 C10         2.9764   -2.7714    4.4364 C.ar      1 <0>        -0.2695
     13 C11         3.3313   -1.4207    4.4789 C.ar      1 <0>         0.2707
     14 N3          2.8950   -0.6087    3.5185 N.ar      1 <0>        -0.5571
     15 C12         4.1856   -0.9008    5.5740 C.ar      1 <0>        -0.1213
     16 C13         4.4510    0.4679    5.6793 C.ar      1 <0>        -0.0264
     17 C14         5.2541    0.9026    6.7193 C.ar      1 <0>        -0.1772
     18 C15         5.7636   -0.0222    7.6129 C.ar      1 <0>         0.1201
     19 N4          5.4957   -1.3077    7.4879 N.ar      1 <0>        -0.4842
     20 C16         4.7320   -1.7677    6.5181 C.ar      1 <0>         0.1342
     21 N5          0.7153   -3.7716   -1.5315 N.am      1 <0>        -0.6603
     22 C17         0.7404   -4.0356   -2.8529 C.2       1 <0>         0.5491
     23 O1          0.4912   -3.1555   -3.6535 O.2       1 <0>        -0.5015
     24 C18         1.0709   -5.3955   -3.3287 C.ar      1 <0>        -0.0938
     25 C19         1.3519   -6.4100   -2.4119 C.ar      1 <0>        -0.0834
     26 C20         1.6592   -7.6771   -2.8626 C.ar      1 <0>        -0.1009
     27 C21         1.6892   -7.9435   -4.2200 C.ar      1 <0>        -0.1382
     28 C22         1.4117   -6.9425   -5.1341 C.ar      1 <0>        -0.0966
     29 C23         1.0978   -5.6724   -4.6966 C.ar      1 <0>        -0.0538
     30 C24         2.0262   -9.3299   -4.7050 C.3       1 <0>         0.0425
     31 N6          0.7933  -10.1196   -4.8258 N.4       1 <0>        -0.3856
     32 C25         0.1989  -10.3052   -3.4955 C.3       1 <0>        -0.0078
     33 C26        -1.0954  -11.1117   -3.6230 C.3       1 <0>         0.0256
     34 N7         -0.7986  -12.4159   -4.2323 N.3       1 <0>        -0.5431
     35 C27        -0.1799  -12.2456   -5.5546 C.3       1 <0>         0.0239
     36 C28         1.1068  -11.4297   -5.4112 C.3       1 <0>        -0.0024
     37 C29        -2.0090  -13.2436   -4.3201 C.3       1 <0>         0.0192
     38 H1          0.5251    2.2130   -0.2290 H         1 <0>         0.0738
     39 H2         -1.1901    1.8307    0.0540 H         1 <0>         0.0752
     40 H3          0.0021    1.5877    1.3533 H         1 <0>         0.0636
     41 H4         -1.3262    0.2836   -1.8111 H         1 <0>         0.1330
     42 H5         -0.9481   -2.0158   -2.5982 H         1 <0>         0.1345
     43 H6          1.9030   -2.6209    0.5302 H         1 <0>         0.1487
     44 H7          1.8658    0.7534    1.6418 H         1 <0>         0.4265
     45 H8          1.8844   -4.2483    3.3325 H         1 <0>         0.1737
     46 H9          3.3172   -3.4566    5.1985 H         1 <0>         0.1513
     47 H10         4.0401    1.1680    4.9670 H         1 <0>         0.1465
     48 H11         5.4807    1.9525    6.8318 H         1 <0>         0.1439
     49 H12         6.3909    0.3135    8.4254 H         1 <0>         0.1636
     50 H13         4.5316   -2.8268    6.4514 H         1 <0>         0.1618
     51 H14         0.8453   -4.4884   -0.8911 H         1 <0>         0.4091
     52 H15         1.3291   -6.2032   -1.3521 H         1 <0>         0.1399
     53 H16         1.8771   -8.4627   -2.1544 H         1 <0>         0.1405
     54 H17         1.4372   -7.1570   -6.1922 H         1 <0>         0.1409
     55 H18         0.8770   -4.8931   -5.4110 H         1 <0>         0.1513
     56 H19         2.5135   -9.2661   -5.6779 H         1 <0>         0.1411
     57 H20         2.6973   -9.8107   -3.9933 H         1 <0>         0.1402
     58 H21         0.8998  -10.8418   -2.8560 H         1 <0>         0.1385
     59 H22        -0.0212   -9.3320   -3.0568 H         1 <0>         0.1352
     60 H23        -1.5289  -11.2624   -2.6343 H         1 <0>         0.1235
     61 H24        -1.8016  -10.5690   -4.2513 H         1 <0>         0.0601
     62 H25         0.0544  -13.2235   -5.9751 H         1 <0>         0.1247
     63 H26        -0.8711  -11.7216   -6.2147 H         1 <0>         0.0606
     64 H27         1.5598  -11.2902   -6.3927 H         1 <0>         0.1372
     65 H28         1.8030  -11.9606   -4.7619 H         1 <0>         0.1392
     66 H29        -2.7542  -12.7340   -4.9308 H         1 <0>         0.0396
     67 H30        -1.7610  -14.2028   -4.7745 H         1 <0>         0.0842
     68 H31        -2.4099  -13.4082   -3.3199 H         1 <0>         0.0844
     69 H32         0.1396   -9.6332   -5.4209 H         1 <0>         0.4206
@<TRIPOS>BOND
     1    1    2 1
     2    1   38 1
     3    1   39 1
     4    1   40 1
     5    2    7 ar
     6    2    3 ar
     7    3    4 ar
     8    3   41 1
     9    4    5 ar
    10    4   42 1
    11    5    6 ar
    12    5   21 1
    13    6    7 ar
    14    6   43 1
    15    7    8 1
    16    8    9 1
    17    8   44 1
    18    9   14 ar
    19    9   10 ar
    20   10   11 ar
    21   11   12 ar
    22   11   45 1
    23   12   13 ar
    24   12   46 1
    25   13   14 ar
    26   13   15 1
    27   15   20 ar
    28   15   16 ar
    29   16   17 ar
    30   16   47 1
    31   17   18 ar
    32   17   48 1
    33   18   19 ar
    34   18   49 1
    35   19   20 ar
    36   20   50 1
    37   21   22 am
    38   21   51 1
    39   22   23 2
    40   22   24 1
    41   24   29 ar
    42   24   25 ar
    43   25   26 ar
    44   25   52 1
    45   26   27 ar
    46   26   53 1
    47   27   28 ar
    48   27   30 1
    49   28   29 ar
    50   28   54 1
    51   29   55 1
    52   30   31 1
    53   30   56 1
    54   30   57 1
    55   31   36 1
    56   31   32 1
    57   31   69 1
    58   32   33 1
    59   32   58 1
    60   32   59 1
    61   33   34 1
    62   33   60 1
    63   33   61 1
    64   34   35 1
    65   34   37 1
    66   35   36 1
    67   35   62 1
    68   35   63 1
    69   36   64 1
    70   36   65 1
    71   37   66 1
    72   37   67 1
    73   37   68 1
@<TRIPOS>MOLECULE
ZINC19632618
   68    72     0     0     0
SMALL
USER_CHARGES

@<TRIPOS>ATOM
      1 C1         -0.1643    1.5374    0.2772 C.3       1 <0>        -0.1139
      2 C2          0.0708    0.1281   -0.2021 C.ar      1 <0>        -0.1276
      3 C3         -0.6192   -0.3521   -1.2987 C.ar      1 <0>        -0.0809
      4 C4         -0.4070   -1.6434   -1.7410 C.ar      1 <0>        -0.1296
      5 C5          0.5017   -2.4641   -1.0837 C.ar      1 <0>         0.1575
      6 C6          1.1965   -1.9850    0.0175 C.ar      1 <0>        -0.1408
      7 C7          0.9852   -0.6852    0.4558 C.ar      1 <0>         0.1805
      8 N1          1.6874   -0.1967    1.5617 N.pl3     1 <0>        -0.6310
      9 C8          2.1285   -1.0695    2.5429 C.ar      1 <0>         0.5658
     10 N2          1.7764   -2.3456    2.4776 N.ar      1 <0>        -0.5548
     11 C9          2.1776   -3.2107    3.3953 C.ar      1 <0>         0.1930
     12 C10         2.9764   -2.7714    4.4364 C.ar      1 <0>        -0.2707
     13 C11         3.3313   -1.4207    4.4789 C.ar      1 <0>         0.2660
     14 N3          2.8950   -0.6087    3.5185 N.ar      1 <0>        -0.5591
     15 C12         4.1856   -0.9008    5.5740 C.ar      1 <0>        -0.1161
     16 C13         4.4510    0.4679    5.6793 C.ar      1 <0>        -0.0277
     17 C14         5.2541    0.9026    6.7193 C.ar      1 <0>        -0.1780
     18 C15         5.7636   -0.0222    7.6129 C.ar      1 <0>         0.1167
     19 N4          5.4957   -1.3077    7.4879 N.ar      1 <0>        -0.4846
     20 C16         4.7320   -1.7677    6.5181 C.ar      1 <0>         0.1331
     21 N5          0.7153   -3.7716   -1.5315 N.am      1 <0>        -0.6684
     22 C17         0.7404   -4.0356   -2.8529 C.2       1 <0>         0.5607
     23 O1          0.4912   -3.1555   -3.6535 O.2       1 <0>        -0.5149
     24 C18         1.0709   -5.3955   -3.3287 C.ar      1 <0>        -0.1367
     25 C19         1.3519   -6.4100   -2.4119 C.ar      1 <0>        -0.0845
     26 C20         1.6592   -7.6771   -2.8626 C.ar      1 <0>        -0.1214
     27 C21         1.6892   -7.9435   -4.2200 C.ar      1 <0>        -0.0481
     28 C22         1.4117   -6.9425   -5.1341 C.ar      1 <0>        -0.1045
     29 C23         1.0978   -5.6724   -4.6966 C.ar      1 <0>        -0.0549
     30 C24         2.0262   -9.3299   -4.7050 C.3       1 <0>         0.0887
     31 N6          0.7933  -10.1196   -4.8258 N.3       1 <0>        -0.5346
     32 C25         0.1854  -10.3517   -3.5082 C.3       1 <0>         0.0528
     33 C26        -1.1341  -11.1069   -3.6840 C.3       1 <0>         0.0560
     34 N7         -0.8794  -12.3787   -4.3748 N.3       1 <0>        -0.5467
     35 C27        -0.2715  -12.1466   -5.6924 C.3       1 <0>         0.0557
     36 C28         1.0481  -11.3914   -5.5165 C.3       1 <0>         0.0569
     37 C29        -2.1122  -13.1683   -4.4955 C.3       1 <0>         0.0243
     38 H1          0.5251    2.2130   -0.2290 H         1 <0>         0.0707
     39 H2         -1.1901    1.8307    0.0540 H         1 <0>         0.0727
     40 H3          0.0021    1.5877    1.3533 H         1 <0>         0.0612
     41 H4         -1.3262    0.2836   -1.8111 H         1 <0>         0.1306
     42 H5         -0.9481   -2.0158   -2.5982 H         1 <0>         0.1361
     43 H6          1.9030   -2.6209    0.5302 H         1 <0>         0.1478
     44 H7          1.8658    0.7534    1.6418 H         1 <0>         0.4247
     45 H8          1.8844   -4.2483    3.3325 H         1 <0>         0.1749
     46 H9          3.3172   -3.4566    5.1985 H         1 <0>         0.1504
     47 H10         4.0401    1.1680    4.9670 H         1 <0>         0.1465
     48 H11         5.4807    1.9525    6.8318 H         1 <0>         0.1424
     49 H12         6.3909    0.3135    8.4254 H         1 <0>         0.1620
     50 H13         4.5316   -2.8268    6.4514 H         1 <0>         0.1624
     51 H14         0.8453   -4.4884   -0.8911 H         1 <0>         0.4098
     52 H15         1.3291   -6.2032   -1.3521 H         1 <0>         0.1256
     53 H16         1.8771   -8.4627   -2.1544 H         1 <0>         0.1277
     54 H17         1.4372   -7.1570   -6.1922 H         1 <0>         0.1323
     55 H18         0.8770   -4.8931   -5.4110 H         1 <0>         0.1380
     56 H19         2.5135   -9.2661   -5.6779 H         1 <0>         0.0885
     57 H20         2.6973   -9.8107   -3.9933 H         1 <0>         0.0490
     58 H21         0.8640  -10.9435   -2.8938 H         1 <0>         0.0436
     59 H22        -0.0051   -9.3950   -3.0219 H         1 <0>         0.0840
     60 H23        -1.5725  -11.3056   -2.7060 H         1 <0>         0.0799
     61 H24        -1.8225  -10.5033   -4.2756 H         1 <0>         0.0432
     62 H25        -0.0810  -13.1033   -6.1787 H         1 <0>         0.0811
     63 H26        -0.9501  -11.5548   -6.3068 H         1 <0>         0.0437
     64 H27         1.4864  -11.1926   -6.4945 H         1 <0>         0.0821
     65 H28         1.7364  -11.9950   -4.9250 H         1 <0>         0.0450
     66 H29        -2.8511  -12.6037   -5.0641 H         1 <0>         0.0271
     67 H30        -1.8953  -14.1043   -5.0104 H         1 <0>         0.0693
     68 H31        -2.5051  -13.3830   -3.5017 H         1 <0>         0.0693
@<TRIPOS>BOND
     1    1    2 1
     2    1   38 1
     3    1   39 1
     4    1   40 1
     5    2    7 ar
     6    2    3 ar
     7    3    4 ar
     8    3   41 1
     9    4    5 ar
    10    4   42 1
    11    5    6 ar
    12    5   21 1
    13    6    7 ar
    14    6   43 1
    15    7    8 1
    16    8    9 1
    17    8   44 1
    18    9   14 ar
    19    9   10 ar
    20   10   11 ar
    21   11   12 ar
    22   11   45 1
    23   12   13 ar
    24   12   46 1
    25   13   14 ar
    26   13   15 1
    27   15   20 ar
    28   15   16 ar
    29   16   17 ar
    30   16   47 1
    31   17   18 ar
    32   17   48 1
    33   18   19 ar
    34   18   49 1
    35   19   20 ar
    36   20   50 1
    37   21   22 am
    38   21   51 1
    39   22   23 2
    40   22   24 1
    41   24   29 ar
    42   24   25 ar
    43   25   26 ar
    44   25   52 1
    45   26   27 ar
    46   26   53 1
    47   27   28 ar
    48   27   30 1
    49   28   29 ar
    50   28   54 1
    51   29   55 1
    52   30   31 1
    53   30   56 1
    54   30   57 1
    55   31   36 1
    56   31   32 1
    57   32   33 1
    58   32   58 1
    59   32   59 1
    60   33   34 1
    61   33   60 1
    62   33   61 1
    63   34   35 1
    64   34   37 1
    65   35   36 1
    66   35   62 1
    67   35   63 1
    68   36   64 1
    69   36   65 1
    70   37   66 1
    71   37   67 1
    72   37   68 1
@<TRIPOS>MOLECULE
ZINC00602269
   48    51     0     0     0
SMALL
USER_CHARGES

@<TRIPOS>ATOM
      1 C1         -0.3249    1.5068   -0.5381 C.3       1 <0>         0.0434
      2 O1         -0.2403    0.0838   -0.4392 O.3       1 <0>        -0.2840
      3 C2         -1.4084   -0.5977   -0.3601 C.ar      1 <0>         0.5123
      4 N1         -2.5489    0.0741   -0.3834 N.ar      1 <0>        -0.5707
      5 C3         -3.7136   -0.5530   -0.3089 C.ar      1 <0>         0.1993
      6 C4         -3.7345   -1.9305   -0.2053 C.ar      1 <0>        -0.2787
      7 C5         -2.5122   -2.6155   -0.1829 C.ar      1 <0>         0.2980
      8 N2         -1.3789   -1.9154   -0.2672 N.ar      1 <0>        -0.5036
      9 C6         -2.4787   -4.0850   -0.0737 C.2       1 <0>        -0.0039
     10 C7         -1.5178   -4.9361   -0.5922 C.2       1 <0>         0.1168
     11 N3         -1.8729   -6.1903   -0.2619 N.2       1 <0>        -0.4802
     12 C8         -2.9835   -6.1647    0.4220 C.2       1 <0>         0.2028
     13 N4         -3.3942   -4.8884    0.5701 N.pl3     1 <0>        -0.4312
     14 C9         -4.5942   -4.4398    1.2808 C.3       1 <0>         0.1153
     15 C10        -4.5172   -4.8847    2.7427 C.3       1 <0>        -0.1258
     16 C11        -4.4268   -6.4106    2.8073 C.3       1 <0>        -0.1391
     17 C12        -5.6664   -7.0232    2.1524 C.3       1 <0>         0.1025
     18 C13        -5.7433   -6.5784    0.6905 C.3       1 <0>        -0.1781
     19 C14        -5.8338   -5.0524    0.6258 C.3       1 <0>        -0.1269
     20 O2         -5.5819   -8.4484    2.2128 O.3       1 <0>        -0.5645
     21 C15        -0.3198   -4.5386   -1.3679 C.ar      1 <0>        -0.0145
     22 C16        -0.3793   -3.4503   -2.2381 C.ar      1 <0>        -0.0421
     23 C17         0.7388   -3.0841   -2.9583 C.ar      1 <0>        -0.1535
     24 C18         1.9196   -3.7956   -2.8182 C.ar      1 <0>         0.1052
     25 C19         1.9835   -4.8779   -1.9553 C.ar      1 <0>        -0.1570
     26 C20         0.8725   -5.2480   -1.2261 C.ar      1 <0>        -0.0577
     27 F1          3.0120   -3.4331   -3.5257 F         1 <0>        -0.1403
     28 H1          0.6792    1.9274   -0.5944 H         1 <0>         0.1066
     29 H2         -0.8824    1.7762   -1.4352 H         1 <0>         0.0647
     30 H3         -0.8358    1.9023    0.3397 H         1 <0>         0.0640
     31 H4         -4.6370    0.0068   -0.3286 H         1 <0>         0.1768
     32 H5         -4.6701   -2.4664   -0.1427 H         1 <0>         0.1506
     33 H6         -3.4936   -7.0323    0.8138 H         1 <0>         0.2317
     34 H7         -4.6586   -3.3527    1.2347 H         1 <0>         0.1142
     35 H8         -3.6341   -4.4483    3.2093 H         1 <0>         0.0809
     36 H9         -5.4100   -4.5509    3.2715 H         1 <0>         0.0929
     37 H10        -3.5340   -6.7444    2.2785 H         1 <0>         0.0857
     38 H11        -4.3720   -6.7275    3.8488 H         1 <0>         0.0833
     39 H12        -6.5592   -6.6894    2.6812 H         1 <0>         0.0615
     40 H13        -4.8506   -6.9121    0.1617 H         1 <0>         0.0869
     41 H14        -6.6265   -7.0148    0.2239 H         1 <0>         0.0787
     42 H15        -6.7266   -4.7186    1.1547 H         1 <0>         0.0928
     43 H16        -5.8886   -4.7355   -0.4156 H         1 <0>         0.0791
     44 H17        -6.3363   -8.9043    1.8151 H         1 <0>         0.3826
     45 H18        -1.2992   -2.8954   -2.3482 H         1 <0>         0.1162
     46 H19         0.6937   -2.2417   -3.6326 H         1 <0>         0.1325
     47 H20         2.9059   -5.4298   -1.8500 H         1 <0>         0.1374
     48 H21         0.9247   -6.0885   -0.5499 H         1 <0>         0.1370
@<TRIPOS>BOND
     1    1    2 1
     2    1   28 1
     3    1   29 1
     4    1   30 1
     5    2    3 1
     6    3    8 ar
     7    3    4 ar
     8    4    5 ar
     9    5    6 ar
    10    5   31 1
    11    6    7 ar
    12    6   32 1
    13    7    8 ar
    14    7    9 1
    15    9   13 1
    16    9   10 2
    17   10   11 1
    18   10   21 1
    19   11   12 2
    20   12   13 1
    21   12   33 1
    22   13   14 1
    23   14   19 1
    24   14   15 1
    25   14   34 1
    26   15   16 1
    27   15   35 1
    28   15   36 1
    29   16   17 1
    30   16   37 1
    31   16   38 1
    32   17   18 1
    33   17   20 1
    34   17   39 1
    35   18   19 1
    36   18   40 1
    37   18   41 1
    38   19   42 1
    39   19   43 1
    40   20   44 1
    41   21   26 ar
    42   21   22 ar
    43   22   23 ar
    44   22   45 1
    45   23   24 ar
    46   23   46 1
    47   24   25 ar
    48   24   27 1
    49   25   26 ar
    50   25   47 1
    51   26   48 1
@<TRIPOS>MOLECULE
ZINC00602269
   49    52     0     0     0
SMALL
USER_CHARGES

@<TRIPOS>ATOM
      1 C1         -0.3272    1.5055   -0.5630 C.3       1 <0>         0.0392
      2 O1         -0.2424    0.0825   -0.4640 O.3       1 <0>        -0.2792
      3 C2         -1.4099   -0.5984   -0.3732 C.ar      1 <0>         0.5235
      4 N1         -2.5503    0.0739   -0.3859 N.ar      1 <0>        -0.5481
      5 C3         -3.7145   -0.5526   -0.2997 C.ar      1 <0>         0.2141
      6 C4         -3.7351   -1.9301   -0.1950 C.ar      1 <0>        -0.2634
      7 C5         -2.5129   -2.6156   -0.1841 C.ar      1 <0>         0.2606
      8 N2         -1.3802   -1.9161   -0.2797 N.ar      1 <0>        -0.4963
      9 C6         -2.4790   -4.0850   -0.0742 C.2       1 <0>         0.0879
     10 C7         -1.5179   -4.9361   -0.5924 C.2       1 <0>         0.1484
     11 N3         -1.8727   -6.1903   -0.2615 N.pl3     1 <0>        -0.4742
     12 C8         -2.9832   -6.1647    0.4225 C.cat     1 <0>         0.2812
     13 N4         -3.3942   -4.8884    0.5701 N.pl3     1 <0>        -0.3811
     14 C9         -4.5942   -4.4398    1.2808 C.3       1 <0>         0.1056
     15 C10        -4.5172   -4.8847    2.7427 C.3       1 <0>        -0.1341
     16 C11        -4.4268   -6.4106    2.8073 C.3       1 <0>        -0.1378
     17 C12        -5.6664   -7.0232    2.1524 C.3       1 <0>         0.0941
     18 C13        -5.7433   -6.5784    0.6905 C.3       1 <0>        -0.1778
     19 C14        -5.8338   -5.0524    0.6258 C.3       1 <0>        -0.1356
     20 O2         -5.5819   -8.4484    2.2128 O.3       1 <0>        -0.5643
     21 C15        -0.3202   -4.5386   -1.3686 C.ar      1 <0>        -0.0770
     22 C16        -0.4290   -3.5921   -2.3870 C.ar      1 <0>        -0.0240
     23 C17         0.6891   -3.2253   -3.1069 C.ar      1 <0>        -0.1476
     24 C18         1.9188   -3.7957   -2.8195 C.ar      1 <0>         0.1439
     25 C19         2.0319   -4.7369   -1.8089 C.ar      1 <0>        -0.1493
     26 C20         0.9207   -5.1056   -1.0793 C.ar      1 <0>        -0.0560
     27 F1          3.0110   -3.4333   -3.5273 F         1 <0>        -0.1231
     28 H1          0.6764    1.9256   -0.6293 H         1 <0>         0.1143
     29 H2         -0.8933    1.7745   -1.4548 H         1 <0>         0.0703
     30 H3         -0.8295    1.9018    0.3195 H         1 <0>         0.0699
     31 H4         -4.6378    0.0076   -0.3108 H         1 <0>         0.1889
     32 H5         -4.6703   -2.4655   -0.1230 H         1 <0>         0.1571
     33 H6         -3.4930   -7.0322    0.8147 H         1 <0>         0.2803
     34 H7         -4.6586   -3.3527    1.2347 H         1 <0>         0.1415
     35 H8         -3.6341   -4.4483    3.2093 H         1 <0>         0.0926
     36 H9         -5.4100   -4.5509    3.2715 H         1 <0>         0.1168
     37 H10        -3.5340   -6.7444    2.2785 H         1 <0>         0.0660
     38 H11        -4.3720   -6.7275    3.8488 H         1 <0>         0.1014
     39 H12        -6.5592   -6.6894    2.6812 H         1 <0>         0.0763
     40 H13        -4.8506   -6.9121    0.1617 H         1 <0>         0.0674
     41 H14        -6.6265   -7.0148    0.2239 H         1 <0>         0.0969
     42 H15        -6.7266   -4.7186    1.1547 H         1 <0>         0.1167
     43 H16        -5.8886   -4.7355   -0.4156 H         1 <0>         0.0908
     44 H17        -6.3363   -8.9043    1.8151 H         1 <0>         0.3919
     45 H18        -1.3871   -3.1472   -2.6120 H         1 <0>         0.1281
     46 H19         0.6058   -2.4927   -3.8960 H         1 <0>         0.1479
     47 H20         2.9923   -5.1792   -1.5890 H         1 <0>         0.1511
     48 H21         1.0107   -5.8355   -0.2883 H         1 <0>         0.1376
     49 H22        -1.3787   -6.9914   -0.4959 H         1 <0>         0.4668
@<TRIPOS>BOND
     1    1    2 1
     2    1   28 1
     3    1   29 1
     4    1   30 1
     5    2    3 1
     6    3    8 ar
     7    3    4 ar
     8    4    5 ar
     9    5    6 ar
    10    5   31 1
    11    6    7 ar
    12    6   32 1
    13    7    8 ar
    14    7    9 1
    15    9   13 1
    16    9   10 2
    17   10   11 1
    18   10   21 1
    19   11   12 2
    20   11   49 1
    21   12   13 1
    22   12   33 1
    23   13   14 1
    24   14   19 1
    25   14   15 1
    26   14   34 1
    27   15   16 1
    28   15   35 1
    29   15   36 1
    30   16   17 1
    31   16   37 1
    32   16   38 1
    33   17   18 1
    34   17   20 1
    35   17   39 1
    36   18   19 1
    37   18   40 1
    38   18   41 1
    39   19   42 1
    40   19   43 1
    41   20   44 1
    42   21   26 ar
    43   21   22 ar
    44   22   23 ar
    45   22   45 1
    46   23   24 ar
    47   23   46 1
    48   24   25 ar
    49   24   27 1
    50   25   26 ar
    51   25   47 1
    52   26   48 1
