@<TRIPOS>MOLECULE
ZINC13647791
   43    46     0     0     0
SMALL
USER_CHARGES

@<TRIPOS>ATOM
      1 C1         -0.0166    1.3699    0.0096 C.ar      1 <0>        -0.0800
      2 C2          1.1572    2.1045    0.0023 C.ar      1 <0>        -0.1190
      3 C3          2.3694    1.4373   -0.0129 C.ar      1 <0>        -0.0394
      4 C4          2.3887    0.0627   -0.0205 C.ar      1 <0>        -0.1883
      5 C5          1.2179   -0.7095   -0.0134 C.ar      1 <0>         0.1191
      6 C6          0.0021   -0.0041    0.0020 C.ar      1 <0>        -0.1207
      7 N1          1.3955   -2.0811   -0.0225 N.pl3     1 <0>        -0.6290
      8 C7          2.6545   -2.6113   -0.0374 C.2       1 <0>         0.2414
      9 C8          3.0385   -3.9533   -0.0487 C.2       1 <0>        -0.1370
     10 C9          2.0433   -4.9829   -0.0452 C.1       1 <0>         0.2720
     11 N2          1.2537   -5.7996   -0.0424 N.1       1 <0>        -0.4249
     12 C10         4.4680   -4.3104   -0.0642 C.ar      1 <0>         0.3088
     13 C11         4.8666   -5.6555   -0.0815 C.ar      1 <0>        -0.2844
     14 C12         6.2058   -5.9409   -0.0954 C.ar      1 <0>         0.2007
     15 N3          7.0848   -4.9482   -0.0923 N.ar      1 <0>        -0.5794
     16 C13         6.6886   -3.6836   -0.0759 C.ar      1 <0>         0.5826
     17 N4          5.4049   -3.3593   -0.0676 N.ar      1 <0>        -0.5825
     18 N5          7.6395   -2.6778   -0.0728 N.pl3     1 <0>        -0.7005
     19 C14         9.0646   -3.0170   -0.0875 C.3       1 <0>         0.1450
     20 C15         9.8948   -1.7318   -0.0805 C.3       1 <0>        -0.0888
     21 C16        11.3608   -2.0808   -0.0957 C.ar      1 <0>        -0.1340
     22 C17        12.0518   -2.2615    1.0929 C.ar      1 <0>        -0.0689
     23 C18        13.3992   -2.5815    1.0307 C.ar      1 <0>        -0.1701
     24 C19        14.0048   -2.7089   -0.2053 C.ar      1 <0>         0.0971
     25 N6         13.3163   -2.5294   -1.3154 N.ar      1 <0>        -0.4833
     26 C20        12.0320   -2.2302   -1.2943 C.ar      1 <0>         0.1060
     27 S1          3.6842   -1.1528   -0.0394 S.3       1 <0>         0.1837
     28 H1         -0.9648    1.8866    0.0260 H         1 <0>         0.1374
     29 H2          1.1270    3.1841    0.0081 H         1 <0>         0.1413
     30 H3          3.2952    1.9934   -0.0191 H         1 <0>         0.1400
     31 H4         -0.9301   -0.5494    0.0080 H         1 <0>         0.1308
     32 H5          0.6237   -2.6686   -0.0180 H         1 <0>         0.4164
     33 H6          4.1333   -6.4484   -0.0833 H         1 <0>         0.1381
     34 H7          6.5434   -6.9667   -0.1085 H         1 <0>         0.1667
     35 H8          7.3622   -1.7483   -0.0608 H         1 <0>         0.4130
     36 H9          9.3060   -3.6103    0.7944 H         1 <0>         0.0692
     37 H10         9.2920   -3.5916   -0.9854 H         1 <0>         0.0705
     38 H11         9.6534   -1.1385   -0.9624 H         1 <0>         0.0847
     39 H12         9.6674   -1.1572    0.8174 H         1 <0>         0.0829
     40 H13        11.5523   -2.1551    2.0445 H         1 <0>         0.1348
     41 H14        13.9686   -2.7291    1.9364 H         1 <0>         0.1364
     42 H15        15.0542   -2.9580   -0.2624 H         1 <0>         0.1564
     43 H16        11.4998   -2.0959   -2.2244 H         1 <0>         0.1551
@<TRIPOS>BOND
     1    1    6 ar
     2    1    2 ar
     3    1   28 1
     4    2    3 ar
     5    2   29 1
     6    3    4 ar
     7    3   30 1
     8    4   27 1
     9    4    5 ar
    10    5    6 ar
    11    5    7 1
    12    6   31 1
    13    7    8 1
    14    7   32 1
    15    8    9 2
    16    8   27 1
    17    9   10 1
    18    9   12 1
    19   10   11 3
    20   12   17 ar
    21   12   13 ar
    22   13   14 ar
    23   13   33 1
    24   14   15 ar
    25   14   34 1
    26   15   16 ar
    27   16   17 ar
    28   16   18 1
    29   18   19 1
    30   18   35 1
    31   19   20 1
    32   19   36 1
    33   19   37 1
    34   20   21 1
    35   20   38 1
    36   20   39 1
    37   21   26 ar
    38   21   22 ar
    39   22   23 ar
    40   22   40 1
    41   23   24 ar
    42   23   41 1
    43   24   25 ar
    44   24   42 1
    45   25   26 ar
    46   26   43 1
