@<TRIPOS>MOLECULE
ZINC24044436
   76    80     0     0     0
SMALL
USER_CHARGES
1-[5-tert-butyl-2-(p-tolyl)pyrazol-3-yl]-3-[4-(2-morpholinoethoxy)-1-naphthyl]urea
@<TRIPOS>ATOM
      1 C1          3.3307    9.5387   -0.3298 C.3       1 <0>        -0.1193
      2 C2          2.0898    8.6848   -0.2813 C.ar      1 <0>        -0.0892
      3 C3          0.9612    9.0673   -0.9828 C.ar      1 <0>        -0.0934
      4 C4         -0.1775    8.2868   -0.9403 C.ar      1 <0>        -0.1062
      5 C5         -0.1884    7.1174   -0.1919 C.ar      1 <0>         0.1564
      6 C6          0.9444    6.7392    0.5163 C.ar      1 <0>        -0.1500
      7 C7          2.0821    7.5207    0.4649 C.ar      1 <0>        -0.0924
      8 N1         -1.3424    6.3233   -0.1469 N.pl3     1 <0>        -0.3448
      9 C8         -1.3788    4.9645   -0.0790 C.2       1 <0>         0.3309
     10 C9         -2.6878    4.5925   -0.0483 C.2       1 <0>        -0.2629
     11 C10        -3.4651    5.7529   -0.1047 C.2       1 <0>         0.1115
     12 N2         -2.6643    6.7861   -0.1672 N.2       1 <0>        -0.2779
     13 C11        -4.9712    5.8052   -0.0954 C.3       1 <0>         0.0134
     14 C12        -5.4824    5.5257    1.3193 C.3       1 <0>        -0.1388
     15 C13        -5.4360    7.1933   -0.5406 C.3       1 <0>        -0.1390
     16 C14        -5.5242    4.7499   -1.0553 C.3       1 <0>        -0.1399
     17 N3         -0.2771    4.1104   -0.0417 N.am      1 <0>        -0.6731
     18 C15        -0.4603    2.7771    0.0314 C.2       1 <0>         0.7165
     19 O1         -1.5862    2.3190    0.0649 O.2       1 <0>        -0.5445
     20 N4          0.6045    1.9516    0.0675 N.am      1 <0>        -0.6819
     21 C16         0.4162    0.5655    0.0407 C.ar      1 <0>         0.1254
     22 C17        -0.6813    0.0024    0.6542 C.ar      1 <0>        -0.0743
     23 C18        -0.8835   -1.3742    0.6299 C.ar      1 <0>        -0.2061
     24 C19         0.0048   -2.2051    0.0082 C.ar      1 <0>         0.1395
     25 C20         1.1426   -1.6672   -0.6254 C.ar      1 <0>        -0.0565
     26 C21         1.3517   -0.2661   -0.6096 C.ar      1 <0>        -0.0251
     27 C22         2.4862    0.2686   -1.2409 C.ar      1 <0>        -0.1232
     28 C23         3.3687   -0.5639   -1.8588 C.ar      1 <0>        -0.0971
     29 C24         3.1636   -1.9422   -1.8742 C.ar      1 <0>        -0.1313
     30 C25         2.0750   -2.4951   -1.2724 C.ar      1 <0>        -0.0739
     31 O2         -0.2080   -3.5475    0.0012 O.3       1 <0>        -0.2916
     32 C26        -1.3823   -4.0216    0.6634 C.3       1 <0>         0.0605
     33 C27        -1.4510   -5.5459    0.5508 C.3       1 <0>         0.0539
     34 N5         -0.3065   -6.1409    1.2538 N.3       1 <0>        -0.5287
     35 C28        -0.1978   -7.5776    0.9617 C.3       1 <0>         0.0167
     36 C29         1.0390   -8.1436    1.6645 C.3       1 <0>         0.0615
     37 O3          0.9456   -7.8818    3.0674 O.3       1 <0>        -0.3849
     38 C30         0.8389   -6.4921    3.3879 C.3       1 <0>         0.0625
     39 C31        -0.3999   -5.9094    2.7026 C.3       1 <0>         0.0120
     40 H1          3.1476   10.4156   -0.9682 H         1 <0>         0.0687
     41 H2          4.1639    8.9515   -0.7434 H         1 <0>         0.0732
     42 H3          3.5863    9.8722    0.6868 H         1 <0>         0.0734
     43 H4          0.9703    9.9770   -1.5648 H         1 <0>         0.1335
     44 H5         -1.0587    8.5861   -1.4884 H         1 <0>         0.1355
     45 H6          0.9374    5.8324    1.1029 H         1 <0>         0.1262
     46 H7          2.9651    7.2245    1.0118 H         1 <0>         0.1343
     47 H8         -3.0598    3.5802    0.0092 H         1 <0>         0.1784
     48 H9         -6.5817    5.5639    1.3261 H         1 <0>         0.0656
     49 H10        -5.0849    6.2845    2.0094 H         1 <0>         0.0565
     50 H11        -5.1481    4.5278    1.6395 H         1 <0>         0.0614
     51 H12        -6.5353    7.2315   -0.5338 H         1 <0>         0.0604
     52 H13        -5.0684    7.3943   -1.5577 H         1 <0>         0.0568
     53 H14        -5.0385    7.9519    0.1496 H         1 <0>         0.0614
     54 H15        -6.6235    4.7882   -1.0484 H         1 <0>         0.0647
     55 H16        -5.1900    3.7520   -0.7351 H         1 <0>         0.0637
     56 H17        -5.1566    4.9509   -2.0724 H         1 <0>         0.0570
     57 H18         0.7414    4.5248   -0.0719 H         1 <0>         0.4294
     58 H19         1.6215    2.3677    0.1180 H         1 <0>         0.4280
     59 H20        -1.3959    0.6376    1.1566 H         1 <0>         0.1450
     60 H21        -1.7537   -1.7925    1.1139 H         1 <0>         0.1296
     61 H22         2.6580    1.3348   -1.2361 H         1 <0>         0.1222
     62 H23         4.2405   -0.1501   -2.3437 H         1 <0>         0.1243
     63 H24         3.8790   -2.5810   -2.3706 H         1 <0>         0.1250
     64 H25         1.9286   -3.5650   -1.2926 H         1 <0>         0.1353
     65 H26        -1.3465   -3.7335    1.7244 H         1 <0>         0.0659
     66 H27        -2.2726   -3.5787    0.1931 H         1 <0>         0.0716
     67 H28        -2.3868   -5.9052    1.0039 H         1 <0>         0.0605
     68 H29        -1.4216   -5.8370   -0.5096 H         1 <0>         0.0912
     69 H30        -1.0977   -8.0949    1.3258 H         1 <0>         0.0437
     70 H31        -0.1044   -7.7249   -0.1244 H         1 <0>         0.0891
     71 H32         1.0925   -9.2291    1.4949 H         1 <0>         0.1001
     72 H33         1.9424   -7.6643    1.2595 H         1 <0>         0.0618
     73 H34         0.7475   -6.3731    4.4776 H         1 <0>         0.0994
     74 H35         1.7375   -5.9645    3.0355 H         1 <0>         0.0616
     75 H36        -0.4553   -4.8284    2.8983 H         1 <0>         0.0869
     76 H37        -1.3031   -6.3997    3.0948 H         1 <0>         0.0443
@<TRIPOS>BOND
     1    1    2 1
     2    1   40 1
     3    1   41 1
     4    1   42 1
     5    2    7 ar
     6    2    3 ar
     7    3    4 ar
     8    3   43 1
     9    4    5 ar
    10    4   44 1
    11    5    6 ar
    12    5    8 1
    13    6    7 ar
    14    6   45 1
    15    7   46 1
    16    8   12 1
    17    8    9 1
    18    9   10 2
    19    9   17 1
    20   10   11 1
    21   10   47 1
    22   11   12 2
    23   11   13 1
    24   13   14 1
    25   13   15 1
    26   13   16 1
    27   14   48 1
    28   14   49 1
    29   14   50 1
    30   15   51 1
    31   15   52 1
    32   15   53 1
    33   16   54 1
    34   16   55 1
    35   16   56 1
    36   17   18 am
    37   17   57 1
    38   18   19 2
    39   18   20 am
    40   20   21 1
    41   20   58 1
    42   21   26 ar
    43   21   22 ar
    44   22   23 ar
    45   22   59 1
    46   23   24 ar
    47   23   60 1
    48   24   25 ar
    49   24   31 1
    50   25   30 ar
    51   25   26 ar
    52   26   27 ar
    53   27   28 ar
    54   27   61 1
    55   28   29 ar
    56   28   62 1
    57   29   30 ar
    58   29   63 1
    59   30   64 1
    60   31   32 1
    61   32   33 1
    62   32   65 1
    63   32   66 1
    64   33   34 1
    65   33   67 1
    66   33   68 1
    67   34   39 1
    68   34   35 1
    69   35   36 1
    70   35   69 1
    71   35   70 1
    72   36   37 1
    73   36   71 1
    74   36   72 1
    75   37   38 1
    76   38   39 1
    77   38   73 1
    78   38   74 1
    79   39   75 1
    80   39   76 1
@<TRIPOS>MOLECULE
ZINC05932684
   50    53     0     0     0
SMALL
USER_CHARGES
3-[3-[[(2S)-2,3-dihydroxypropyl]amino]phenyl]-4-(5-fluoro-1-methyl-indol-3-yl)pyrrole-2,5-dione
@<TRIPOS>ATOM
      1 C1          1.8520    4.5431    0.0093 C.3       1 <0>         0.0726
      2 N1          0.8716    3.4545    0.0123 N.pl3     1 <0>        -0.4693
      3 C2         -0.4742    3.6256    0.0261 C.2       1 <0>         0.1108
      4 C3         -1.0941    2.3952    0.0195 C.2       1 <0>        -0.1478
      5 C4         -0.0168    1.3885    0.0097 C.ar      1 <0>        -0.0457
      6 C5          1.1878    2.1100    0.0020 C.ar      1 <0>         0.0816
      7 C6          2.3956    1.4207   -0.0137 C.ar      1 <0>        -0.0897
      8 C7          2.4023    0.0424   -0.0211 C.ar      1 <0>        -0.1331
      9 C8          1.2107   -0.6707   -0.0131 C.ar      1 <0>         0.0833
     10 C9          0.0021   -0.0041    0.0020 C.ar      1 <0>        -0.1096
     11 F1          1.2344   -2.0214   -0.0206 F         1 <0>        -0.1388
     12 C10        -2.5397    2.1376    0.0230 C.2       1 <0>        -0.0174
     13 C11        -3.4166    2.2800   -1.0445 C.2       1 <0>        -0.0749
     14 C12        -4.7473    1.9011   -0.5367 C.2       1 <0>         0.5603
     15 O1         -5.7765    1.8987   -1.1830 O.2       1 <0>        -0.4467
     16 N2         -4.6360    1.5589    0.7576 N.am      1 <0>        -0.6894
     17 C13        -3.3599    1.6660    1.1659 C.2       1 <0>         0.5550
     18 O2         -2.9485    1.4209    2.2815 O.2       1 <0>        -0.4424
     19 C14        -3.0827    2.7229   -2.4137 C.ar      1 <0>         0.0137
     20 C15        -2.6250    4.0243   -2.6378 C.ar      1 <0>        -0.1476
     21 C16        -2.3089    4.4333   -3.9167 C.ar      1 <0>        -0.0706
     22 C17        -2.4532    3.5632   -4.9818 C.ar      1 <0>        -0.1871
     23 C18        -2.9132    2.2681   -4.7706 C.ar      1 <0>         0.2196
     24 C19        -3.2287    1.8450   -3.4888 C.ar      1 <0>        -0.1595
     25 N3         -3.0580    1.3936   -5.8502 N.pl3     1 <0>        -0.7407
     26 C20        -2.7246    1.8408   -7.2049 C.3       1 <0>         0.0967
     27 C21        -2.9706    0.6995   -8.1937 C.3       1 <0>         0.0964
     28 H1         -4.0196    0.4058   -8.1559 H         1 <0>         0.1125
     29 C22        -2.6224    1.1665   -9.6085 C.3       1 <0>         0.0474
     30 O3         -2.9614    0.1420  -10.5452 O.3       1 <0>        -0.5627
     31 O4         -2.1503   -0.4176   -7.8455 O.3       1 <0>        -0.5474
     32 H2          2.0857    4.8187   -1.0191 H         1 <0>         0.0769
     33 H3          1.4386    5.4058    0.5316 H         1 <0>         0.0888
     34 H4          2.7611    4.2147    0.5130 H         1 <0>         0.0861
     35 H5         -0.9814    4.5791    0.0355 H         1 <0>         0.1794
     36 H6          3.3282    1.9653   -0.0204 H         1 <0>         0.1325
     37 H7          3.3430   -0.4880   -0.0330 H         1 <0>         0.1410
     38 H8         -0.9241   -0.5595    0.0075 H         1 <0>         0.1323
     39 H9         -5.3732    1.2709    1.3184 H         1 <0>         0.4305
     40 H10        -2.5152    4.7084   -1.8094 H         1 <0>         0.1196
     41 H11        -1.9514    5.4381   -4.0874 H         1 <0>         0.1254
     42 H12        -2.2080    3.8907   -5.9813 H         1 <0>         0.1211
     43 H13        -3.5865    0.8396   -3.3228 H         1 <0>         0.1231
     44 H14        -3.3792    0.4903   -5.7030 H         1 <0>         0.4066
     45 H15        -3.3503    2.6929   -7.4705 H         1 <0>         0.0722
     46 H16        -1.6756    2.1345   -7.2427 H         1 <0>         0.0652
     47 H17        -3.1838    2.0715   -9.8408 H         1 <0>         0.0584
     48 H18        -1.5544    1.3757   -9.6695 H         1 <0>         0.0524
     49 H19        -2.7674    0.3699  -11.4648 H         1 <0>         0.3833
     50 H20        -1.2021   -0.2285   -7.8583 H         1 <0>         0.3759
@<TRIPOS>BOND
     1    1    2 1
     2    1   32 1
     3    1   33 1
     4    1   34 1
     5    2    6 1
     6    2    3 1
     7    3    4 2
     8    3   35 1
     9    4    5 1
    10    4   12 1
    11    5   10 ar
    12    5    6 ar
    13    6    7 ar
    14    7    8 ar
    15    7   36 1
    16    8    9 ar
    17    8   37 1
    18    9   10 ar
    19    9   11 1
    20   10   38 1
    21   12   17 1
    22   12   13 2
    23   13   14 1
    24   13   19 1
    25   14   15 2
    26   14   16 am
    27   16   17 am
    28   16   39 1
    29   17   18 2
    30   19   24 ar
    31   19   20 ar
    32   20   21 ar
    33   20   40 1
    34   21   22 ar
    35   21   41 1
    36   22   23 ar
    37   22   42 1
    38   23   24 ar
    39   23   25 1
    40   24   43 1
    41   25   26 1
    42   25   44 1
    43   26   27 1
    44   26   45 1
    45   26   46 1
    46   27   28 1
    47   27   29 1
    48   27   31 1
    49   29   30 1
    50   29   47 1
    51   29   48 1
    52   30   49 1
    53   31   50 1
@<TRIPOS>MOLECULE
ZINC12501080
   50    53     0     0     0
SMALL
USER_CHARGES
3-[3-[[(2R)-2,3-dihydroxypropyl]amino]phenyl]-4-(5-fluoro-1-methyl-indol-3-yl)pyrrole-2,5-dione
@<TRIPOS>ATOM
      1 C1          7.9960    8.6641    5.2309 C.3       1 <0>         0.0725
      2 N1          6.7497    9.1520    4.6353 N.pl3     1 <0>        -0.4693
      3 C2          6.6022    9.5111    3.3353 C.2       1 <0>         0.1109
      4 C3          5.3062    9.9245    3.1168 C.2       1 <0>        -0.1479
      5 C4          4.6061    9.7932    4.4078 C.ar      1 <0>        -0.0456
      6 C5          5.5586    9.3064    5.3175 C.ar      1 <0>         0.0816
      7 C6          5.1867    9.0788    6.6381 C.ar      1 <0>        -0.0896
      8 C7          3.8932    9.3299    7.0426 C.ar      1 <0>        -0.1332
      9 C8          2.9516    9.8113    6.1425 C.ar      1 <0>         0.0831
     10 C9          3.3022   10.0438    4.8279 C.ar      1 <0>        -0.1098
     11 F1          1.6878   10.0524    6.5549 F         1 <0>        -0.1389
     12 C10         4.7345   10.3959    1.8492 C.2       1 <0>        -0.0174
     13 C11         4.3897    9.6221    0.7487 C.2       1 <0>        -0.0750
     14 C12         3.8564   10.5555   -0.2594 C.2       1 <0>         0.5602
     15 O1          3.4446   10.2476   -1.3606 O.2       1 <0>        -0.4463
     16 N2          3.8999   11.8025    0.2386 N.am      1 <0>        -0.6894
     17 C13         4.4103   11.7964    1.4819 C.2       1 <0>         0.5551
     18 O2          4.5743   12.7713    2.1867 O.2       1 <0>        -0.4425
     19 C14         4.5245    8.1568    0.6175 C.ar      1 <0>         0.0137
     20 C15         5.7914    7.5666    0.6147 C.ar      1 <0>        -0.1477
     21 C16         5.9142    6.1981    0.4924 C.ar      1 <0>        -0.0706
     22 C17         4.7870    5.4053    0.3777 C.ar      1 <0>        -0.1870
     23 C18         3.5222    5.9828    0.3740 C.ar      1 <0>         0.2196
     24 C19         3.3872    7.3570    0.4963 C.ar      1 <0>        -0.1595
     25 N3          2.3871    5.1776    0.2529 N.pl3     1 <0>        -0.7410
     26 C20         2.5297    3.7253    0.1236 C.3       1 <0>         0.0972
     27 C21         1.1449    3.0852    0.0077 C.3       1 <0>         0.0964
     28 H1          0.5324    3.3879    0.8570 H         1 <0>         0.1122
     29 C22         1.2864    1.5618   -0.0018 C.3       1 <0>         0.0474
     30 O3         -0.0110    0.9628    0.0073 O.3       1 <0>        -0.5628
     31 O4          0.5223    3.5133   -1.2052 O.3       1 <0>        -0.5475
     32 H2          8.0425    7.5790    5.1383 H         1 <0>         0.0768
     33 H3          8.8452    9.1096    4.7126 H         1 <0>         0.0889
     34 H4          8.0278    8.9405    6.2848 H         1 <0>         0.0863
     35 H5          7.3811    9.4801    2.5878 H         1 <0>         0.1794
     36 H6          5.9110    8.7045    7.3464 H         1 <0>         0.1325
     37 H7          3.6094    9.1511    8.0692 H         1 <0>         0.1410
     38 H8          2.5690   10.4178    4.1286 H         1 <0>         0.1323
     39 H9          3.6042   12.5966   -0.2335 H         1 <0>         0.4306
     40 H10         6.6741    8.1818    0.7086 H         1 <0>         0.1196
     41 H11         6.8941    5.7438    0.4905 H         1 <0>         0.1255
     42 H12         4.8896    4.3340    0.2864 H         1 <0>         0.1211
     43 H13         2.4055    7.8070    0.4981 H         1 <0>         0.1231
     44 H14         1.5046    5.5800    0.2544 H         1 <0>         0.4060
     45 H15         3.0400    3.3307    1.0023 H         1 <0>         0.0714
     46 H16         3.1121    3.4953   -0.7686 H         1 <0>         0.0663
     47 H17         1.8401    1.2428    0.8812 H         1 <0>         0.0582
     48 H18         1.8231    1.2523   -0.8987 H         1 <0>         0.0528
     49 H19         0.0021   -0.0041    0.0020 H         1 <0>         0.3833
     50 H20         1.0134    3.2774   -2.0040 H         1 <0>         0.3762
@<TRIPOS>BOND
     1    1    2 1
     2    1   32 1
     3    1   33 1
     4    1   34 1
     5    2    6 1
     6    2    3 1
     7    3    4 2
     8    3   35 1
     9    4    5 1
    10    4   12 1
    11    5   10 ar
    12    5    6 ar
    13    6    7 ar
    14    7    8 ar
    15    7   36 1
    16    8    9 ar
    17    8   37 1
    18    9   10 ar
    19    9   11 1
    20   10   38 1
    21   12   17 1
    22   12   13 2
    23   13   14 1
    24   13   19 1
    25   14   15 2
    26   14   16 am
    27   16   17 am
    28   16   39 1
    29   17   18 2
    30   19   24 ar
    31   19   20 ar
    32   20   21 ar
    33   20   40 1
    34   21   22 ar
    35   21   41 1
    36   22   23 ar
    37   22   42 1
    38   23   24 ar
    39   23   25 1
    40   24   43 1
    41   25   26 1
    42   25   44 1
    43   26   27 1
    44   26   45 1
    45   26   46 1
    46   27   28 1
    47   27   29 1
    48   27   31 1
    49   29   30 1
    50   29   47 1
    51   29   48 1
    52   30   49 1
    53   31   50 1
@<TRIPOS>MOLECULE
ZINC58655676
   55    57     0     0     0
SMALL
USER_CHARGES

@<TRIPOS>ATOM
      1 C1          0.5488    1.6611   -0.2219 C.3       1 <0>        -0.1411
      2 C2          0.4334    0.1368   -0.1575 C.3       1 <0>        -0.0014
      3 C3          1.1752   -0.3791    1.0772 C.3       1 <0>        -0.1412
      4 C4         -1.0195   -0.2538   -0.0701 C.2       1 <0>        -0.2596
      5 C5         -1.9098    0.1168    0.9294 C.2       1 <0>         0.1117
      6 N1         -3.0838   -0.4099    0.6710 N.2       1 <0>        -0.3361
      7 N2         -2.9973   -1.1475   -0.5153 N.pl3     1 <0>        -0.3639
      8 C6         -1.7117   -1.0440   -0.9772 C.2       1 <0>         0.3466
      9 N3         -1.3417   -1.6548   -2.1127 N.2       1 <0>        -0.5767
     10 C7         -2.2072   -2.3671   -2.8134 C.2       1 <0>         0.4953
     11 C8         -3.5350   -2.4948   -2.3753 C.2       1 <0>        -0.3671
     12 C9         -3.9182   -1.8828   -1.2175 C.2       1 <0>         0.5060
     13 N4         -5.2172   -1.9910   -0.7665 N.pl3     1 <0>        -0.7101
     14 C10        -6.1925   -2.7789   -1.5242 C.3       1 <0>         0.1679
     15 C11        -7.5259   -2.7365   -0.8233 C.ar      1 <0>        -0.1184
     16 C12        -7.8360   -3.6880    0.1303 C.ar      1 <0>        -0.0961
     17 C13        -9.0591   -3.6491    0.7733 C.ar      1 <0>        -0.1212
     18 C14        -9.9719   -2.6584    0.4630 C.ar      1 <0>        -0.1053
     19 C15        -9.6614   -1.7064   -0.4899 C.ar      1 <0>        -0.1214
     20 C16        -8.4366   -1.7427   -1.1298 C.ar      1 <0>        -0.0963
     21 N5         -1.8032   -2.9889   -3.9834 N.pl3     1 <0>        -0.6918
     22 C17        -0.4184   -2.8566   -4.4427 C.3       1 <0>         0.1320
     23 H1         -0.0468   -1.8624   -4.1947 H         1 <0>         0.1085
     24 C18         0.4500   -3.9119   -3.7549 C.3       1 <0>         0.0700
     25 O1          0.0275   -5.2151   -4.1614 O.3       1 <0>        -0.5699
     26 C19        -0.3623   -3.0587   -5.9582 C.3       1 <0>         0.1075
     27 H2         -0.7661   -4.0395   -6.2092 H         1 <0>         0.1172
     28 C20        -1.1915   -1.9738   -6.6485 C.3       1 <0>         0.0440
     29 O2         -1.2351   -2.2295   -8.0537 O.3       1 <0>        -0.5625
     30 O3          0.9941   -2.9748   -6.4001 O.3       1 <0>        -0.5390
     31 H3          1.5996    1.9436   -0.2851 H         1 <0>         0.0538
     32 H4          0.0202    2.0286   -1.1015 H         1 <0>         0.0506
     33 H5          0.1086    2.0970    0.6749 H         1 <0>         0.0520
     34 H6          0.8736   -0.2992   -1.0543 H         1 <0>         0.0769
     35 H7          2.2261   -0.0966    1.0141 H         1 <0>         0.0538
     36 H8          0.7351    0.0569    1.9741 H         1 <0>         0.0520
     37 H9          1.0931   -1.4650    1.1232 H         1 <0>         0.0506
     38 H10        -1.6741    0.7374    1.7813 H         1 <0>         0.1890
     39 H11        -4.2442   -3.0761   -2.9458 H         1 <0>         0.1543
     40 H12        -5.4849   -1.5453    0.0524 H         1 <0>         0.4169
     41 H13        -6.2955   -2.3630   -2.5265 H         1 <0>         0.0824
     42 H14        -5.8507   -3.8116   -1.5927 H         1 <0>         0.0828
     43 H15        -7.1229   -4.4620    0.3727 H         1 <0>         0.1248
     44 H16        -9.3017   -4.3929    1.5178 H         1 <0>         0.1267
     45 H17       -10.9277   -2.6285    0.9648 H         1 <0>         0.1260
     46 H18       -10.3746   -0.9326   -0.7326 H         1 <0>         0.1266
     47 H19        -8.1925   -0.9967   -1.8716 H         1 <0>         0.1246
     48 H20        -2.4372   -3.5119   -4.4985 H         1 <0>         0.4145
     49 H21         1.4927   -3.7638   -4.0361 H         1 <0>         0.0598
     50 H22         0.3484   -3.8178   -2.6738 H         1 <0>         0.0555
     51 H23         0.5354   -5.9352   -3.7633 H         1 <0>         0.3813
     52 H24        -2.2046   -1.9800   -6.2464 H         1 <0>         0.0549
     53 H25        -0.7358   -0.9998   -6.4704 H         1 <0>         0.0491
     54 H26        -1.7454   -1.5796   -8.5561 H         1 <0>         0.3802
     55 H27         1.4409   -2.1559   -6.1452 H         1 <0>         0.3731
@<TRIPOS>BOND
     1    1    2 1
     2    1   31 1
     3    1   32 1
     4    1   33 1
     5    2    3 1
     6    2    4 1
     7    2   34 1
     8    3   35 1
     9    3   36 1
    10    3   37 1
    11    4    8 2
    12    4    5 1
    13    5    6 2
    14    5   38 1
    15    6    7 1
    16    7   12 1
    17    7    8 1
    18    8    9 1
    19    9   10 2
    20   10   11 1
    21   10   21 1
    22   11   12 2
    23   11   39 1
    24   12   13 1
    25   13   14 1
    26   13   40 1
    27   14   15 1
    28   14   41 1
    29   14   42 1
    30   15   20 ar
    31   15   16 ar
    32   16   17 ar
    33   16   43 1
    34   17   18 ar
    35   17   44 1
    36   18   19 ar
    37   18   45 1
    38   19   20 ar
    39   19   46 1
    40   20   47 1
    41   21   22 1
    42   21   48 1
    43   22   23 1
    44   22   24 1
    45   22   26 1
    46   24   25 1
    47   24   49 1
    48   24   50 1
    49   25   51 1
    50   26   27 1
    51   26   28 1
    52   26   30 1
    53   28   29 1
    54   28   52 1
    55   28   53 1
    56   29   54 1
    57   30   55 1
@<TRIPOS>MOLECULE
ZINC01493878
   48    50     0     0     0
SMALL
USER_CHARGES

@<TRIPOS>ATOM
      1 C1         -1.0955   -5.0083   -6.9234 C.3       1 <0>         0.0847
      2 N1         -1.5520   -4.3038   -5.7228 N.am      1 <0>        -0.7137
      3 C2         -1.8827   -5.0004   -4.6175 C.2       1 <0>         0.5696
      4 O1         -1.8023   -6.2129   -4.6168 O.2       1 <0>        -0.5284
      5 C3         -2.3445   -4.2878   -3.4031 C.ar      1 <0>         0.1129
      6 C4         -2.6788   -5.0128   -2.2640 C.ar      1 <0>        -0.1883
      7 C5         -3.1110   -4.3279   -1.1310 C.ar      1 <0>         0.1595
      8 C6         -3.1903   -2.9389   -1.1877 C.ar      1 <0>        -0.1766
      9 C7         -2.8404   -2.2885   -2.3571 C.ar      1 <0>         0.1349
     10 N2         -2.4302   -2.9626   -3.4105 N.ar      1 <0>        -0.4815
     11 O2         -3.4471   -4.9979    0.0005 O.3       1 <0>        -0.2437
     12 C8         -3.4462   -6.3570   -0.0383 C.ar      1 <0>         0.0568
     13 C9         -2.2447   -7.0505   -0.0178 C.ar      1 <0>        -0.1074
     14 C10        -2.2431   -8.4307   -0.0577 C.ar      1 <0>        -0.1009
     15 C11        -3.4442   -9.1246   -0.1179 C.ar      1 <0>         0.1671
     16 C12        -4.6464   -8.4301   -0.1379 C.ar      1 <0>        -0.1272
     17 C13        -4.6469   -7.0500   -0.0928 C.ar      1 <0>        -0.0940
     18 N3         -3.4432  -10.5252   -0.1588 N.am      1 <0>        -0.6776
     19 C14        -2.5108  -11.2187    0.5239 C.2       1 <0>         0.7077
     20 O3         -1.6217  -10.6297    1.1080 O.2       1 <0>        -0.5493
     21 N4         -2.5639  -12.5649    0.5593 N.am      1 <0>        -0.6795
     22 C15        -1.6655  -13.2800    1.3600 C.ar      1 <0>         0.1700
     23 C16        -1.2529  -12.7583    2.5792 C.ar      1 <0>        -0.0742
     24 C17        -0.3670  -13.4659    3.3674 C.ar      1 <0>        -0.0871
     25 C18         0.1097  -14.6941    2.9434 C.ar      1 <0>        -0.0077
     26 C19        -0.2993  -15.2159    1.7290 C.ar      1 <0>        -0.1564
     27 C20        -1.1898  -14.5147    0.9394 C.ar      1 <0>        -0.0879
     28 C21         0.2222  -16.5533    1.2702 C.3       1 <0>         0.5112
     29 F1         -0.3299  -16.8663    0.0234 F         1 <0>        -0.1743
     30 F2          1.6160  -16.4983    1.1626 F         1 <0>        -0.1671
     31 F3         -0.1354  -17.5367    2.1987 F         1 <0>        -0.1677
     32 Cl1         1.2234  -15.5812    3.9366 Cl        1 <0>        -0.0394
     33 H1         -0.8760   -4.2843   -7.7081 H         1 <0>         0.0803
     34 H2         -0.1948   -5.5764   -6.6909 H         1 <0>         0.0631
     35 H3         -1.8761   -5.6883   -7.2645 H         1 <0>         0.0629
     36 H4         -1.6162   -3.3359   -5.7233 H         1 <0>         0.4141
     37 H5         -2.6047   -6.0902   -2.2584 H         1 <0>         0.1546
     38 H6         -3.5217   -2.3755   -0.3280 H         1 <0>         0.1523
     39 H7         -2.9005   -1.2112   -2.4052 H         1 <0>         0.1747
     40 H8         -1.3104   -6.5106    0.0290 H         1 <0>         0.1364
     41 H9         -1.3078   -8.9704   -0.0424 H         1 <0>         0.1514
     42 H10        -5.5809   -8.9693   -0.1851 H         1 <0>         0.1386
     43 H11        -5.5820   -6.5098   -0.1039 H         1 <0>         0.1400
     44 H12        -4.1137  -10.9957   -0.6785 H         1 <0>         0.4131
     45 H13        -3.2246  -13.0383    0.0299 H         1 <0>         0.4146
     46 H14        -1.6244  -11.7997    2.9103 H         1 <0>         0.1546
     47 H15        -0.0456  -13.0604    4.3154 H         1 <0>         0.1524
     48 H16        -1.5123  -14.9245   -0.0064 H         1 <0>         0.1525
@<TRIPOS>BOND
     1    1    2 1
     2    1   33 1
     3    1   34 1
     4    1   35 1
     5    2    3 am
     6    2   36 1
     7    3    4 2
     8    3    5 1
     9    5   10 ar
    10    5    6 ar
    11    6    7 ar
    12    6   37 1
    13    7    8 ar
    14    7   11 1
    15    8    9 ar
    16    8   38 1
    17    9   10 ar
    18    9   39 1
    19   11   12 1
    20   12   17 ar
    21   12   13 ar
    22   13   14 ar
    23   13   40 1
    24   14   15 ar
    25   14   41 1
    26   15   16 ar
    27   15   18 1
    28   16   17 ar
    29   16   42 1
    30   17   43 1
    31   18   19 am
    32   18   44 1
    33   19   20 2
    34   19   21 am
    35   21   22 1
    36   21   45 1
    37   22   27 ar
    38   22   23 ar
    39   23   24 ar
    40   23   46 1
    41   24   25 ar
    42   24   47 1
    43   25   26 ar
    44   25   32 1
    45   26   27 ar
    46   26   28 1
    47   27   48 1
    48   28   29 1
    49   28   30 1
    50   28   31 1
@<TRIPOS>MOLECULE
ZINC03814434
   62    69     0     0     0
SMALL
USER_CHARGES

@<TRIPOS>ATOM
      1 C1         -0.1295    1.5952   -0.2973 C.3       1 <0>        -0.1687
      2 C2         -0.0862    0.0696   -0.1900 C.3       1 <0>         0.3342
      3 C3          0.5692   -0.4501   -1.4637 C.3       1 <0>         0.0405
      4 H1          1.4796    0.1159   -1.6612 H         1 <0>         0.1372
      5 C4          0.9167   -1.9328   -1.2889 C.3       1 <0>        -0.0061
      6 H2          1.3963   -2.3075   -2.1932 H         1 <0>         0.1555
      7 C5          1.8785   -2.0596   -0.1021 C.3       1 <0>        -0.1827
      8 C6          1.2061   -1.5198    1.1541 C.3       1 <0>         0.2999
      9 H3          1.9797   -1.4243    1.9161 H         1 <0>         0.1550
     10 O1          0.6555   -0.2442    0.9666 O.3       1 <0>        -0.3234
     11 N1          0.2189   -2.4746    1.6600 N.pl3     1 <0>        -0.5366
     12 C7          0.4705   -3.5508    2.4739 C.ar      1 <0>         0.1469
     13 C8          1.6649   -4.0152    3.0240 C.ar      1 <0>        -0.1522
     14 C9          1.5948   -5.1456    3.8201 C.ar      1 <0>        -0.0582
     15 C10         0.4006   -5.7997    4.0696 C.ar      1 <0>        -0.1457
     16 C11        -0.7984   -5.3597    3.5358 C.ar      1 <0>        -0.0280
     17 C12        -0.7487   -4.2198    2.7307 C.ar      1 <0>        -0.1131
     18 C13        -1.7893   -3.4830    2.0197 C.ar      1 <0>         0.0276
     19 C14        -1.1442   -2.4197    1.3841 C.ar      1 <0>         0.0376
     20 C15        -1.8806   -1.5095    0.6175 C.ar      1 <0>         0.0894
     21 N2         -1.4718   -0.3951   -0.1095 N.pl3     1 <0>        -0.5183
     22 C16        -2.5611    0.1913   -0.7090 C.ar      1 <0>         0.1618
     23 C17        -2.6521    1.3277   -1.5118 C.ar      1 <0>        -0.1305
     24 C18        -3.9109    1.6745   -1.9733 C.ar      1 <0>        -0.0737
     25 C19        -5.0393    0.9368   -1.6616 C.ar      1 <0>        -0.1358
     26 C20        -4.9745   -0.1955   -0.8662 C.ar      1 <0>        -0.0503
     27 C21        -3.7147   -0.5596   -0.3919 C.ar      1 <0>        -0.1042
     28 C22        -3.2693   -1.6660    0.4845 C.ar      1 <0>        -0.0360
     29 C23        -3.9084   -2.7313    1.1102 C.ar      1 <0>        -0.0288
     30 C24        -3.1873   -3.6421    1.8754 C.ar      1 <0>        -0.1255
     31 C25        -4.1221   -4.6480    2.4030 C.2       1 <0>         0.5632
     32 O2         -3.8062   -5.5851    3.1110 O.2       1 <0>        -0.5106
     33 N3         -5.3744   -4.3851    1.9926 N.am      1 <0>        -0.7162
     34 C26        -5.3495   -3.1771    1.1601 C.3       1 <0>         0.1358
     35 N4         -0.3067   -2.7008   -1.0216 N.4       1 <0>        -0.5252
     36 C27         0.0145   -4.1336   -0.9773 C.3       1 <0>        -0.0497
     37 O3         -0.3340   -0.2979   -2.5607 O.3       1 <0>        -0.3614
     38 C28         0.3101   -0.0933   -3.8198 C.3       1 <0>         0.0162
     39 H4          0.8261    2.0094    0.0240 H         1 <0>         0.0984
     40 H5         -0.3202    1.8814   -1.3317 H         1 <0>         0.1036
     41 H6         -0.9255    1.9818    0.3392 H         1 <0>         0.0921
     42 H7          2.1370   -3.1081    0.0458 H         1 <0>         0.1233
     43 H8          2.7835   -1.4869   -0.3048 H         1 <0>         0.1455
     44 H9          2.6036   -3.5149    2.8368 H         1 <0>         0.1365
     45 H10         2.5026   -5.5304    4.2610 H         1 <0>         0.1359
     46 H11         0.4045   -6.6780    4.6980 H         1 <0>         0.1352
     47 H12        -1.7278   -5.8736    3.7323 H         1 <0>         0.1600
     48 H13        -1.7792    1.9122   -1.7624 H         1 <0>         0.1440
     49 H14        -4.0153    2.5500   -2.5970 H         1 <0>         0.1336
     50 H15        -5.9967    1.2527   -2.0488 H         1 <0>         0.1332
     51 H16        -5.8575   -0.7687   -0.6249 H         1 <0>         0.1415
     52 H17        -6.1628   -4.9065    2.2103 H         1 <0>         0.4348
     53 H18        -5.9671   -2.3994    1.6094 H         1 <0>         0.1115
     54 H19        -5.7060   -3.4063    0.1559 H         1 <0>         0.1103
     55 H20        -0.6958   -2.4158   -0.1353 H         1 <0>         0.4186
     56 H21         0.4349   -4.4415   -1.9347 H         1 <0>         0.1256
     57 H22         0.7403   -4.3189   -0.1854 H         1 <0>         0.1191
     58 H23        -0.8932   -4.7035   -0.7789 H         1 <0>         0.1256
     59 H24         0.9168    0.8112   -3.7748 H         1 <0>         0.0633
     60 H25         0.9482   -0.9479   -4.0446 H         1 <0>         0.0514
     61 H26        -0.4433    0.0130   -4.6003 H         1 <0>         0.1100
     62 H27        -0.9785   -2.5293   -1.7546 H         1 <0>         0.4274
@<TRIPOS>BOND
     1    1    2 1
     2    1   39 1
     3    1   40 1
     4    1   41 1
     5    2   10 1
     6    2   21 1
     7    2    3 1
     8    3    4 1
     9    3    5 1
    10    3   37 1
    11    5    6 1
    12    5    7 1
    13    5   35 1
    14    7    8 1
    15    7   42 1
    16    7   43 1
    17    8    9 1
    18    8   10 1
    19    8   11 1
    20   11   19 1
    21   11   12 1
    22   12   17 ar
    23   12   13 ar
    24   13   14 ar
    25   13   44 1
    26   14   15 ar
    27   14   45 1
    28   15   16 ar
    29   15   46 1
    30   16   17 ar
    31   16   47 1
    32   17   18 1
    33   18   30 ar
    34   18   19 ar
    35   19   20 ar
    36   20   28 ar
    37   20   21 1
    38   21   22 1
    39   22   27 ar
    40   22   23 ar
    41   23   24 ar
    42   23   48 1
    43   24   25 ar
    44   24   49 1
    45   25   26 ar
    46   25   50 1
    47   26   27 ar
    48   26   51 1
    49   27   28 1
    50   28   29 ar
    51   29   34 1
    52   29   30 ar
    53   30   31 1
    54   31   32 2
    55   31   33 am
    56   33   34 1
    57   33   52 1
    58   34   53 1
    59   34   54 1
    60   35   36 1
    61   35   55 1
    62   35   62 1
    63   36   56 1
    64   36   57 1
    65   36   58 1
    66   37   38 1
    67   38   59 1
    68   38   60 1
    69   38   61 1
@<TRIPOS>MOLECULE
ZINC03938688
   39    41     0     0     0
SMALL
USER_CHARGES

@<TRIPOS>ATOM
      1 C1         -0.0095    1.3826    0.0704 C.ar      1 <0>        -0.0343
      2 C2          0.5587    1.0580   -1.1482 C.ar      1 <0>        -0.1609
      3 C3          1.7655    0.3862   -1.1955 C.ar      1 <0>         0.1753
      4 C4          2.4129    0.0342   -0.0053 C.ar      1 <0>        -0.1954
      5 C5          1.8304    0.3669    1.2233 C.ar      1 <0>         0.1741
      6 C6          0.6231    1.0388    1.2514 C.ar      1 <0>        -0.1610
      7 F1          2.4463    0.0317    2.3781 F         1 <0>        -0.1212
      8 C7          3.6999   -0.6827   -0.0456 C.2       1 <0>         0.6210
      9 O1          4.7383   -0.0615   -0.1600 O.2       1 <0>        -0.4669
     10 N1          3.7255   -2.0272    0.0446 N.am      1 <0>        -0.3962
     11 C8          4.8314   -2.8210    0.1249 C.2       1 <0>         0.5948
     12 N2          4.4249   -4.0694    0.1979 N.2       1 <0>        -0.5873
     13 C9          3.0869   -4.1118    0.1675 C.2       1 <0>         0.5191
     14 N3          2.6183   -2.8904    0.0808 N.2       1 <0>        -0.3480
     15 N4          2.3148   -5.2702    0.2247 N.pl3     1 <0>        -0.6226
     16 C10         2.9267   -6.5079    0.4407 C.ar      1 <0>         0.2365
     17 C11         4.1432   -6.5760    1.1080 C.ar      1 <0>        -0.1584
     18 C12         4.7450   -7.8008    1.3202 C.ar      1 <0>         0.0098
     19 C13         4.1379   -8.9586    0.8692 C.ar      1 <0>        -0.7033
     20 C14         2.9269   -8.8944    0.2046 C.ar      1 <0>         0.0112
     21 C15         2.3170   -7.6734   -0.0063 C.ar      1 <0>        -0.1777
     22 S1          4.9094  -10.5191    1.1415 S.o2      1 <0>         2.7034
     23 O2          4.4084  -11.3993    0.1448 O.2       1 <0>        -0.9656
     24 O3          6.2977  -10.2630    1.3036 O.2       1 <0>        -0.9650
     25 N5          4.3605  -11.0895    2.5960 N.pl3     1 <0>        -1.2510
     26 N6          6.1422   -2.3912    0.1281 N.pl3     1 <0>        -0.7911
     27 F2          2.3185    0.0697   -2.3868 F         1 <0>        -0.1201
     28 H1         -0.9506    1.9116    0.0998 H         1 <0>         0.1546
     29 H2          0.0576    1.3300   -2.0654 H         1 <0>         0.1549
     30 H3          0.1721    1.2963    2.1984 H         1 <0>         0.1546
     31 H4          1.3525   -5.2176    0.1147 H         1 <0>         0.4325
     32 H5          4.6180   -5.6722    1.4601 H         1 <0>         0.1556
     33 H6          5.6909   -7.8544    1.8385 H         1 <0>         0.1456
     34 H7          2.4556   -9.8005   -0.1466 H         1 <0>         0.1475
     35 H8          1.3691   -7.6243   -0.5215 H         1 <0>         0.1387
     36 H9          3.7284  -10.5673    3.1145 H         1 <0>         0.4165
     37 H10         4.6709  -11.9458    2.9296 H         1 <0>         0.4206
     38 H11         6.3422   -1.4439    0.0694 H         1 <0>         0.4292
     39 H12         6.8640   -3.0364    0.1890 H         1 <0>         0.4303
@<TRIPOS>BOND
     1    1    6 ar
     2    1    2 ar
     3    1   28 1
     4    2    3 ar
     5    2   29 1
     6    3    4 ar
     7    3   27 1
     8    4    5 ar
     9    4    8 1
    10    5    6 ar
    11    5    7 1
    12    6   30 1
    13    8    9 2
    14    8   10 am
    15   10   14 1
    16   10   11 1
    17   11   12 2
    18   11   26 1
    19   12   13 1
    20   13   14 2
    21   13   15 1
    22   15   16 1
    23   15   31 1
    24   16   21 ar
    25   16   17 ar
    26   17   18 ar
    27   17   32 1
    28   18   19 ar
    29   18   33 1
    30   19   20 ar
    31   19   22 1
    32   20   21 ar
    33   20   34 1
    34   21   35 1
    35   22   23 2
    36   22   24 2
    37   22   25 1
    38   25   36 1
    39   25   37 1
    40   26   38 1
    41   26   39 1
@<TRIPOS>MOLECULE
ZINC06718813
   46    49     0     0     0
SMALL
USER_CHARGES
3-[4-(3-amino-1H-indazol-4-yl)phenyl]-1-(2-fluoro-5-methyl-phenyl)urea
@<TRIPOS>ATOM
      1 C1          6.9492   -0.6708   -4.4566 C.3       1 <0>        -0.1151
      2 C2          7.3188   -0.0066   -3.1554 C.ar      1 <0>        -0.0747
      3 C3          8.6152   -0.0905   -2.6815 C.ar      1 <0>        -0.1060
      4 C4          8.9590    0.5169   -1.4879 C.ar      1 <0>        -0.1295
      5 C5          8.0061    1.2101   -0.7639 C.ar      1 <0>         0.0645
      6 C6          6.7020    1.2957   -1.2387 C.ar      1 <0>         0.1336
      7 C7          6.3607    0.6802   -2.4351 C.ar      1 <0>        -0.0953
      8 N1          5.7336    1.9963   -0.5085 N.am      1 <0>        -0.6783
      9 C8          4.4547    1.5712   -0.5040 C.2       1 <0>         0.7069
     10 O1          4.1265    0.6239   -1.1921 O.2       1 <0>        -0.5500
     11 N2          3.5395    2.1961    0.2631 N.am      1 <0>        -0.6801
     12 C9          2.2409    1.6865    0.3572 C.ar      1 <0>         0.1677
     13 C10         1.1632    2.5541    0.4899 C.ar      1 <0>        -0.1430
     14 C11        -0.1180    2.0545    0.5834 C.ar      1 <0>        -0.0892
     15 C12        -0.3326    0.6766    0.5442 C.ar      1 <0>        -0.0682
     16 C13         0.7509   -0.1919    0.4104 C.ar      1 <0>        -0.0779
     17 C14         2.0300    0.3132    0.3174 C.ar      1 <0>        -0.1142
     18 C15        -1.7083    0.1367    0.6449 C.ar      1 <0>         0.0376
     19 C16        -2.0347   -0.7648    1.6483 C.ar      1 <0>        -0.1557
     20 C17        -3.3230   -1.2675    1.7456 C.ar      1 <0>        -0.0592
     21 C18        -4.2968   -0.8911    0.8473 C.ar      1 <0>        -0.1529
     22 C19        -3.9969    0.0086   -0.1734 C.ar      1 <0>         0.1547
     23 C20        -2.6946    0.5292   -0.2801 C.ar      1 <0>        -0.1858
     24 C21        -2.7034    1.4283   -1.4324 C.2       1 <0>         0.3642
     25 N3         -3.9099    1.4169   -1.9352 N.2       1 <0>        -0.3205
     26 N4         -4.7292    0.5606   -1.1926 N.pl3     1 <0>        -0.5119
     27 H1         -5.6955    0.3797   -1.3759 H         1 <0>         0.4473
     28 N5         -1.6172    2.1667   -1.9108 N.pl3     1 <0>        -0.8360
     29 F1          8.3418    1.8036    0.4023 F         1 <0>        -0.1384
     30 H2          6.6188   -1.6912   -4.2627 H         1 <0>         0.0755
     31 H3          6.1436   -0.1125   -4.9335 H         1 <0>         0.0695
     32 H4          7.8178   -0.6890   -5.1149 H         1 <0>         0.0704
     33 H5          9.3607   -0.6319   -3.2448 H         1 <0>         0.1352
     34 H6          9.9724    0.4496   -1.1204 H         1 <0>         0.1410
     35 H7          5.3477    0.7413   -2.8045 H         1 <0>         0.1523
     36 H8          5.9835    2.7876   -0.0061 H         1 <0>         0.4118
     37 H9          3.7818    2.9993    0.7499 H         1 <0>         0.4106
     38 H10         1.3298    3.6208    0.5203 H         1 <0>         0.1310
     39 H11        -0.9554    2.7293    0.6824 H         1 <0>         0.1315
     40 H12         0.5876   -1.2590    0.3794 H         1 <0>         0.1314
     41 H13         2.8692   -0.3587    0.2138 H         1 <0>         0.1391
     42 H14        -1.2822   -1.0738    2.3586 H         1 <0>         0.1292
     43 H15        -3.5651   -1.9655    2.5334 H         1 <0>         0.1325
     44 H16        -5.2951   -1.2940    0.9345 H         1 <0>         0.1278
     45 H17        -0.7342    2.0309   -1.5329 H         1 <0>         0.4118
     46 H18        -1.7465    2.8151   -2.6206 H         1 <0>         0.4050
@<TRIPOS>BOND
     1    1    2 1
     2    1   30 1
     3    1   31 1
     4    1   32 1
     5    2    7 ar
     6    2    3 ar
     7    3    4 ar
     8    3   33 1
     9    4    5 ar
    10    4   34 1
    11    5    6 ar
    12    5   29 1
    13    6    7 ar
    14    6    8 1
    15    7   35 1
    16    8    9 am
    17    8   36 1
    18    9   10 2
    19    9   11 am
    20   11   12 1
    21   11   37 1
    22   12   17 ar
    23   12   13 ar
    24   13   14 ar
    25   13   38 1
    26   14   15 ar
    27   14   39 1
    28   15   16 ar
    29   15   18 1
    30   16   17 ar
    31   16   40 1
    32   17   41 1
    33   18   23 ar
    34   18   19 ar
    35   19   20 ar
    36   19   42 1
    37   20   21 ar
    38   20   43 1
    39   21   22 ar
    40   21   44 1
    41   22   26 1
    42   22   23 ar
    43   23   24 1
    44   24   25 2
    45   24   28 1
    46   25   26 1
    47   26   27 1
    48   28   45 1
    49   28   46 1
@<TRIPOS>MOLECULE
ZINC03816409
   50    52     0     0     0
SMALL
USER_CHARGES
N-[5-[(5-tert-butyloxazol-2-yl)methylsulfanyl]thiazol-2-yl]piperidine-4-carboxamide
@<TRIPOS>ATOM
      1 C1         -0.0127    1.0858    0.0080 C.3       1 <0>        -0.1425
      2 C2         -0.7288    1.5792    1.2668 C.3       1 <0>         0.0153
      3 C3          0.0111    1.0724    2.5063 C.3       1 <0>        -0.1429
      4 C4         -0.7496    3.1091    1.2752 C.3       1 <0>        -0.1470
      5 C5         -2.1426    1.0576    1.2775 C.2       1 <0>        -0.0059
      6 C6         -2.5173   -0.2324    1.2742 C.2       1 <0>        -0.0384
      7 N1         -3.8616   -0.2670    1.2868 N.2       1 <0>        -0.4461
      8 C7         -4.3108    0.9556    1.2976 C.2       1 <0>         0.1754
      9 O1         -3.2687    1.7975    1.2981 O.3       1 <0>        -0.1872
     10 C8         -5.7633    1.3568    1.3132 C.3       1 <0>        -0.0274
     11 S1         -6.3302    1.5091    3.0296 S.3       1 <0>         0.0531
     12 C9         -8.0223    1.9770    2.8797 C.2       1 <0>        -0.2079
     13 C10        -8.9445    2.2293    3.8504 C.2       1 <0>         0.0730
     14 N2        -10.1733    2.5704    3.5096 N.2       1 <0>        -0.4781
     15 C11       -10.5307    2.6731    2.2430 C.2       1 <0>         0.3098
     16 S2         -9.0031    2.2599    1.4114 S.3       1 <0>         0.0397
     17 N3        -11.7659    3.0158    1.7000 N.am      1 <0>        -0.6146
     18 C12       -12.8034    3.3002    2.5119 C.2       1 <0>         0.5107
     19 O2        -12.6609    3.2576    3.7157 O.2       1 <0>        -0.4551
     20 C13       -14.1405    3.6713    1.9241 C.3       1 <0>        -0.1149
     21 C14       -13.9915    4.9332    1.0698 C.3       1 <0>        -0.1461
     22 C15       -15.3628    5.3397    0.5255 C.3       1 <0>         0.0009
     23 C16       -16.4761    4.3789    2.4515 C.3       1 <0>        -0.0009
     24 C17       -15.1380    3.9438    3.0534 C.3       1 <0>        -0.1323
     25 H1          0.0021   -0.0041    0.0020 H         1 <0>         0.0648
     26 H2          1.0099    1.4631    0.0003 H         1 <0>         0.0750
     27 H3         -0.5399    1.4469   -0.8751 H         1 <0>         0.0608
     28 H4          1.0337    1.4497    2.4986 H         1 <0>         0.0751
     29 H5         -0.4990    1.4239    3.4031 H         1 <0>         0.0616
     30 H6          0.0259   -0.0175    2.5003 H         1 <0>         0.0649
     31 H7         -1.2768    3.4701    0.3922 H         1 <0>         0.0605
     32 H8         -1.2598    3.4606    2.1720 H         1 <0>         0.0616
     33 H9          0.2730    3.4864    1.2675 H         1 <0>         0.0706
     34 H10        -1.8578   -1.0876    1.2633 H         1 <0>         0.1891
     35 H11        -5.8813    2.3140    0.8053 H         1 <0>         0.1204
     36 H12        -6.3553    0.5983    0.8010 H         1 <0>         0.1329
     37 H13        -8.6718    2.1504    4.8925 H         1 <0>         0.1794
     38 H14       -11.8799    3.0499    0.7373 H         1 <0>         0.4267
     39 H15       -14.5061    2.8521    1.3049 H         1 <0>         0.1234
     40 H16       -13.5885    5.7409    1.6809 H         1 <0>         0.0995
     41 H17       -13.3151    4.7324    0.2390 H         1 <0>         0.1172
     42 H18       -15.7590    4.5372   -0.0967 H         1 <0>         0.1349
     43 H19       -15.2623    6.2461   -0.0715 H         1 <0>         0.1387
     44 H20       -16.8671    3.5809    1.8204 H         1 <0>         0.1334
     45 H21       -17.1842    4.5877    3.2534 H         1 <0>         0.1392
     46 H22       -15.2808    3.0361    3.6398 H         1 <0>         0.1229
     47 H23       -14.7528    4.7354    3.6961 H         1 <0>         0.1008
     48 N4        -16.2857    5.6006    1.6466 N.4       1 <0>        -0.5187
     49 H24       -17.1928    5.9050    1.2741 H         1 <0>         0.4395
     50 H25       -15.8944    6.3401    2.2417 H         1 <0>         0.4347
@<TRIPOS>BOND
     1    1    2 1
     2    1   25 1
     3    1   26 1
     4    1   27 1
     5    2    3 1
     6    2    4 1
     7    2    5 1
     8    3   28 1
     9    3   29 1
    10    3   30 1
    11    4   31 1
    12    4   32 1
    13    4   33 1
    14    5    9 1
    15    5    6 2
    16    6    7 1
    17    6   34 1
    18    7    8 2
    19    8    9 1
    20    8   10 1
    21   10   11 1
    22   10   35 1
    23   10   36 1
    24   11   12 1
    25   12   16 1
    26   12   13 2
    27   13   14 1
    28   13   37 1
    29   14   15 2
    30   15   16 1
    31   15   17 1
    32   17   18 am
    33   17   38 1
    34   18   19 2
    35   18   20 1
    36   20   24 1
    37   20   21 1
    38   20   39 1
    39   21   22 1
    40   21   40 1
    41   21   41 1
    42   22   42 1
    43   22   43 1
    44   22   48 1
    45   23   24 1
    46   23   44 1
    47   23   45 1
    48   23   48 1
    49   24   46 1
    50   24   47 1
    51   48   49 1
    52   48   50 1
@<TRIPOS>MOLECULE
ZINC21288966
   49    52     0     0     0
SMALL
USER_CHARGES
2-(2-chlorophenyl)-5,7-dihydroxy-8-[(3S,4R)-3-hydroxy-1-methyl-4-piperidyl]chromen-4-one
@<TRIPOS>ATOM
      1 C1          6.0895   -0.0238    5.9621 C.3       1 <0>        -0.0460
      2 N1          6.1756    1.0472    4.9603 N.4       1 <0>        -0.3934
      3 C2          5.9739    0.5180    3.6055 C.3       1 <0>        -0.0028
      4 C3          6.2126    1.6289    2.5802 C.3       1 <0>        -0.1464
      5 C4          5.2418    2.7821    2.8491 C.3       1 <0>        -0.0180
      6 H1          4.2050    2.4431    2.7074 H         1 <0>         0.1039
      7 C5          5.4391    3.2830    4.2825 C.3       1 <0>         0.1015
      8 H2          4.7709    4.1271    4.5084 H         1 <0>         0.0941
      9 C6          5.2218    2.1236    5.2574 C.3       1 <0>        -0.0361
     10 O1          6.7669    3.7898    4.4323 O.3       1 <0>        -0.5639
     11 C7          5.5132    3.9050    1.8814 C.ar      1 <0>        -0.2158
     12 C8          6.8017    4.3949    1.7322 C.ar      1 <0>         0.2946
     13 C9          7.0678    5.4304    0.8434 C.ar      1 <0>        -0.3049
     14 C10         6.0448    5.9841    0.0956 C.ar      1 <0>         0.3111
     15 C11         4.7411    5.4942    0.2412 C.ar      1 <0>        -0.3649
     16 C12         4.4748    4.4470    1.1407 C.ar      1 <0>         0.2362
     17 O2          3.2147    3.9814    1.2730 O.3       1 <0>        -0.2171
     18 C13         2.1871    4.4838    0.5705 C.2       1 <0>         0.1982
     19 C14         2.3394    5.4926   -0.3277 C.2       1 <0>        -0.2780
     20 C15         3.6225    6.0546   -0.5353 C.2       1 <0>         0.4382
     21 O3          3.7953    6.9641   -1.3304 O.2       1 <0>        -0.4786
     22 C16         0.8407    3.9147    0.7769 C.ar      1 <0>        -0.0680
     23 C17         0.6478    2.5322    0.7263 C.ar      1 <0>        -0.0708
     24 C18        -0.6124    2.0073    0.9205 C.ar      1 <0>        -0.1159
     25 C19        -1.6867    2.8467    1.1599 C.ar      1 <0>        -0.0780
     26 C20        -1.5036    4.2164    1.2169 C.ar      1 <0>        -0.1066
     27 C21        -0.2472    4.7566    1.0243 C.ar      1 <0>        -0.0057
     28 Cl1        -0.0199    6.4765    1.0889 Cl        1 <0>        -0.0424
     29 O4          6.3024    6.9947   -0.7728 O.3       1 <0>        -0.4999
     30 O5          7.8133    3.8585    2.4614 O.3       1 <0>        -0.4665
     31 H3          6.8128   -0.8151    5.7159 H         1 <0>         0.1242
     32 H4          5.0728   -0.4438    5.9634 H         1 <0>         0.1169
     33 H5          6.3184    0.3856    6.9571 H         1 <0>         0.1225
     34 H6          6.6809   -0.3050    3.4243 H         1 <0>         0.1308
     35 H7          4.9438    0.1448    3.5072 H         1 <0>         0.1211
     36 H8          7.2477    1.9910    2.6662 H         1 <0>         0.1216
     37 H9          6.0450    1.2349    1.5669 H         1 <0>         0.1057
     38 H10         4.1951    1.7434    5.1512 H         1 <0>         0.1298
     39 H11         5.3771    2.4772    6.2874 H         1 <0>         0.1312
     40 H12         7.0946    4.1958    5.4007 H         1 <0>         0.4106
     41 H13         8.0758    5.8030    0.7365 H         1 <0>         0.1471
     42 H14         1.4871    5.8659   -0.8759 H         1 <0>         0.1670
     43 H15         1.4839    1.8757    0.5352 H         1 <0>         0.1384
     44 H16        -0.7625    0.9385    0.8812 H         1 <0>         0.1407
     45 H17        -2.6721    2.4298    1.3071 H         1 <0>         0.1438
     46 H18        -2.3456    4.8651    1.4082 H         1 <0>         0.1476
     47 H19         5.4855    7.4321   -1.3656 H         1 <0>         0.4556
     48 H20         8.8375    4.2431    2.3473 H         1 <0>         0.4397
     49 H21         7.1882    1.4744    5.0059 H         1 <0>         0.4481
@<TRIPOS>BOND
     1    1    2 1
     2    1   31 1
     3    1   32 1
     4    1   33 1
     5    2    9 1
     6    2    3 1
     7    2   49 1
     8    3    4 1
     9    3   34 1
    10    3   35 1
    11    4    5 1
    12    4   36 1
    13    4   37 1
    14    5    6 1
    15    5    7 1
    16    5   11 1
    17    7    8 1
    18    7    9 1
    19    7   10 1
    20    9   38 1
    21    9   39 1
    22   10   40 1
    23   11   16 ar
    24   11   12 ar
    25   12   13 ar
    26   12   30 1
    27   13   14 ar
    28   13   41 1
    29   14   15 ar
    30   14   29 1
    31   15   20 1
    32   15   16 ar
    33   16   17 1
    34   17   18 1
    35   18   19 2
    36   18   22 1
    37   19   20 1
    38   19   42 1
    39   20   21 2
    40   22   27 ar
    41   22   23 ar
    42   23   24 ar
    43   23   43 1
    44   24   25 ar
    45   24   44 1
    46   25   26 ar
    47   25   45 1
    48   26   27 ar
    49   26   46 1
    50   27   28 1
    51   29   47 1
    52   30   48 1
@<TRIPOS>MOLECULE
ZINC23247639
   69    72     0     0     0
SMALL
USER_CHARGES
1-[4-[(4-ethylpiperazin-1-yl)methyl]-3-(trifluoromethyl)phenyl]-3-[4-(6-methylaminopyrimidin-4-yl)oxyphenyl]urea
@<TRIPOS>ATOM
      1 C1          8.9417    3.3719    8.2172 C.3       1 <0>        -0.1901
      2 C2         10.1498    2.9102    7.3997 C.3       1 <0>        -0.0070
      3 N1          9.9972    3.3533    6.0075 N.4       1 <0>        -0.4011
      4 C3         11.2367    3.1387    5.2477 C.3       1 <0>         0.0016
      5 C4         11.0629    3.6845    3.8284 C.3       1 <0>         0.0271
      6 N2          9.9288    3.0094    3.1822 N.3       1 <0>        -0.5300
      7 C5          8.6893    3.2240    3.9420 C.3       1 <0>         0.0232
      8 C6          8.8631    2.6781    5.3612 C.3       1 <0>        -0.0016
      9 C7          9.7762    3.4524    1.7899 C.3       1 <0>         0.0786
     10 C8          8.7879    2.5601    1.0842 C.ar      1 <0>        -0.0666
     11 C9          7.5022    3.0092    0.8434 C.ar      1 <0>        -0.0932
     12 C10         6.5958    2.1959    0.1923 C.ar      1 <0>        -0.0888
     13 C11         6.9731    0.9214   -0.2106 C.ar      1 <0>         0.1880
     14 C12         8.2646    0.4735    0.0326 C.ar      1 <0>        -0.1043
     15 C13         9.1683    1.2940    0.6793 C.ar      1 <0>        -0.1369
     16 C14        10.5702    0.8086    0.9441 C.3       1 <0>         0.5111
     17 F1         10.7250   -0.4786    0.4184 F         1 <0>        -0.1776
     18 F2         11.4860    1.6739    0.3362 F         1 <0>        -0.1774
     19 F3         10.8008    0.7797    2.3237 F         1 <0>        -0.1628
     20 N3          6.0552    0.0926   -0.8655 N.am      1 <0>        -0.6979
     21 C15         4.7513    0.1311   -0.5266 C.2       1 <0>         0.7117
     22 O1          4.3858    0.8194    0.4067 O.2       1 <0>        -0.5623
     23 N4          3.8526   -0.5934   -1.2222 N.am      1 <0>        -0.6900
     24 C16         2.4863   -0.4790   -0.9335 C.ar      1 <0>         0.1635
     25 C17         1.5516   -0.5518   -1.9576 C.ar      1 <0>        -0.1265
     26 C18         0.2052   -0.4394   -1.6724 C.ar      1 <0>        -0.0923
     27 C19        -0.2137   -0.2543   -0.3628 C.ar      1 <0>         0.0841
     28 C20         0.7198   -0.1815    0.6609 C.ar      1 <0>        -0.0957
     29 C21         2.0665   -0.2932    0.3769 C.ar      1 <0>        -0.1058
     30 O2         -1.5393   -0.1385   -0.0833 O.3       1 <0>        -0.2424
     31 C22        -2.3129   -1.2454   -0.1983 C.ar      1 <0>         0.3836
     32 C23        -3.6894   -1.1637   -0.0277 C.ar      1 <0>        -0.3134
     33 C24        -4.4409   -2.3284   -0.1601 C.ar      1 <0>         0.4631
     34 N5         -3.8165   -3.4721   -0.4341 N.ar      1 <0>        -0.5936
     35 C25        -2.5082   -3.5081   -0.5840 C.ar      1 <0>         0.3760
     36 N6         -1.7644   -2.4263   -0.4707 N.ar      1 <0>        -0.6039
     37 N7         -5.8178   -2.2988   -0.0034 N.pl3     1 <0>        -0.7218
     38 C26        -6.4937   -1.0344    0.2979 C.3       1 <0>         0.0891
     39 H1          9.0560    3.0401    9.2597 H         1 <0>         0.1066
     40 H2          8.0243    2.9380    7.7928 H         1 <0>         0.0798
     41 H3          8.8763    4.4695    8.1868 H         1 <0>         0.0803
     42 H4         11.0672    3.3441    7.8241 H         1 <0>         0.1306
     43 H5         10.2153    1.8126    7.4301 H         1 <0>         0.1269
     44 H6         12.0665    3.6630    5.7442 H         1 <0>         0.1361
     45 H7         11.4577    2.0621    5.2031 H         1 <0>         0.1357
     46 H8         10.8699    4.7665    3.8728 H         1 <0>         0.0625
     47 H9         11.9796    3.4990    3.2494 H         1 <0>         0.1239
     48 H10         8.4684    4.3007    3.9867 H         1 <0>         0.0621
     49 H11         7.8594    2.6998    3.4455 H         1 <0>         0.1239
     50 H12         9.0569    1.5962    5.3178 H         1 <0>         0.1351
     51 H13         7.9470    2.8635    5.9412 H         1 <0>         0.1359
     52 H14         9.4106    4.4897    1.7732 H         1 <0>         0.0663
     53 H15        10.7489    3.3982    1.2791 H         1 <0>         0.1073
     54 H16         7.2082    3.9988    1.1607 H         1 <0>         0.1358
     55 H17         5.5933    2.5489    0.0003 H         1 <0>         0.1466
     56 H18         8.5625   -0.5152   -0.2838 H         1 <0>         0.1447
     57 H19         6.3979   -0.5903   -1.6569 H         1 <0>         0.4387
     58 H20         4.1917   -1.2745   -2.0166 H         1 <0>         0.4355
     59 H21         1.8775   -0.6959   -2.9771 H         1 <0>         0.1334
     60 H22        -0.5220   -0.4960   -2.4689 H         1 <0>         0.1303
     61 H23         0.3932   -0.0371    1.6801 H         1 <0>         0.1327
     62 H24         2.7931   -0.2369    1.1740 H         1 <0>         0.1442
     63 H25        -4.1646   -0.2205    0.1982 H         1 <0>         0.1466
     64 H26        -2.0315   -4.4515   -0.8058 H         1 <0>         0.2000
     65 H27        -6.4030   -3.2246   -0.1053 H         1 <0>         0.4376
     66 H28        -7.5762   -1.2091    0.3856 H         1 <0>         0.0864
     67 H29        -6.3028   -0.3146   -0.5117 H         1 <0>         0.0603
     68 H30        -6.1096   -0.6302    1.2461 H         1 <0>         0.0599
     69 H31         9.7882    4.4332    6.0188 H         1 <0>         0.4364
@<TRIPOS>BOND
     1    1    2 1
     2    1   39 1
     3    1   40 1
     4    1   41 1
     5    2    3 1
     6    2   42 1
     7    2   43 1
     8    3    8 1
     9    3    4 1
    10    3   69 1
    11    4    5 1
    12    4   44 1
    13    4   45 1
    14    5    6 1
    15    5   46 1
    16    5   47 1
    17    6    7 1
    18    6    9 1
    19    7    8 1
    20    7   48 1
    21    7   49 1
    22    8   50 1
    23    8   51 1
    24    9   10 1
    25    9   52 1
    26    9   53 1
    27   10   15 ar
    28   10   11 ar
    29   11   12 ar
    30   11   54 1
    31   12   13 ar
    32   12   55 1
    33   13   14 ar
    34   13   20 1
    35   14   15 ar
    36   14   56 1
    37   15   16 1
    38   16   17 1
    39   16   18 1
    40   16   19 1
    41   20   21 am
    42   20   57 1
    43   21   22 2
    44   21   23 am
    45   23   24 1
    46   23   58 1
    47   24   29 ar
    48   24   25 ar
    49   25   26 ar
    50   25   59 1
    51   26   27 ar
    52   26   60 1
    53   27   28 ar
    54   27   30 1
    55   28   29 ar
    56   28   61 1
    57   29   62 1
    58   30   31 1
    59   31   36 ar
    60   31   32 ar
    61   32   33 ar
    62   32   63 1
    63   33   34 ar
    64   33   37 1
    65   34   35 ar
    66   35   36 ar
    67   35   64 1
    68   37   38 1
    69   37   65 1
    70   38   66 1
    71   38   67 1
    72   38   68 1
@<TRIPOS>MOLECULE
ZINC23247639
   69    72     0     0     0
SMALL
USER_CHARGES
1-[4-[(4-ethylpiperazin-1-yl)methyl]-3-(trifluoromethyl)phenyl]-3-[4-(6-methylaminopyrimidin-4-yl)oxyphenyl]urea
@<TRIPOS>ATOM
      1 C1          8.9417    3.3719    8.2172 C.3       1 <0>        -0.1569
      2 C2         10.1498    2.9102    7.3997 C.3       1 <0>         0.0486
      3 N1          9.9972    3.3533    6.0075 N.3       1 <0>        -0.5379
      4 C3         11.2367    3.1387    5.2477 C.3       1 <0>         0.0250
      5 C4         11.0629    3.6845    3.8284 C.3       1 <0>         0.0004
      6 N2          9.9288    3.0094    3.1822 N.4       1 <0>        -0.4202
      7 C5          8.6893    3.2240    3.9420 C.3       1 <0>        -0.0009
      8 C6          8.8631    2.6781    5.3612 C.3       1 <0>         0.0222
      9 C7          9.7762    3.4524    1.7899 C.3       1 <0>         0.0266
     10 C8          8.7879    2.5601    1.0842 C.ar      1 <0>        -0.1272
     11 C9          7.5022    3.0092    0.8434 C.ar      1 <0>        -0.0630
     12 C10         6.5958    2.1959    0.1923 C.ar      1 <0>        -0.0846
     13 C11         6.9731    0.9214   -0.2106 C.ar      1 <0>         0.2154
     14 C12         8.2646    0.4735    0.0326 C.ar      1 <0>        -0.0955
     15 C13         9.1683    1.2940    0.6793 C.ar      1 <0>        -0.1507
     16 C14        10.5702    0.8086    0.9441 C.3       1 <0>         0.5109
     17 F1         10.7250   -0.4786    0.4184 F         1 <0>        -0.1491
     18 F2         11.4860    1.6739    0.3362 F         1 <0>        -0.1584
     19 F3         10.8008    0.7797    2.3237 F         1 <0>        -0.1724
     20 N3          6.0552    0.0926   -0.8655 N.am      1 <0>        -0.6988
     21 C15         4.7513    0.1311   -0.5266 C.2       1 <0>         0.7114
     22 O1          4.3858    0.8194    0.4067 O.2       1 <0>        -0.5584
     23 N4          3.8526   -0.5934   -1.2222 N.am      1 <0>        -0.6858
     24 C16         2.4863   -0.4790   -0.9335 C.ar      1 <0>         0.1577
     25 C17         1.5516   -0.5518   -1.9576 C.ar      1 <0>        -0.1240
     26 C18         0.2052   -0.4394   -1.6724 C.ar      1 <0>        -0.0926
     27 C19        -0.2137   -0.2543   -0.3628 C.ar      1 <0>         0.0883
     28 C20         0.7198   -0.1815    0.6609 C.ar      1 <0>        -0.0957
     29 C21         2.0665   -0.2932    0.3769 C.ar      1 <0>        -0.1046
     30 O2         -1.5393   -0.1385   -0.0833 O.3       1 <0>        -0.2426
     31 C22        -2.3129   -1.2454   -0.1983 C.ar      1 <0>         0.3832
     32 C23        -3.6894   -1.1637   -0.0277 C.ar      1 <0>        -0.3126
     33 C24        -4.4409   -2.3284   -0.1601 C.ar      1 <0>         0.4635
     34 N5         -3.8165   -3.4721   -0.4341 N.ar      1 <0>        -0.5931
     35 C25        -2.5082   -3.5081   -0.5840 C.ar      1 <0>         0.3762
     36 N6         -1.7644   -2.4263   -0.4707 N.ar      1 <0>        -0.6049
     37 N7         -5.8178   -2.2988   -0.0034 N.pl3     1 <0>        -0.7212
     38 C26        -6.4937   -1.0344    0.2979 C.3       1 <0>         0.0887
     39 H1          9.0560    3.0401    9.2597 H         1 <0>         0.0714
     40 H2          8.0243    2.9380    7.7928 H         1 <0>         0.0562
     41 H3          8.8763    4.4695    8.1868 H         1 <0>         0.0696
     42 H4         11.0672    3.3441    7.8241 H         1 <0>         0.0895
     43 H5         10.2153    1.8126    7.4301 H         1 <0>         0.0455
     44 H6         12.0665    3.6630    5.7442 H         1 <0>         0.1253
     45 H7         11.4577    2.0621    5.2031 H         1 <0>         0.0582
     46 H8         10.8699    4.7665    3.8728 H         1 <0>         0.1369
     47 H9         11.9796    3.4990    3.2494 H         1 <0>         0.1329
     48 H10         8.4684    4.3007    3.9867 H         1 <0>         0.1355
     49 H11         7.8594    2.6998    3.4455 H         1 <0>         0.1312
     50 H12         9.0569    1.5962    5.3178 H         1 <0>         0.0572
     51 H13         7.9470    2.8635    5.9412 H         1 <0>         0.1266
     52 H14         9.4106    4.4897    1.7732 H         1 <0>         0.1472
     53 H15        10.7489    3.3982    1.2791 H         1 <0>         0.1420
     54 H16         7.2082    3.9988    1.1607 H         1 <0>         0.1512
     55 H17         5.5933    2.5489    0.0003 H         1 <0>         0.1583
     56 H18         8.5625   -0.5152   -0.2838 H         1 <0>         0.1556
     57 H19         6.3979   -0.5903   -1.6569 H         1 <0>         0.4440
     58 H20         4.1917   -1.2745   -2.0166 H         1 <0>         0.4371
     59 H21         1.8775   -0.6959   -2.9771 H         1 <0>         0.1338
     60 H22        -0.5220   -0.4960   -2.4689 H         1 <0>         0.1313
     61 H23         0.3932   -0.0371    1.6801 H         1 <0>         0.1341
     62 H24         2.7931   -0.2369    1.1740 H         1 <0>         0.1440
     63 H25        -4.1646   -0.2205    0.1982 H         1 <0>         0.1470
     64 H26        -2.0315   -4.4515   -0.8058 H         1 <0>         0.2001
     65 H27        -6.4030   -3.2246   -0.1053 H         1 <0>         0.4380
     66 H28        -7.5762   -1.2091    0.3856 H         1 <0>         0.0868
     67 H29        -6.3028   -0.3146   -0.5117 H         1 <0>         0.0604
     68 H30        -6.1096   -0.6302    1.2461 H         1 <0>         0.0603
     69 H31        10.1379    1.9295    3.1711 H         1 <0>         0.4253
@<TRIPOS>BOND
     1    1    2 1
     2    1   39 1
     3    1   40 1
     4    1   41 1
     5    2    3 1
     6    2   42 1
     7    2   43 1
     8    3    8 1
     9    3    4 1
    10    4    5 1
    11    4   44 1
    12    4   45 1
    13    5    6 1
    14    5   46 1
    15    5   47 1
    16    6    7 1
    17    6    9 1
    18    6   69 1
    19    7    8 1
    20    7   48 1
    21    7   49 1
    22    8   50 1
    23    8   51 1
    24    9   10 1
    25    9   52 1
    26    9   53 1
    27   10   15 ar
    28   10   11 ar
    29   11   12 ar
    30   11   54 1
    31   12   13 ar
    32   12   55 1
    33   13   14 ar
    34   13   20 1
    35   14   15 ar
    36   14   56 1
    37   15   16 1
    38   16   17 1
    39   16   18 1
    40   16   19 1
    41   20   21 am
    42   20   57 1
    43   21   22 2
    44   21   23 am
    45   23   24 1
    46   23   58 1
    47   24   29 ar
    48   24   25 ar
    49   25   26 ar
    50   25   59 1
    51   26   27 ar
    52   26   60 1
    53   27   28 ar
    54   27   30 1
    55   28   29 ar
    56   28   61 1
    57   29   62 1
    58   30   31 1
    59   31   36 ar
    60   31   32 ar
    61   32   33 ar
    62   32   63 1
    63   33   34 ar
    64   33   37 1
    65   34   35 ar
    66   35   36 ar
    67   35   64 1
    68   37   38 1
    69   37   65 1
    70   38   66 1
    71   38   67 1
    72   38   68 1
@<TRIPOS>MOLECULE
ZINC23247639
   68    71     0     0     0
SMALL
USER_CHARGES
1-[4-[(4-ethylpiperazin-1-yl)methyl]-3-(trifluoromethyl)phenyl]-3-[4-(6-methylaminopyrimidin-4-yl)oxyphenyl]urea
@<TRIPOS>ATOM
      1 C1          8.9417    3.3719    8.2172 C.3       1 <0>        -0.1510
      2 C2         10.1498    2.9102    7.3997 C.3       1 <0>         0.0499
      3 N1          9.9972    3.3533    6.0075 N.3       1 <0>        -0.5402
      4 C3         11.2367    3.1387    5.2477 C.3       1 <0>         0.0569
      5 C4         11.0629    3.6845    3.8284 C.3       1 <0>         0.0590
      6 N2          9.9288    3.0094    3.1822 N.3       1 <0>        -0.5268
      7 C5          8.6893    3.2240    3.9420 C.3       1 <0>         0.0561
      8 C6          8.8631    2.6781    5.3612 C.3       1 <0>         0.0550
      9 C7          9.7762    3.4524    1.7899 C.3       1 <0>         0.0729
     10 C8          8.7879    2.5601    1.0842 C.ar      1 <0>        -0.0447
     11 C9          7.5022    3.0092    0.8434 C.ar      1 <0>        -0.0942
     12 C10         6.5958    2.1959    0.1923 C.ar      1 <0>        -0.0884
     13 C11         6.9731    0.9214   -0.2106 C.ar      1 <0>         0.1720
     14 C12         8.2646    0.4735    0.0326 C.ar      1 <0>        -0.1038
     15 C13         9.1683    1.2940    0.6793 C.ar      1 <0>        -0.1404
     16 C14        10.5702    0.8086    0.9441 C.3       1 <0>         0.5095
     17 F1         10.7250   -0.4786    0.4184 F         1 <0>        -0.1841
     18 F2         11.4860    1.6739    0.3362 F         1 <0>        -0.1795
     19 F3         10.8008    0.7797    2.3237 F         1 <0>        -0.1519
     20 N3          6.0552    0.0926   -0.8655 N.am      1 <0>        -0.6948
     21 C15         4.7513    0.1311   -0.5266 C.2       1 <0>         0.7096
     22 O1          4.3858    0.8194    0.4067 O.2       1 <0>        -0.5587
     23 N4          3.8526   -0.5934   -1.2222 N.am      1 <0>        -0.6930
     24 C16         2.4863   -0.4790   -0.9335 C.ar      1 <0>         0.1697
     25 C17         1.5516   -0.5518   -1.9576 C.ar      1 <0>        -0.1297
     26 C18         0.2052   -0.4394   -1.6724 C.ar      1 <0>        -0.0930
     27 C19        -0.2137   -0.2543   -0.3628 C.ar      1 <0>         0.0783
     28 C20         0.7198   -0.1815    0.6609 C.ar      1 <0>        -0.0936
     29 C21         2.0665   -0.2932    0.3769 C.ar      1 <0>        -0.1059
     30 O2         -1.5393   -0.1385   -0.0833 O.3       1 <0>        -0.2412
     31 C22        -2.3129   -1.2454   -0.1983 C.ar      1 <0>         0.3851
     32 C23        -3.6894   -1.1637   -0.0277 C.ar      1 <0>        -0.3141
     33 C24        -4.4409   -2.3284   -0.1601 C.ar      1 <0>         0.4620
     34 N5         -3.8165   -3.4721   -0.4341 N.ar      1 <0>        -0.5954
     35 C25        -2.5082   -3.5081   -0.5840 C.ar      1 <0>         0.3753
     36 N6         -1.7644   -2.4263   -0.4707 N.ar      1 <0>        -0.6017
     37 N7         -5.8178   -2.2988   -0.0034 N.pl3     1 <0>        -0.7231
     38 C26        -6.4937   -1.0344    0.2979 C.3       1 <0>         0.0898
     39 H1          9.0560    3.0401    9.2597 H         1 <0>         0.0595
     40 H2          8.0243    2.9380    7.7928 H         1 <0>         0.0547
     41 H3          8.8763    4.4695    8.1868 H         1 <0>         0.0631
     42 H4         11.0672    3.3441    7.8241 H         1 <0>         0.0746
     43 H5         10.2153    1.8126    7.4301 H         1 <0>         0.0335
     44 H6         12.0665    3.6630    5.7442 H         1 <0>         0.0800
     45 H7         11.4577    2.0621    5.2031 H         1 <0>         0.0441
     46 H8         10.8699    4.7665    3.8728 H         1 <0>         0.0445
     47 H9         11.9796    3.4990    3.2494 H         1 <0>         0.0809
     48 H10         8.4684    4.3007    3.9867 H         1 <0>         0.0435
     49 H11         7.8594    2.6998    3.4455 H         1 <0>         0.0808
     50 H12         9.0569    1.5962    5.3178 H         1 <0>         0.0425
     51 H13         7.9470    2.8635    5.9412 H         1 <0>         0.0819
     52 H14         9.4106    4.4897    1.7732 H         1 <0>         0.0550
     53 H15        10.7489    3.3982    1.2791 H         1 <0>         0.0962
     54 H16         7.2082    3.9988    1.1607 H         1 <0>         0.1355
     55 H17         5.5933    2.5489    0.0003 H         1 <0>         0.1427
     56 H18         8.5625   -0.5152   -0.2838 H         1 <0>         0.1409
     57 H19         6.3979   -0.5903   -1.6569 H         1 <0>         0.4343
     58 H20         4.1917   -1.2745   -2.0166 H         1 <0>         0.4332
     59 H21         1.8775   -0.6959   -2.9771 H         1 <0>         0.1323
     60 H22        -0.5220   -0.4960   -2.4689 H         1 <0>         0.1282
     61 H23         0.3932   -0.0371    1.6801 H         1 <0>         0.1328
     62 H24         2.7931   -0.2369    1.1740 H         1 <0>         0.1466
     63 H25        -4.1646   -0.2205    0.1982 H         1 <0>         0.1463
     64 H26        -2.0315   -4.4515   -0.8058 H         1 <0>         0.1996
     65 H27        -6.4030   -3.2246   -0.1053 H         1 <0>         0.4362
     66 H28        -7.5762   -1.2091    0.3856 H         1 <0>         0.0851
     67 H29        -6.3028   -0.3146   -0.5117 H         1 <0>         0.0598
     68 H30        -6.1096   -0.6302    1.2461 H         1 <0>         0.0599
@<TRIPOS>BOND
     1    1    2 1
     2    1   39 1
     3    1   40 1
     4    1   41 1
     5    2    3 1
     6    2   42 1
     7    2   43 1
     8    3    8 1
     9    3    4 1
    10    4    5 1
    11    4   44 1
    12    4   45 1
    13    5    6 1
    14    5   46 1
    15    5   47 1
    16    6    7 1
    17    6    9 1
    18    7    8 1
    19    7   48 1
    20    7   49 1
    21    8   50 1
    22    8   51 1
    23    9   10 1
    24    9   52 1
    25    9   53 1
    26   10   15 ar
    27   10   11 ar
    28   11   12 ar
    29   11   54 1
    30   12   13 ar
    31   12   55 1
    32   13   14 ar
    33   13   20 1
    34   14   15 ar
    35   14   56 1
    36   15   16 1
    37   16   17 1
    38   16   18 1
    39   16   19 1
    40   20   21 am
    41   20   57 1
    42   21   22 2
    43   21   23 am
    44   23   24 1
    45   23   58 1
    46   24   29 ar
    47   24   25 ar
    48   25   26 ar
    49   25   59 1
    50   26   27 ar
    51   26   60 1
    52   27   28 ar
    53   27   30 1
    54   28   29 ar
    55   28   61 1
    56   29   62 1
    57   30   31 1
    58   31   36 ar
    59   31   32 ar
    60   32   33 ar
    61   32   63 1
    62   33   34 ar
    63   33   37 1
    64   34   35 ar
    65   35   36 ar
    66   35   64 1
    67   37   38 1
    68   37   65 1
    69   38   66 1
    70   38   67 1
    71   38   68 1
@<TRIPOS>MOLECULE
ZINC03812168
   64    69     0     0     0
SMALL
USER_CHARGES
dimethylaminomethylBLAHdione
@<TRIPOS>ATOM
      1 C1         -3.6591   -3.4932   -0.5238 C.3       1 <0>        -0.0551
      2 C2         -2.4926   -2.9550   -2.5762 C.3       1 <0>        -0.0445
      3 C3         -2.6578   -1.3072   -0.8098 C.3       1 <0>        -0.0358
      4 C4         -2.4673   -1.1012    0.6860 C.3       1 <0>         0.0654
      5 H1         -3.1645   -1.7751    1.2185 H         1 <0>         0.0947
      6 C5         -2.7230    0.3270    1.1457 C.3       1 <0>        -0.1345
      7 C6         -2.5225    1.3892    0.0793 C.3       1 <0>         0.1021
      8 N1         -1.1339    1.8402    0.0096 N.pl3     1 <0>        -0.4782
      9 C7         -0.0126    1.0747    0.0080 C.2       1 <0>         0.0759
     10 C8          1.1009    1.8532    0.0015 C.2       1 <0>        -0.1124
     11 C9          0.6150    3.2557   -0.0375 C.ar      1 <0>        -0.0829
     12 C10        -0.7846    3.1777   -0.0610 C.ar      1 <0>         0.0902
     13 C11        -1.5354    4.3459   -0.1576 C.ar      1 <0>        -0.1369
     14 C12        -0.9089    5.5725   -0.1941 C.ar      1 <0>        -0.0870
     15 C13         0.4756    5.6497   -0.1263 C.ar      1 <0>        -0.1387
     16 C14         1.2312    4.5008   -0.0317 C.ar      1 <0>        -0.0542
     17 C15         2.5293    1.4989    0.0288 C.2       1 <0>        -0.0575
     18 C16         3.2121    0.4058    0.5546 C.2       1 <0>        -0.0318
     19 C17         2.7061   -0.7744    1.2787 C.2       1 <0>        -0.1258
     20 C18         1.4206   -1.0272    1.6582 C.2       1 <0>         0.1002
     21 N2          1.3169   -2.2819    2.1682 N.pl3     1 <0>        -0.4767
     22 C19         2.5720   -2.8515    2.2654 C.ar      1 <0>         0.0850
     23 C20         3.5031   -1.9214    1.7684 C.ar      1 <0>        -0.0774
     24 C21         4.8560   -2.2219    1.8708 C.ar      1 <0>        -0.0704
     25 C22         5.2705   -3.4529    2.3343 C.ar      1 <0>        -0.1401
     26 C23         4.3436   -4.3996    2.7389 C.ar      1 <0>        -0.0882
     27 C24         3.0009   -4.0952    2.7142 C.ar      1 <0>        -0.1389
     28 C25         0.0751   -2.9597    2.5494 C.3       1 <0>         0.1083
     29 C26        -0.9464   -2.8428    1.4151 C.3       1 <0>         0.0261
     30 O1         -1.1329   -1.4683    1.0718 O.3       1 <0>        -0.3787
     31 C27         4.6407    0.6399    0.2297 C.2       1 <0>         0.5576
     32 O2          5.5801   -0.0982    0.4313 O.2       1 <0>        -0.4501
     33 N3          4.7726    1.8285   -0.3761 N.am      1 <0>        -0.6884
     34 C28         3.5684    2.3701   -0.5773 C.2       1 <0>         0.5496
     35 O3          3.3676    3.4021   -1.1909 O.2       1 <0>        -0.4507
     36 H2         -4.6064   -3.1194   -0.9125 H         1 <0>         0.1320
     37 H3         -3.5558   -4.5494   -0.7723 H         1 <0>         0.1292
     38 H4         -3.6371   -3.3709    0.5591 H         1 <0>         0.1176
     39 H5         -1.6226   -2.4415   -2.9853 H         1 <0>         0.1242
     40 H6         -2.4140   -4.0227   -2.7812 H         1 <0>         0.1266
     41 H7         -3.3976   -2.5618   -3.0392 H         1 <0>         0.1281
     42 H8         -3.6420   -0.9427   -1.1043 H         1 <0>         0.1512
     43 H9         -1.8892   -0.7576   -1.3530 H         1 <0>         0.1401
     44 H10        -3.7581    0.3948    1.5248 H         1 <0>         0.1133
     45 H11        -2.0693    0.5478    1.9998 H         1 <0>         0.1111
     46 H12        -2.8851    1.1097   -0.8943 H         1 <0>         0.0847
     47 H13        -3.1227    2.2722    0.3811 H         1 <0>         0.1001
     48 H14         0.0021   -0.0041    0.0020 H         1 <0>         0.1790
     49 H15        -2.6150    4.2937   -0.2077 H         1 <0>         0.1188
     50 H16        -1.4958    6.4773   -0.2780 H         1 <0>         0.1308
     51 H17         0.9608    6.6157   -0.1385 H         1 <0>         0.1284
     52 H18         2.3072    4.5814    0.0562 H         1 <0>         0.1320
     53 H19         0.6104   -0.3170    1.5917 H         1 <0>         0.1871
     54 H20         5.6126   -1.4944    1.6337 H         1 <0>         0.1514
     55 H21         6.3257   -3.6782    2.3787 H         1 <0>         0.1280
     56 H22         4.6724   -5.3687    3.0799 H         1 <0>         0.1300
     57 H23         2.2783   -4.8297    3.0422 H         1 <0>         0.1175
     58 H24         0.2774   -4.0129    2.7458 H         1 <0>         0.1169
     59 H25        -0.3264   -2.4933    3.4522 H         1 <0>         0.0971
     60 H26        -0.5876   -3.3893    0.5423 H         1 <0>         0.0664
     61 H27        -1.8985   -3.2659    1.7424 H         1 <0>         0.0864
     62 H28         5.6204    2.2247   -0.6318 H         1 <0>         0.4332
     63 N4         -2.5268   -2.7479   -1.1131 N.4       1 <0>        -0.4048
     64 H29        -1.6507   -3.0961   -0.7064 H         1 <0>         0.4232
@<TRIPOS>BOND
     1    1   36 1
     2    1   37 1
     3    1   38 1
     4    1   63 1
     5    2   39 1
     6    2   40 1
     7    2   41 1
     8    2   63 1
     9    3    4 1
    10    3   42 1
    11    3   43 1
    12    3   63 1
    13    4    5 1
    14    4   30 1
    15    4    6 1
    16    6    7 1
    17    6   44 1
    18    6   45 1
    19    7    8 1
    20    7   46 1
    21    7   47 1
    22    8   12 1
    23    8    9 1
    24    9   10 2
    25    9   48 1
    26   10   11 1
    27   10   17 1
    28   11   16 ar
    29   11   12 ar
    30   12   13 ar
    31   13   14 ar
    32   13   49 1
    33   14   15 ar
    34   14   50 1
    35   15   16 ar
    36   15   51 1
    37   16   52 1
    38   17   34 1
    39   17   18 2
    40   18   19 1
    41   18   31 1
    42   19   23 1
    43   19   20 2
    44   20   21 1
    45   20   53 1
    46   21   22 1
    47   21   28 1
    48   22   27 ar
    49   22   23 ar
    50   23   24 ar
    51   24   25 ar
    52   24   54 1
    53   25   26 ar
    54   25   55 1
    55   26   27 ar
    56   26   56 1
    57   27   57 1
    58   28   29 1
    59   28   58 1
    60   28   59 1
    61   29   30 1
    62   29   60 1
    63   29   61 1
    64   31   32 2
    65   31   33 am
    66   33   34 am
    67   33   62 1
    68   34   35 2
    69   63   64 1
