@<TRIPOS>MOLECULE
ZINC00161829
   21    22     0     0     0
SMALL
USER_CHARGES

@<TRIPOS>ATOM
      1 C1         -0.0167    1.3781    0.0096 C.ar      1 <0>        -0.1049
      2 C2          1.1709    2.0855    0.0021 C.ar      1 <0>        -0.1175
      3 C3          2.3773    1.4107   -0.0130 C.ar      1 <0>        -0.0906
      4 C4          2.3960    0.0285   -0.0201 C.ar      1 <0>        -0.1082
      5 C5          1.2084   -0.6789   -0.0117 C.ar      1 <0>        -0.0981
      6 C6          0.0021   -0.0041    0.0020 C.ar      1 <0>        -0.1178
      7 C7          3.7112   -0.7071   -0.0376 C.3       1 <0>         0.1376
      8 H1          4.5116   -0.0513   -0.3801 H         1 <0>         0.1384
      9 C8          4.0290   -1.2641    1.3359 C.2       1 <0>         0.5324
     10 O1          4.1931   -0.6369    2.3604 O.2       1 <0>        -0.4550
     11 N1          4.0904   -2.6015    1.1815 N.am      1 <0>        -0.6793
     12 C9          3.8579   -2.9631   -0.0854 C.2       1 <0>         0.7038
     13 O2          3.8598   -4.1160   -0.4701 O.2       1 <0>        -0.5370
     14 N2          3.6232   -1.9059   -0.8892 N.am      1 <0>        -0.7192
     15 H2         -0.9591    1.9053    0.0259 H         1 <0>         0.1273
     16 H3          1.1563    3.1654    0.0076 H         1 <0>         0.1296
     17 H4          3.3051    1.9634   -0.0196 H         1 <0>         0.1302
     18 H5          1.2231   -1.7588   -0.0176 H         1 <0>         0.1205
     19 H6         -0.9258   -0.5567    0.0082 H         1 <0>         0.1274
     20 H7          4.2802   -3.2248    1.9001 H         1 <0>         0.4357
     21 H8          3.4327   -1.9286   -1.8400 H         1 <0>         0.4445
@<TRIPOS>BOND
     1    1    6 ar
     2    1    2 ar
     3    1   15 1
     4    2    3 ar
     5    2   16 1
     6    3    4 ar
     7    3   17 1
     8    4    5 ar
     9    4    7 1
    10    5    6 ar
    11    5   18 1
    12    6   19 1
    13    7    8 1
    14    7   14 1
    15    7    9 1
    16    9   10 2
    17    9   11 am
    18   11   12 am
    19   11   20 1
    20   12   13 2
    21   12   14 am
    22   14   21 1
@<TRIPOS>MOLECULE
ZINC00161833
   21    22     0     0     0
SMALL
USER_CHARGES

@<TRIPOS>ATOM
      1 C1         -0.0167    1.3781    0.0096 C.ar      1 <0>        -0.1048
      2 C2          1.1709    2.0855    0.0021 C.ar      1 <0>        -0.1175
      3 C3          2.3773    1.4107   -0.0130 C.ar      1 <0>        -0.0906
      4 C4          2.3960    0.0285   -0.0201 C.ar      1 <0>        -0.1081
      5 C5          1.2084   -0.6789   -0.0117 C.ar      1 <0>        -0.0981
      6 C6          0.0021   -0.0041    0.0020 C.ar      1 <0>        -0.1178
      7 C7          3.7112   -0.7071   -0.0376 C.3       1 <0>         0.1376
      8 H1          4.5187   -0.0547    0.2946 H         1 <0>         0.1384
      9 C8          4.0001   -1.2503   -1.4229 C.2       1 <0>         0.5325
     10 O1          4.1439   -0.6129   -2.4441 O.2       1 <0>        -0.4550
     11 N1          4.0645   -2.5892   -1.2832 N.am      1 <0>        -0.6793
     12 C9          3.8587   -2.9635   -0.0153 C.2       1 <0>         0.7038
     13 O2          3.8685   -4.1202    0.3577 O.2       1 <0>        -0.5370
     14 N2          3.6409   -1.9143    0.8037 N.am      1 <0>        -0.7192
     15 H2         -0.9591    1.9053    0.0259 H         1 <0>         0.1273
     16 H3          1.1563    3.1654    0.0076 H         1 <0>         0.1296
     17 H4          3.3051    1.9634   -0.0196 H         1 <0>         0.1302
     18 H5          1.2231   -1.7588   -0.0176 H         1 <0>         0.1205
     19 H6         -0.9258   -0.5567    0.0082 H         1 <0>         0.1274
     20 H7          4.2382   -3.2054   -2.0119 H         1 <0>         0.4357
     21 H8          3.4715   -1.9465    1.7582 H         1 <0>         0.4445
@<TRIPOS>BOND
     1    1    6 ar
     2    1    2 ar
     3    1   15 1
     4    2    3 ar
     5    2   16 1
     6    3    4 ar
     7    3   17 1
     8    4    5 ar
     9    4    7 1
    10    5    6 ar
    11    5   18 1
    12    6   19 1
    13    7    8 1
    14    7   14 1
    15    7    9 1
    16    9   10 2
    17    9   11 am
    18   11   12 am
    19   11   20 1
    20   12   13 2
    21   12   14 am
    22   14   21 1
@<TRIPOS>MOLECULE
ZINC13831240
   54    55     0     0     0
SMALL
USER_CHARGES

@<TRIPOS>ATOM
      1 C1          1.6084    1.4471   -0.3501 C.3       1 <0>        -0.1491
      2 C2          1.3061    0.0344    0.1538 C.3       1 <0>        -0.0899
      3 C3          1.6377   -0.0572    1.6446 C.3       1 <0>        -0.1615
      4 C4         -0.1769   -0.2764   -0.0588 C.3       1 <0>         0.1448
      5 H1         -0.7815    0.4342    0.5048 H         1 <0>         0.1278
      6 C5         -0.4704   -1.6753    0.4185 C.2       1 <0>         0.5128
      7 O1         -0.3600   -2.6119   -0.3440 O.2       1 <0>        -0.4950
      8 N1         -0.8555   -1.8856    1.6929 N.am      1 <0>        -0.5916
      9 O2         -1.0372   -3.2068    2.1687 O.3       1 <0>        -0.3150
     10 N2         -0.4988   -0.1691   -1.4840 N.pl3     1 <0>        -0.8509
     11 O3          0.2740   -0.8727   -2.4394 O.3       1 <0>        -0.0949
     12 C6         -0.2971   -2.1180   -2.8457 C.3       1 <0>         0.0570
     13 C7         -0.6610   -2.0519   -4.3303 C.3       1 <0>        -0.1792
     14 C8          0.7159   -3.2419   -2.6184 C.3       1 <0>        -0.1501
     15 S1         -1.7666    0.7751   -1.9776 S.o2      1 <0>         2.6873
     16 O4         -2.1981    0.2545   -3.2275 O.2       1 <0>        -0.9296
     17 O5         -2.6385    0.8998   -0.8625 O.2       1 <0>        -0.9419
     18 C9         -1.1243    2.3844   -2.2971 C.ar      1 <0>        -0.6741
     19 C10        -1.0799    3.3227   -1.2818 C.ar      1 <0>        -0.0145
     20 C11        -0.5777    4.5847   -1.5264 C.ar      1 <0>        -0.1336
     21 C12        -0.1150    4.9129   -2.7991 C.ar      1 <0>         0.0227
     22 C13        -0.1621    3.9639   -3.8182 C.ar      1 <0>        -0.1334
     23 C14        -0.6610    2.7030   -3.5609 C.ar      1 <0>        -0.0031
     24 C15         0.4256    6.2684   -3.0683 C.ar      1 <0>        -0.0668
     25 C16         0.4776    7.2158   -2.0478 C.ar      1 <0>        -0.1006
     26 C17         0.9817    8.4749   -2.3037 C.ar      1 <0>        -0.1196
     27 C18         1.4345    8.7971   -3.5703 C.ar      1 <0>        -0.1077
     28 C19         1.3848    7.8607   -4.5871 C.ar      1 <0>        -0.1191
     29 C20         0.8883    6.5966   -4.3409 C.ar      1 <0>        -0.1003
     30 H2          2.6649    1.6685   -0.1986 H         1 <0>         0.0659
     31 H3          1.3722    1.5124   -1.4121 H         1 <0>         0.0667
     32 H4          1.0036    2.1668    0.2016 H         1 <0>         0.0556
     33 H5          1.9109   -0.6853   -0.3979 H         1 <0>         0.0953
     34 H6          1.0694    0.6961    2.1902 H         1 <0>         0.0619
     35 H7          1.3760   -1.0484    2.0148 H         1 <0>         0.0608
     36 H8          2.7039    0.1155    1.7909 H         1 <0>         0.0710
     37 H9         -1.0082   -1.1319    2.2840 H         1 <0>         0.4083
     38 H10        -1.3137   -3.2570    3.0940 H         1 <0>         0.3892
     39 H11        -1.1951   -2.3143   -2.2598 H         1 <0>         0.0884
     40 H12        -0.9718   -3.0391   -4.6724 H         1 <0>         0.0678
     41 H13        -1.4776   -1.3442   -4.4730 H         1 <0>         0.0852
     42 H14         0.2070   -1.7255   -4.9030 H         1 <0>         0.0601
     43 H15         0.9752   -3.2889   -1.5607 H         1 <0>         0.0819
     44 H16         0.2803   -4.1918   -2.9283 H         1 <0>         0.0627
     45 H17         1.6139   -3.0456   -3.2042 H         1 <0>         0.0511
     46 H18        -1.4392    3.0673   -0.2958 H         1 <0>         0.1407
     47 H19        -0.5439    5.3167   -0.7330 H         1 <0>         0.1371
     48 H20         0.1950    4.2131   -4.8065 H         1 <0>         0.1373
     49 H21        -0.6936    1.9651   -4.3488 H         1 <0>         0.1448
     50 H22         0.1237    6.9655   -1.0587 H         1 <0>         0.1279
     51 H23         1.0225    9.2100   -1.5135 H         1 <0>         0.1276
     52 H24         1.8279    9.7837   -3.7662 H         1 <0>         0.1261
     53 H25         1.7393    8.1177   -5.5744 H         1 <0>         0.1277
     54 H26         0.8541    5.8648   -5.1344 H         1 <0>         0.1282
@<TRIPOS>BOND
     1    1    2 1
     2    1   30 1
     3    1   31 1
     4    1   32 1
     5    2    3 1
     6    2    4 1
     7    2   33 1
     8    3   34 1
     9    3   35 1
    10    3   36 1
    11    4    5 1
    12    4    6 1
    13    4   10 1
    14    6    7 2
    15    6    8 am
    16    8    9 1
    17    8   37 1
    18    9   38 1
    19   10   11 1
    20   10   15 1
    21   11   12 1
    22   12   13 1
    23   12   14 1
    24   12   39 1
    25   13   40 1
    26   13   41 1
    27   13   42 1
    28   14   43 1
    29   14   44 1
    30   14   45 1
    31   15   16 2
    32   15   17 2
    33   15   18 1
    34   18   23 ar
    35   18   19 ar
    36   19   20 ar
    37   19   46 1
    38   20   21 ar
    39   20   47 1
    40   21   22 ar
    41   21   24 1
    42   22   23 ar
    43   22   48 1
    44   23   49 1
    45   24   29 ar
    46   24   25 ar
    47   25   26 ar
    48   25   50 1
    49   26   27 ar
    50   26   51 1
    51   27   28 ar
    52   27   52 1
    53   28   29 ar
    54   28   53 1
    55   29   54 1
@<TRIPOS>MOLECULE
ZINC25337747
   46    48     0     0     0
SMALL
USER_CHARGES
4-(4-methoxyphenyl)-N-(2-morpholinoethyl)thiophene-2-carboxamide
@<TRIPOS>ATOM
      1 C1          3.7685   -7.5635   -6.5236 C.3       1 <0>         0.0221
      2 O1          3.1176   -8.0812   -5.3615 O.3       1 <0>        -0.3162
      3 C2          2.6118   -7.1760   -4.4828 C.ar      1 <0>         0.1306
      4 C3          1.9672   -7.6119   -3.3335 C.ar      1 <0>        -0.1479
      5 C4          1.4529   -6.6954   -2.4398 C.ar      1 <0>        -0.0689
      6 C5          1.5806   -5.3311   -2.6921 C.ar      1 <0>        -0.0693
      7 C6          2.2231   -4.8966   -3.8495 C.ar      1 <0>        -0.0686
      8 C7          2.7405   -5.8175   -4.7368 C.ar      1 <0>        -0.2030
      9 C8          1.0277   -4.3424   -1.7326 C.2       1 <0>        -0.0885
     10 C9          1.1460   -2.9854   -1.9682 C.2       1 <0>        -0.0639
     11 C10         0.6050   -2.1306   -1.0260 C.2       1 <0>        -0.2346
     12 S1         -0.0558   -3.2650    0.1809 S.3       1 <0>         0.1527
     13 C11         0.3843   -4.7563   -0.5849 C.2       1 <0>        -0.1840
     14 C12         0.5851   -0.6645   -1.0180 C.2       1 <0>         0.6074
     15 O2          1.0950   -0.0440   -1.9323 O.2       1 <0>        -0.5253
     16 N1          0.0021   -0.0041    0.0020 N.am      1 <0>        -0.7348
     17 C13        -0.0178    1.4608    0.0101 C.3       1 <0>         0.1248
     18 C14        -0.7339    1.9542    1.2689 C.3       1 <0>         0.0433
     19 N2         -0.7539    3.4230    1.2770 N.3       1 <0>        -0.5328
     20 C15         0.6043    3.9676    1.4191 C.3       1 <0>         0.0100
     21 C16         0.5438    5.4963    1.3628 C.3       1 <0>         0.0609
     22 O3         -0.3394    5.9713    2.3824 O.3       1 <0>        -0.3845
     23 C17        -1.6711    5.4613    2.2740 C.3       1 <0>         0.0608
     24 C18        -1.6331    3.9322    2.3395 C.3       1 <0>         0.0176
     25 H1          4.1280   -8.3973   -7.1446 H         1 <0>         0.1037
     26 H2          4.6213   -6.9392   -6.2187 H         1 <0>         0.0579
     27 H3          3.0573   -6.9556   -7.1020 H         1 <0>         0.0579
     28 H4          1.8685   -8.6695   -3.1385 H         1 <0>         0.1345
     29 H5          0.9514   -7.0352   -1.5457 H         1 <0>         0.1310
     30 H6          2.3199   -3.8397   -4.0497 H         1 <0>         0.1289
     31 H7          3.2422   -5.4812   -5.6321 H         1 <0>         0.1319
     32 H8          1.6408   -2.6088   -2.8512 H         1 <0>         0.1495
     33 H9          0.2031   -5.7649   -0.2437 H         1 <0>         0.1936
     34 H10        -0.4588   -0.5650    0.8284 H         1 <0>         0.4191
     35 H11         1.0142    1.8415    0.0023 H         1 <0>         0.0709
     36 H12        -0.5498    1.8252   -0.8810 H         1 <0>         0.0812
     37 H13        -1.7659    1.5734    1.2767 H         1 <0>         0.0861
     38 H14        -0.2019    1.5898    2.1601 H         1 <0>         0.0447
     39 H15         1.0273    3.6507    2.3838 H         1 <0>         0.0462
     40 H16         1.2369    3.5934    0.6007 H         1 <0>         0.0917
     41 H17         1.5503    5.9093    1.5252 H         1 <0>         0.1014
     42 H18         0.1725    5.8125    0.3768 H         1 <0>         0.0627
     43 H19        -2.2814    5.8507    3.1022 H         1 <0>         0.1015
     44 H20        -2.1083    5.7784    1.3158 H         1 <0>         0.0622
     45 H21        -2.6480    3.5319    2.1988 H         1 <0>         0.0897
     46 H22        -1.2463    3.6147    3.3191 H         1 <0>         0.0458
@<TRIPOS>BOND
     1    1    2 1
     2    1   25 1
     3    1   26 1
     4    1   27 1
     5    2    3 1
     6    3    8 ar
     7    3    4 ar
     8    4    5 ar
     9    4   28 1
    10    5    6 ar
    11    5   29 1
    12    6    7 ar
    13    6    9 1
    14    7    8 ar
    15    7   30 1
    16    8   31 1
    17    9   13 2
    18    9   10 1
    19   10   11 2
    20   10   32 1
    21   11   12 1
    22   11   14 1
    23   12   13 1
    24   13   33 1
    25   14   15 2
    26   14   16 am
    27   16   17 1
    28   16   34 1
    29   17   18 1
    30   17   35 1
    31   17   36 1
    32   18   19 1
    33   18   37 1
    34   18   38 1
    35   19   24 1
    36   19   20 1
    37   20   21 1
    38   20   39 1
    39   20   40 1
    40   21   22 1
    41   21   41 1
    42   21   42 1
    43   22   23 1
    44   23   24 1
    45   23   43 1
    46   23   44 1
    47   24   45 1
    48   24   46 1
@<TRIPOS>MOLECULE
ZINC03780014
   56    57     0     0     0
SMALL
USER_CHARGES

@<TRIPOS>ATOM
      1 C1         -4.9014   -2.7959   -0.2874 C.3       1 <0>        -0.1475
      2 C2         -3.5376   -2.8042   -0.9809 C.3       1 <0>        -0.0930
      3 C3         -3.1945   -1.3884   -1.4484 C.3       1 <0>        -0.1554
      4 C4         -2.4693   -3.2902    0.0006 C.3       1 <0>        -0.1061
      5 C5         -1.1289   -3.4171   -0.7262 C.3       1 <0>        -0.1051
      6 H1         -0.8997   -2.4792   -1.2321 H         1 <0>         0.1276
      7 C6         -1.2122   -4.5451   -1.7565 C.3       1 <0>        -0.1172
      8 C7         -1.5195   -3.9649   -3.1129 C.2       1 <0>         0.5263
      9 O1         -1.2277   -2.8140   -3.3604 O.2       1 <0>        -0.5111
     10 N1         -2.1186   -4.7249   -4.0510 N.am      1 <0>        -0.5983
     11 O2         -2.4073   -4.1798   -5.3255 O.3       1 <0>        -0.3184
     12 C8         -0.0436   -3.7277    0.2721 C.2       1 <0>         0.5307
     13 O3          0.4797   -4.8218    0.2782 O.2       1 <0>        -0.5430
     14 N2          0.3456   -2.7896    1.1581 N.am      1 <0>        -0.6970
     15 C9          1.4614   -3.0597    2.0683 C.3       1 <0>         0.1359
     16 H2          2.1702   -3.7318    1.5846 H         1 <0>         0.1120
     17 C10         2.1624   -1.7460    2.4196 C.3       1 <0>        -0.0434
     18 C11         2.7912   -1.1648    1.1795 C.2       1 <0>        -0.1770
     19 C12         4.0613   -1.3280    0.7767 C.2       1 <0>         0.0630
     20 N3          4.2699   -0.6520   -0.3945 N.pl3     1 <0>        -0.5937
     21 H3          5.1101   -0.6216   -0.8783 H         1 <0>         0.4168
     22 C13         3.1096   -0.0211   -0.7839 C.ar      1 <0>         0.0948
     23 C14         2.1307   -0.3199    0.1817 C.ar      1 <0>        -0.0926
     24 C15         0.8375    0.1869    0.0425 C.ar      1 <0>        -0.0773
     25 C16         0.5277    0.9690   -1.0346 C.ar      1 <0>        -0.1349
     26 C17         1.4886    1.2632   -1.9919 C.ar      1 <0>        -0.0949
     27 C18         2.7736    0.7811   -1.8692 C.ar      1 <0>        -0.1271
     28 C19         0.9385   -3.7024    3.3271 C.2       1 <0>         0.5025
     29 O4         -0.2172   -3.5389    3.6565 O.2       1 <0>        -0.5287
     30 N4          1.7552   -4.4590    4.0868 N.am      1 <0>        -0.7323
     31 C20         1.2469   -5.0838    5.3105 C.3       1 <0>         0.0869
     32 H4         -5.6625   -2.4497   -0.9866 H         1 <0>         0.0552
     33 H5         -5.1458   -3.8046    0.0457 H         1 <0>         0.0533
     34 H6         -4.8674   -2.1275    0.5729 H         1 <0>         0.0568
     35 H7         -3.5716   -3.4727   -1.8412 H         1 <0>         0.0647
     36 H8         -3.2493   -0.7032   -0.6024 H         1 <0>         0.0525
     37 H9         -2.1857   -1.3764   -1.8609 H         1 <0>         0.0736
     38 H10        -3.9042   -1.0768   -2.2148 H         1 <0>         0.0517
     39 H11        -2.3735   -2.5744    0.8171 H         1 <0>         0.0747
     40 H12        -2.7588   -4.2617    0.4012 H         1 <0>         0.0715
     41 H13        -0.2596   -5.0735   -1.7946 H         1 <0>         0.1205
     42 H14        -2.0020   -5.2401   -1.4712 H         1 <0>         0.0973
     43 H15        -2.3519   -5.6454   -3.8530 H         1 <0>         0.4079
     44 H16        -2.8369   -4.7999   -5.9305 H         1 <0>         0.3870
     45 H17        -0.1130   -1.9356    1.1932 H         1 <0>         0.4054
     46 H18         1.4341   -1.0418    2.8219 H         1 <0>         0.0844
     47 H19         2.9354   -1.9346    3.1647 H         1 <0>         0.0914
     48 H20         4.8080   -1.9070    1.2999 H         1 <0>         0.1699
     49 H21         0.0845   -0.0385    0.7831 H         1 <0>         0.1149
     50 H22        -0.4730    1.3609   -1.1419 H         1 <0>         0.1230
     51 H23         1.2283    1.8821   -2.8378 H         1 <0>         0.1250
     52 H24         3.5139    1.0147   -2.6201 H         1 <0>         0.1186
     53 H25         2.6795   -4.5898    3.8233 H         1 <0>         0.4024
     54 H26         2.0457   -5.6518    5.7873 H         1 <0>         0.0763
     55 H27         0.8932   -4.3111    5.9931 H         1 <0>         0.0605
     56 H28         0.4236   -5.7533    5.0616 H         1 <0>         0.0594
@<TRIPOS>BOND
     1    1    2 1
     2    1   32 1
     3    1   33 1
     4    1   34 1
     5    2    3 1
     6    2    4 1
     7    2   35 1
     8    3   36 1
     9    3   37 1
    10    3   38 1
    11    4    5 1
    12    4   39 1
    13    4   40 1
    14    5    6 1
    15    5    7 1
    16    5   12 1
    17    7    8 1
    18    7   41 1
    19    7   42 1
    20    8    9 2
    21    8   10 am
    22   10   11 1
    23   10   43 1
    24   11   44 1
    25   12   13 2
    26   12   14 am
    27   14   15 1
    28   14   45 1
    29   15   16 1
    30   15   17 1
    31   15   28 1
    32   17   18 1
    33   17   46 1
    34   17   47 1
    35   18   23 1
    36   18   19 2
    37   19   20 1
    38   19   48 1
    39   20   21 1
    40   20   22 1
    41   22   27 ar
    42   22   23 ar
    43   23   24 ar
    44   24   25 ar
    45   24   49 1
    46   25   26 ar
    47   25   50 1
    48   26   27 ar
    49   26   51 1
    50   27   52 1
    51   28   29 2
    52   28   30 am
    53   30   31 1
    54   30   53 1
    55   31   54 1
    56   31   55 1
    57   31   56 1
@<TRIPOS>MOLECULE
ZINC03817204
   57    60     0     0     0
SMALL
USER_CHARGES
N-[3-(hydroxycarbamoyl)tetrahydropyran-4-yl]-4-[(2-methyl-4-quinolyl)methoxy]benzamide
@<TRIPOS>ATOM
      1 C1         12.4141    3.1742   -1.7598 C.3       1 <0>        -0.1089
      2 C2         11.4831    4.0380   -0.9486 C.ar      1 <0>         0.1630
      3 C3         10.1409    3.6784   -0.8463 C.ar      1 <0>        -0.1467
      4 C4          9.2827    4.4491   -0.1149 C.ar      1 <0>        -0.0354
      5 C5          9.7948    5.5997    0.5139 C.ar      1 <0>        -0.0976
      6 C6          8.9742    6.4369    1.2871 C.ar      1 <0>        -0.1045
      7 C7          9.5085    7.5375    1.8842 C.ar      1 <0>        -0.1108
      8 C8         10.8611    7.8420    1.7429 C.ar      1 <0>        -0.1006
      9 C9         11.6858    7.0499    1.0053 C.ar      1 <0>        -0.0898
     10 C10        11.1713    5.9044    0.3731 C.ar      1 <0>         0.1347
     11 N1         11.9576    5.1075   -0.3575 N.ar      1 <0>        -0.4737
     12 C11         7.8266    4.0813    0.0102 C.3       1 <0>         0.1004
     13 O1          7.5734    2.8819   -0.7242 O.3       1 <0>        -0.3048
     14 C12         6.3008    2.4105   -0.7146 C.ar      1 <0>         0.1580
     15 C13         5.9870    1.2481   -1.4090 C.ar      1 <0>        -0.1557
     16 C14         4.6969    0.7666   -1.4017 C.ar      1 <0>        -0.0164
     17 C15         3.7027    1.4483   -0.6950 C.ar      1 <0>        -0.1704
     18 C16         4.0211    2.6197   -0.0030 C.ar      1 <0>        -0.0409
     19 C17         5.3149    3.0913   -0.0101 C.ar      1 <0>        -0.2169
     20 C18         2.3186    0.9357   -0.6846 C.2       1 <0>         0.5733
     21 O2          2.0423   -0.0810   -1.2914 O.2       1 <0>        -0.5348
     22 N2          1.3611    1.5946   -0.0024 N.am      1 <0>        -0.7140
     23 C19        -0.0127    1.0858    0.0080 C.3       1 <0>         0.1668
     24 H1          0.0021   -0.0041    0.0020 H         1 <0>         0.1056
     25 C20        -0.7571    1.5950   -1.2301 C.3       1 <0>        -0.1669
     26 C21        -0.8432    3.1225   -1.1717 C.3       1 <0>         0.0562
     27 O3         -1.4965    3.5173    0.0364 O.3       1 <0>        -0.3681
     28 C22        -0.8185    3.1096    1.2264 C.3       1 <0>         0.0694
     29 C23        -0.7333    1.5816    1.2655 C.3       1 <0>        -0.1429
     30 H2         -1.7385    1.1615    1.2989 H         1 <0>         0.1298
     31 C24         0.0338    1.1498    2.4887 C.2       1 <0>         0.5253
     32 O4          1.0563    0.5087    2.3683 O.2       1 <0>        -0.4961
     33 N3         -0.4164    1.4762    3.7165 N.am      1 <0>        -0.5966
     34 O5          0.3044    1.0705    4.8658 O.3       1 <0>        -0.3156
     35 H3         12.4256    3.5227   -2.7926 H         1 <0>         0.0833
     36 H4         13.4202    3.2348   -1.3447 H         1 <0>         0.0807
     37 H5         12.0700    2.1405   -1.7290 H         1 <0>         0.0794
     38 H6          9.7794    2.7913   -1.3451 H         1 <0>         0.1477
     39 H7          7.9245    6.2112    1.4039 H         1 <0>         0.1273
     40 H8          8.8758    8.1833    2.4750 H         1 <0>         0.1297
     41 H9         11.2610    8.7211    2.2263 H         1 <0>         0.1324
     42 H10        12.7318    7.3001    0.9062 H         1 <0>         0.1378
     43 H11         7.2124    4.8883   -0.3891 H         1 <0>         0.0868
     44 H12         7.5808    3.9231    1.0603 H         1 <0>         0.0868
     45 H13         6.7560    0.7216   -1.9546 H         1 <0>         0.1410
     46 H14         4.4539   -0.1369   -1.9412 H         1 <0>         0.1457
     47 H15         3.2545    3.1519    0.5407 H         1 <0>         0.1241
     48 H16         5.5628    3.9938    0.5288 H         1 <0>         0.1337
     49 H17         1.5815    2.4058    0.4817 H         1 <0>         0.3938
     50 H18        -0.2187    1.2932   -2.1285 H         1 <0>         0.0910
     51 H19        -1.7628    1.1751   -1.2488 H         1 <0>         0.0883
     52 H20        -1.4106    3.4876   -2.0278 H         1 <0>         0.1034
     53 H21         0.1620    3.5433   -1.1956 H         1 <0>         0.0546
     54 H22        -1.3680    3.4655    2.0979 H         1 <0>         0.1044
     55 H23         0.1872    3.5301    1.2340 H         1 <0>         0.0563
     56 H24        -1.2341    1.9889    3.8127 H         1 <0>         0.4078
     57 H25        -0.0958    1.3509    5.7003 H         1 <0>         0.3895
@<TRIPOS>BOND
     1    1    2 1
     2    1   35 1
     3    1   36 1
     4    1   37 1
     5    2   11 ar
     6    2    3 ar
     7    3    4 ar
     8    3   38 1
     9    4    5 ar
    10    4   12 1
    11    5   10 ar
    12    5    6 ar
    13    6    7 ar
    14    6   39 1
    15    7    8 ar
    16    7   40 1
    17    8    9 ar
    18    8   41 1
    19    9   10 ar
    20    9   42 1
    21   10   11 ar
    22   12   13 1
    23   12   43 1
    24   12   44 1
    25   13   14 1
    26   14   19 ar
    27   14   15 ar
    28   15   16 ar
    29   15   45 1
    30   16   17 ar
    31   16   46 1
    32   17   18 ar
    33   17   20 1
    34   18   19 ar
    35   18   47 1
    36   19   48 1
    37   20   21 2
    38   20   22 am
    39   22   23 1
    40   22   49 1
    41   23   24 1
    42   23   29 1
    43   23   25 1
    44   25   26 1
    45   25   50 1
    46   25   51 1
    47   26   27 1
    48   26   52 1
    49   26   53 1
    50   27   28 1
    51   28   29 1
    52   28   54 1
    53   28   55 1
    54   29   30 1
    55   29   31 1
    56   31   32 2
    57   31   33 am
    58   33   34 1
    59   33   56 1
    60   34   57 1
@<TRIPOS>MOLECULE
ZINC13982474
   54    57     0     0     0
SMALL
USER_CHARGES
N-[(3R,4R)-3-(hydroxycarbamoyl)tetrahydropyran-4-yl]-4-[[2-(trifluoromethyl)benzimidazol-1-yl]methyl]benzamide
@<TRIPOS>ATOM
      1 C1         -8.6866    7.9745   -6.1187 C.ar      1 <0>        -0.1260
      2 C2         -7.3857    7.6287   -6.4565 C.ar      1 <0>        -0.0804
      3 C3         -7.0477    6.3103   -6.6755 C.ar      1 <0>        -0.1148
      4 C4         -8.0167    5.3232   -6.5570 C.ar      1 <0>         0.0764
      5 C5         -9.3344    5.6741   -6.2183 C.ar      1 <0>         0.0396
      6 C6         -9.6549    7.0175   -6.0056 C.ar      1 <0>        -0.0476
      7 N1        -10.0501    4.5213   -6.1681 N.2       1 <0>        -0.4246
      8 C7         -9.2773    3.5139   -6.4522 C.2       1 <0>         0.1831
      9 N2         -8.0137    3.9505   -6.7040 N.pl3     1 <0>        -0.4578
     10 C8         -6.8619    3.1177   -7.0592 C.3       1 <0>         0.1351
     11 C9         -6.0727    2.7956   -5.8165 C.ar      1 <0>        -0.0998
     12 C10        -6.3071    1.6122   -5.1391 C.ar      1 <0>        -0.1033
     13 C11        -5.5874    1.3109   -4.0014 C.ar      1 <0>        -0.0552
     14 C12        -4.6214    2.2031   -3.5337 C.ar      1 <0>        -0.1201
     15 C13        -4.3938    3.3979   -4.2185 C.ar      1 <0>        -0.0831
     16 C14        -5.1165    3.6844   -5.3582 C.ar      1 <0>        -0.1009
     17 C15        -3.8467    1.8869   -2.3148 C.2       1 <0>         0.5598
     18 O1         -4.0505    0.8480   -1.7176 O.2       1 <0>        -0.5328
     19 N3         -2.9145    2.7506   -1.8658 N.am      1 <0>        -0.7127
     20 C16        -2.1469    2.4372   -0.6579 C.3       1 <0>         0.1692
     21 H1         -1.9681    1.3632   -0.6064 H         1 <0>         0.1052
     22 C17        -2.9316    2.8860    0.5787 C.3       1 <0>        -0.1805
     23 C18        -2.0887    2.6267    1.8301 C.3       1 <0>         0.0614
     24 O2         -0.8439    3.3199    1.7167 O.3       1 <0>        -0.3739
     25 C19        -0.0462    2.9079    0.6050 C.3       1 <0>         0.0698
     26 C20        -0.8070    3.1785   -0.6957 C.3       1 <0>        -0.1471
     27 H2         -0.2186    2.8246   -1.5422 H         1 <0>         0.1217
     28 C21        -1.0540    4.6585   -0.8360 C.2       1 <0>         0.5374
     29 O3         -2.1892    5.0799   -0.9055 O.2       1 <0>        -0.5096
     30 N4         -0.0135    5.5138   -0.8844 N.am      1 <0>        -0.5915
     31 O4         -0.2456    6.9044   -1.0163 O.3       1 <0>        -0.3144
     32 C22        -9.7178    2.0734   -6.4963 C.3       1 <0>         0.5595
     33 F1        -11.1154    2.0136   -6.5168 F         1 <0>        -0.1437
     34 F2         -9.2080    1.4649   -7.6483 F         1 <0>        -0.1654
     35 F3         -9.2390    1.4044   -5.3648 F         1 <0>        -0.1587
     36 H3         -8.9374    9.0113   -5.9499 H         1 <0>         0.1366
     37 H4         -6.6331    8.3978   -6.5487 H         1 <0>         0.1370
     38 H5         -6.0339    6.0467   -6.9385 H         1 <0>         0.1267
     39 H6        -10.6638    7.2975   -5.7407 H         1 <0>         0.1364
     40 H7         -6.2275    3.6563   -7.7632 H         1 <0>         0.1134
     41 H8         -7.2103    2.1926   -7.5184 H         1 <0>         0.1142
     42 H9         -7.0549    0.9227   -5.5020 H         1 <0>         0.1332
     43 H10        -5.7709    0.3864   -3.4739 H         1 <0>         0.1430
     44 H11        -3.6508    4.0945   -3.8593 H         1 <0>         0.1298
     45 H12        -4.9383    4.6065   -5.8916 H         1 <0>         0.1300
     46 H13        -2.7519    3.5796   -2.3423 H         1 <0>         0.4054
     47 H14        -3.1532    3.9506    0.5029 H         1 <0>         0.0998
     48 H15        -3.8626    2.3230    0.6435 H         1 <0>         0.0837
     49 H16        -2.6246    2.9835    2.7096 H         1 <0>         0.1023
     50 H17        -1.9018    1.5573    1.9273 H         1 <0>         0.0581
     51 H18         0.1676    1.8422    0.6860 H         1 <0>         0.0756
     52 H19         0.8894    3.4671    0.6019 H         1 <0>         0.1031
     53 H20         0.8943    5.1767   -0.8288 H         1 <0>         0.4076
     54 H21         0.5610    7.4371   -1.0420 H         1 <0>         0.3897
@<TRIPOS>BOND
     1    1    6 ar
     2    1    2 ar
     3    1   36 1
     4    2    3 ar
     5    2   37 1
     6    3    4 ar
     7    3   38 1
     8    4    9 1
     9    4    5 ar
    10    5    6 ar
    11    5    7 1
    12    6   39 1
    13    7    8 2
    14    8    9 1
    15    8   32 1
    16    9   10 1
    17   10   11 1
    18   10   40 1
    19   10   41 1
    20   11   16 ar
    21   11   12 ar
    22   12   13 ar
    23   12   42 1
    24   13   14 ar
    25   13   43 1
    26   14   15 ar
    27   14   17 1
    28   15   16 ar
    29   15   44 1
    30   16   45 1
    31   17   18 2
    32   17   19 am
    33   19   20 1
    34   19   46 1
    35   20   21 1
    36   20   26 1
    37   20   22 1
    38   22   23 1
    39   22   47 1
    40   22   48 1
    41   23   24 1
    42   23   49 1
    43   23   50 1
    44   24   25 1
    45   25   26 1
    46   25   51 1
    47   25   52 1
    48   26   27 1
    49   26   28 1
    50   28   29 2
    51   28   30 am
    52   30   31 1
    53   30   53 1
    54   31   54 1
    55   32   33 1
    56   32   34 1
    57   32   35 1
@<TRIPOS>MOLECULE
ZINC03818629
   41    41     0     0     0
SMALL
USER_CHARGES

@<TRIPOS>ATOM
      1 C1          0.3217    1.2381   -0.4555 C.3       1 <0>        -0.1483
      2 C2          0.1189   -0.2089   -0.0016 C.3       1 <0>        -0.1216
      3 C3          0.8424   -0.4325    1.3278 C.3       1 <0>        -0.1516
      4 C4         -1.3757   -0.4820    0.1789 C.3       1 <0>         0.1171
      5 N1         -1.5796   -1.9006    0.4828 N.pl3     1 <0>        -0.9744
      6 C5         -1.4984   -2.3721    1.8675 C.3       1 <0>         0.1129
      7 C6         -2.8306   -2.1756    2.5440 C.2       1 <0>         0.5050
      8 O1         -3.7567   -1.6895    1.9300 O.2       1 <0>        -0.5035
      9 N2         -2.9929   -2.5400    3.8314 N.am      1 <0>        -0.5967
     10 O2         -4.2447   -2.3553    4.4670 O.3       1 <0>        -0.3162
     11 S1         -1.9019   -2.9711   -0.7389 S.o2      1 <0>         2.6937
     12 O3         -2.5809   -4.0702   -0.1471 O.2       1 <0>        -0.9505
     13 O4         -2.4604   -2.2150   -1.8046 O.2       1 <0>        -0.9449
     14 C7         -0.3543   -3.5859   -1.3146 C.ar      1 <0>        -0.7163
     15 C8          0.3126   -2.9311   -2.3335 C.ar      1 <0>         0.0203
     16 C9          1.5258   -3.4114   -2.7870 C.ar      1 <0>        -0.1694
     17 C10         2.0753   -4.5515   -2.2188 C.ar      1 <0>         0.1849
     18 C11         1.4045   -5.2065   -1.1963 C.ar      1 <0>        -0.2285
     19 C12         0.1939   -4.7192   -0.7428 C.ar      1 <0>         0.0201
     20 O5          3.2686   -5.0262   -2.6635 O.3       1 <0>        -0.3098
     21 C13         3.7739   -6.2044   -2.0322 C.3       1 <0>         0.0218
     22 H1          1.3864    1.4327   -0.5841 H         1 <0>         0.0600
     23 H2         -0.1938    1.3974   -1.4026 H         1 <0>         0.0607
     24 H3         -0.0831    1.9150    0.2968 H         1 <0>         0.0590
     25 H4          0.5237   -0.8858   -0.7539 H         1 <0>         0.0739
     26 H5          0.8024   -1.4898    1.5899 H         1 <0>         0.0573
     27 H6          1.8826   -0.1210    1.2323 H         1 <0>         0.0583
     28 H7          0.3577    0.1539    2.1084 H         1 <0>         0.0575
     29 H8         -1.7593    0.1241    0.9995 H         1 <0>         0.0896
     30 H9         -1.9051   -0.2274   -0.7393 H         1 <0>         0.1005
     31 H10        -1.2392   -3.4308    1.8762 H         1 <0>         0.1169
     32 H11        -0.7337   -1.8064    2.3997 H         1 <0>         0.1252
     33 H12        -2.2523   -2.9287    4.3224 H         1 <0>         0.4079
     34 H13        -4.2643   -2.6463    5.3890 H         1 <0>         0.3880
     35 H14        -0.1156   -2.0436   -2.7755 H         1 <0>         0.1477
     36 H15         2.0460   -2.9000   -3.5834 H         1 <0>         0.1429
     37 H16         1.8301   -6.0943   -0.7524 H         1 <0>         0.1395
     38 H17        -0.3266   -5.2262    0.0562 H         1 <0>         0.1420
     39 H18         3.9123   -6.0154   -0.9677 H         1 <0>         0.0609
     40 H19         3.0651   -7.0214   -2.1670 H         1 <0>         0.0613
     41 H20         4.7299   -6.4752   -2.4804 H         1 <0>         0.1066
@<TRIPOS>BOND
     1    1    2 1
     2    1   22 1
     3    1   23 1
     4    1   24 1
     5    2    3 1
     6    2    4 1
     7    2   25 1
     8    3   26 1
     9    3   27 1
    10    3   28 1
    11    4    5 1
    12    4   29 1
    13    4   30 1
    14    5    6 1
    15    5   11 1
    16    6    7 1
    17    6   31 1
    18    6   32 1
    19    7    8 2
    20    7    9 am
    21    9   10 1
    22    9   33 1
    23   10   34 1
    24   11   12 2
    25   11   13 2
    26   11   14 1
    27   14   19 ar
    28   14   15 ar
    29   15   16 ar
    30   15   35 1
    31   16   17 ar
    32   16   36 1
    33   17   18 ar
    34   17   20 1
    35   18   19 ar
    36   18   37 1
    37   19   38 1
    38   20   21 1
    39   21   39 1
    40   21   40 1
    41   21   41 1
@<TRIPOS>MOLECULE
ZINC06744035
   50    53     0     0     0
SMALL
USER_CHARGES
3-phenyl-3-[[4-[4-(4-pyridyl)phenyl]-2-thienyl]carbonylamino]propanoic acid
@<TRIPOS>ATOM
      1 C1          3.3384    8.0117    3.9168 C.ar      1 <0>        -0.1296
      2 C2          2.8712    8.8800    2.9480 C.ar      1 <0>        -0.1204
      3 C3          2.6986    8.4385    1.6494 C.ar      1 <0>        -0.1045
      4 C4          2.9938    7.1289    1.3197 C.ar      1 <0>        -0.0807
      5 C5          3.4561    6.2593    2.2897 C.ar      1 <0>        -0.1082
      6 C6          3.6327    6.7019    3.5873 C.ar      1 <0>        -0.1228
      7 C7          2.8057    6.6476   -0.0960 C.3       1 <0>         0.2043
      8 H1          2.1225    7.3164   -0.6194 H         1 <0>         0.1008
      9 C8          4.1567    6.6348   -0.8140 C.3       1 <0>        -0.1652
     10 C9          3.9508    6.2867   -2.2657 C.2       1 <0>         0.4588
     11 O1          2.8495    5.9919   -2.6659 O.co2     1 <0>        -0.6272
     12 N1          2.2477    5.2932   -0.0812 N.am      1 <0>        -0.6877
     13 C10         0.9140    5.1146   -0.0047 C.2       1 <0>         0.6082
     14 O2          0.1793    6.0733    0.1443 O.2       1 <0>        -0.5294
     15 C11         0.3481    3.7652   -0.1011 C.2       1 <0>        -0.2078
     16 C12        -0.9763    3.3749   -0.0463 C.2       1 <0>        -0.0781
     17 C13        -1.2433    2.0234   -0.1691 C.2       1 <0>        -0.1053
     18 C14        -0.1812    1.1560   -0.3263 C.2       1 <0>        -0.1943
     19 S1          1.1943    2.2106   -0.3178 S.3       1 <0>         0.1755
     20 C15        -2.6371    1.5178   -0.1283 C.ar      1 <0>        -0.0027
     21 C16        -3.6973    2.4086    0.0364 C.ar      1 <0>        -0.1123
     22 C17        -4.9921    1.9398    0.0686 C.ar      1 <0>        -0.0928
     23 C18        -5.2419    0.5729   -0.0520 C.ar      1 <0>        -0.0685
     24 C19        -4.1811   -0.3185   -0.2109 C.ar      1 <0>        -0.0951
     25 C20        -2.8868    0.1511   -0.2489 C.ar      1 <0>        -0.1133
     26 C21        -6.6353    0.0676   -0.0116 C.ar      1 <0>         0.0090
     27 C22        -6.9079   -1.2981   -0.1369 C.ar      1 <0>        -0.1699
     28 C23        -8.2184   -1.7260   -0.0883 C.ar      1 <0>         0.1019
     29 N2         -9.2068   -0.8651    0.0629 N.ar      1 <0>        -0.4919
     30 C24        -8.9933    0.4317    0.1792 C.ar      1 <0>         0.1027
     31 C25        -7.7129    0.9442    0.1469 C.ar      1 <0>        -0.1691
     32 H2          3.4739    8.3568    4.9312 H         1 <0>         0.1163
     33 H3          2.6412    9.9033    3.2055 H         1 <0>         0.1190
     34 H4          2.3336    9.1168    0.8925 H         1 <0>         0.1228
     35 H5          3.6825    5.2349    2.0330 H         1 <0>         0.1164
     36 H6          3.9981    6.0236    4.3442 H         1 <0>         0.1174
     37 H7          4.6178    7.6196   -0.7383 H         1 <0>         0.0837
     38 H8          4.8071    5.8926   -0.3511 H         1 <0>         0.0713
     39 H9          2.8380    4.5248   -0.1265 H         1 <0>         0.3950
     40 H10        -1.7703    4.0957    0.0823 H         1 <0>         0.1490
     41 H11        -0.2024    0.0816   -0.4333 H         1 <0>         0.1905
     42 H12        -3.5035    3.4665    0.1345 H         1 <0>         0.1322
     43 H13        -5.8134    2.6301    0.1917 H         1 <0>         0.1285
     44 H14        -4.3745   -1.3769   -0.3047 H         1 <0>         0.1276
     45 H15        -2.0653   -0.5391   -0.3716 H         1 <0>         0.1282
     46 H16        -6.1040   -2.0078   -0.2655 H         1 <0>         0.1370
     47 H17        -8.4387   -2.7793   -0.1797 H         1 <0>         0.1565
     48 H18        -9.8322    1.1009    0.3010 H         1 <0>         0.1570
     49 H19        -7.5454    2.0068    0.2431 H         1 <0>         0.1379
     50 O3          4.9908    6.3042   -3.1141 O.co2     1 <0>        -0.7712
@<TRIPOS>BOND
     1    1    6 ar
     2    1    2 ar
     3    1   32 1
     4    2    3 ar
     5    2   33 1
     6    3    4 ar
     7    3   34 1
     8    4    5 ar
     9    4    7 1
    10    5    6 ar
    11    5   35 1
    12    6   36 1
    13    7    8 1
    14    7    9 1
    15    7   12 1
    16    9   10 1
    17    9   37 1
    18    9   38 1
    19   10   11 2
    20   10   50 1
    21   12   13 am
    22   12   39 1
    23   13   14 2
    24   13   15 1
    25   15   19 1
    26   15   16 2
    27   16   17 1
    28   16   40 1
    29   17   18 2
    30   17   20 1
    31   18   19 1
    32   18   41 1
    33   20   25 ar
    34   20   21 ar
    35   21   22 ar
    36   21   42 1
    37   22   23 ar
    38   22   43 1
    39   23   24 ar
    40   23   26 1
    41   24   25 ar
    42   24   44 1
    43   25   45 1
    44   26   31 ar
    45   26   27 ar
    46   27   28 ar
    47   27   46 1
    48   28   29 ar
    49   28   47 1
    50   29   30 ar
    51   30   31 ar
    52   30   48 1
    53   31   49 1
@<TRIPOS>MOLECULE
ZINC40953882
   48    50     0     0     0
SMALL
USER_CHARGES

@<TRIPOS>ATOM
      1 C1         -0.4958    0.5810    0.2352 C.3       1 <0>        -0.1421
      2 C2         -0.4575   -0.9369    0.4239 C.3       1 <0>        -0.0807
      3 C3          0.1786   -1.5878   -0.8059 C.3       1 <0>        -0.1426
      4 C4          0.3698   -1.2757    1.6656 C.3       1 <0>         0.0748
      5 H1          0.4716   -2.3576    1.7502 H         1 <0>         0.0814
      6 C5          1.7357   -0.6504    1.5451 C.2       1 <0>         0.4900
      7 O1          1.9309    0.4746    1.9724 O.co2     1 <0>        -0.6794
      8 O2          2.6455   -1.2697    1.0204 O.co2     1 <0>        -0.6901
      9 N1         -0.3028   -0.7538    2.8578 N.pl3     1 <0>        -1.0827
     10 S1         -0.2280   -1.5917    4.2842 S.o2      1 <0>         2.7006
     11 O3         -0.9444   -0.8259    5.2432 O.2       1 <0>        -0.9702
     12 O4         -0.5624   -2.9392    3.9817 O.2       1 <0>        -0.9616
     13 C6          1.4571   -1.5944    4.7991 C.ar      1 <0>        -0.6298
     14 C7          2.2998   -2.6139    4.3852 C.ar      1 <0>        -0.0271
     15 C8          3.6203   -2.6246    4.7825 C.ar      1 <0>        -0.0735
     16 C9          4.1028   -1.6082    5.6000 C.ar      1 <0>        -0.0717
     17 C10         5.4189   -1.3112    6.1975 C.ar      1 <0>        -0.1044
     18 C11         6.6586   -1.9402    6.1621 C.ar      1 <0>        -0.0542
     19 C12         7.7266   -1.3897    6.8508 C.ar      1 <0>         0.1300
     20 C13         7.5555   -0.2130    7.5735 C.ar      1 <0>        -0.0989
     21 C14         6.3285    0.4134    7.6117 C.ar      1 <0>        -0.0955
     22 C15         5.2467   -0.1260    6.9254 C.ar      1 <0>         0.0839
     23 O5          3.9615    0.2739    6.7962 O.3       1 <0>        -0.1942
     24 C16         3.2532   -0.5757    6.0203 C.ar      1 <0>         0.0629
     25 C17         1.9266   -0.5791    5.6054 C.ar      1 <0>         0.0054
     26 N2          8.9791   -2.0179    6.8203 N.am      1 <0>        -0.6456
     27 C18         9.3744   -2.6795    5.7147 C.2       1 <0>         0.6424
     28 O6          8.6890   -2.6507    4.7117 O.2       1 <0>        -0.5427
     29 O7         10.5289   -3.3725    5.7214 O.3       1 <0>        -0.3639
     30 C19        10.8861   -4.0498    4.5149 C.3       1 <0>         0.0523
     31 H2          0.5194    0.9572    0.1092 H         1 <0>         0.0714
     32 H3         -1.0852    0.8224   -0.6494 H         1 <0>         0.0420
     33 H4         -0.9490    1.0447    1.1114 H         1 <0>         0.0491
     34 H5         -1.4727   -1.3131    0.5500 H         1 <0>         0.0634
     35 H6          1.1938   -1.2115   -0.9320 H         1 <0>         0.0720
     36 H7          0.2059   -2.6691   -0.6715 H         1 <0>         0.0512
     37 H8         -0.4108   -1.3464   -1.6905 H         1 <0>         0.0458
     38 H9         -0.7919    0.0826    2.8117 H         1 <0>         0.4149
     39 H10         1.9214   -3.4017    3.7507 H         1 <0>         0.1471
     40 H11         4.2770   -3.4192    4.4604 H         1 <0>         0.1370
     41 H12         6.7879   -2.8536    5.6005 H         1 <0>         0.1442
     42 H13         8.3911    0.2128    8.1091 H         1 <0>         0.1436
     43 H14         6.2073    1.3261    8.1762 H         1 <0>         0.1437
     44 H15         1.2617    0.2125    5.9179 H         1 <0>         0.1498
     45 H16         9.5614   -1.9765    7.5949 H         1 <0>         0.4183
     46 H17        10.1115   -4.7737    4.2616 H         1 <0>         0.0641
     47 H18        10.9843   -3.3250    3.7068 H         1 <0>         0.0642
     48 H19        11.8349   -4.5674    4.6560 H         1 <0>         0.1054
@<TRIPOS>BOND
     1    1    2 1
     2    1   31 1
     3    1   32 1
     4    1   33 1
     5    2    3 1
     6    2    4 1
     7    2   34 1
     8    3   35 1
     9    3   36 1
    10    3   37 1
    11    4    5 1
    12    4    6 1
    13    4    9 1
    14    6    7 2
    15    6    8 1
    16    9   10 1
    17    9   38 1
    18   10   11 2
    19   10   12 2
    20   10   13 1
    21   13   25 ar
    22   13   14 ar
    23   14   15 ar
    24   14   39 1
    25   15   16 ar
    26   15   40 1
    27   16   24 ar
    28   16   17 1
    29   17   22 ar
    30   17   18 ar
    31   18   19 ar
    32   18   41 1
    33   19   20 ar
    34   19   26 1
    35   20   21 ar
    36   20   42 1
    37   21   22 ar
    38   21   43 1
    39   22   23 1
    40   23   24 1
    41   24   25 ar
    42   25   44 1
    43   26   27 am
    44   26   45 1
    45   27   28 2
    46   27   29 1
    47   29   30 1
    48   30   46 1
    49   30   47 1
    50   30   48 1
@<TRIPOS>MOLECULE
ZINC43014500
   49    52     0     0     0
SMALL
USER_CHARGES

@<TRIPOS>ATOM
      1 C1         -0.0187    1.5258    0.0104 C.3       1 <0>        -0.1420
      2 C2          0.0021   -0.0041    0.0020 C.3       1 <0>        -0.0807
      3 C3          0.7421   -0.5109    1.2415 C.3       1 <0>        -0.1427
      4 C4         -1.4333   -0.5336    0.0129 C.3       1 <0>         0.0748
      5 H1         -1.4190   -1.6203    0.0965 H         1 <0>         0.0817
      6 C5         -2.1755    0.0508    1.1870 C.2       1 <0>         0.4901
      7 O1         -2.7808    1.1019    1.0636 O.co2     1 <0>        -0.6798
      8 O2         -2.1706   -0.5275    2.2604 O.co2     1 <0>        -0.6901
      9 N1         -2.1054   -0.1483   -1.2305 N.pl3     1 <0>        -1.0826
     10 S1         -3.2090   -1.1686   -1.9257 S.o2      1 <0>         2.7004
     11 O3         -3.6969   -0.5094   -3.0862 O.2       1 <0>        -0.9702
     12 O4         -2.5998   -2.4514   -1.9777 O.2       1 <0>        -0.9611
     13 C6         -4.5687   -1.3016   -0.8130 C.ar      1 <0>        -0.6285
     14 C7         -4.5656   -2.2885    0.1600 C.ar      1 <0>        -0.0276
     15 C8         -5.6249   -2.4004    1.0358 C.ar      1 <0>        -0.0717
     16 C9         -6.6962   -1.5189    0.9385 C.ar      1 <0>        -0.0741
     17 C10        -7.9577   -1.3527    1.6856 C.ar      1 <0>        -0.0929
     18 C11        -8.5367   -2.0171    2.7613 C.ar      1 <0>        -0.0886
     19 C12        -9.7678   -1.6023    3.2412 C.ar      1 <0>         0.1553
     20 C13       -10.4186   -0.5255    2.6471 C.ar      1 <0>        -0.1135
     21 C14        -9.8487    0.1356    1.5806 C.ar      1 <0>        -0.0865
     22 C15        -8.6134   -0.2681    1.0873 C.ar      1 <0>         0.0743
     23 O5         -7.8440    0.1932    0.0756 O.3       1 <0>        -0.1943
     24 C16        -6.7025   -0.5197   -0.0444 C.ar      1 <0>         0.0644
     25 C17        -5.6234   -0.4192   -0.9148 C.ar      1 <0>         0.0042
     26 N2        -10.3580   -2.2671    4.3247 N.am      1 <0>        -0.5709
     27 C18       -11.6613   -1.9446    4.9386 C.3       1 <0>         0.0581
     28 C19       -11.9440   -3.2062    5.7883 C.3       1 <0>         0.0395
     29 O6        -10.6173   -3.7239    6.0076 O.3       1 <0>        -0.3199
     30 C20        -9.8409   -3.3181    4.9885 C.2       1 <0>         0.6417
     31 O7         -8.7834   -3.8420    4.6987 O.2       1 <0>        -0.4900
     32 H2          1.0039    1.9031    0.0027 H         1 <0>         0.0419
     33 H3         -0.5459    1.8868   -0.8726 H         1 <0>         0.0491
     34 H4         -0.5289    1.8773    0.9072 H         1 <0>         0.0713
     35 H5          0.5123   -0.3556   -0.8948 H         1 <0>         0.0634
     36 H6          0.2319   -0.1594    2.1383 H         1 <0>         0.0719
     37 H7          0.7568   -1.6008    1.2356 H         1 <0>         0.0514
     38 H8          1.7647   -0.1336    1.2338 H         1 <0>         0.0458
     39 H9         -1.9040    0.7045   -1.6466 H         1 <0>         0.4149
     40 H10        -3.7320   -2.9715    0.2322 H         1 <0>         0.1476
     41 H11        -5.6227   -3.1697    1.7938 H         1 <0>         0.1388
     42 H12        -8.0290   -2.8528    3.2199 H         1 <0>         0.1624
     43 H13       -11.3785   -0.2053    3.0246 H         1 <0>         0.1406
     44 H14       -10.3632    0.9697    1.1267 H         1 <0>         0.1438
     45 H15        -5.6130    0.3484   -1.6745 H         1 <0>         0.1498
     46 H16       -11.5841   -1.0601    5.5710 H         1 <0>         0.0997
     47 H17       -12.4276   -1.8113    4.1750 H         1 <0>         0.1076
     48 H18       -12.4193   -2.9410    6.7327 H         1 <0>         0.1260
     49 H19       -12.5537   -3.9200    5.2343 H         1 <0>         0.0973
@<TRIPOS>BOND
     1    1    2 1
     2    1   32 1
     3    1   33 1
     4    1   34 1
     5    2    3 1
     6    2    4 1
     7    2   35 1
     8    3   36 1
     9    3   37 1
    10    3   38 1
    11    4    5 1
    12    4    6 1
    13    4    9 1
    14    6    7 2
    15    6    8 1
    16    9   10 1
    17    9   39 1
    18   10   11 2
    19   10   12 2
    20   10   13 1
    21   13   25 ar
    22   13   14 ar
    23   14   15 ar
    24   14   40 1
    25   15   16 ar
    26   15   41 1
    27   16   24 ar
    28   16   17 1
    29   17   22 ar
    30   17   18 ar
    31   18   19 ar
    32   18   42 1
    33   19   20 ar
    34   19   26 1
    35   20   21 ar
    36   20   43 1
    37   21   22 ar
    38   21   44 1
    39   22   23 1
    40   23   24 1
    41   24   25 ar
    42   25   45 1
    43   26   30 am
    44   26   27 1
    45   27   28 1
    46   27   46 1
    47   27   47 1
    48   28   29 1
    49   28   48 1
    50   28   49 1
    51   29   30 1
    52   30   31 2
@<TRIPOS>MOLECULE
ZINC45245351
   36    37     0     0     0
SMALL
USER_CHARGES

@<TRIPOS>ATOM
      1 C1         -0.0167    1.3790    0.0096 C.ar      1 <0>        -0.1235
      2 C2          1.1687    2.0919    0.0021 C.ar      1 <0>        -0.1176
      3 C3          2.3774    1.4258   -0.0129 C.ar      1 <0>        -0.1133
      4 C4          2.4022    0.0327   -0.0206 C.ar      1 <0>        -0.0391
      5 C5          1.2051   -0.6804   -0.0130 C.ar      1 <0>        -0.1132
      6 C6          0.0021   -0.0041    0.0020 C.ar      1 <0>        -0.1176
      7 C7          3.6987   -0.6889   -0.0373 C.ar      1 <0>        -0.0573
      8 C8          4.8958    0.0241   -0.0395 C.ar      1 <0>        -0.1063
      9 C9          6.0988   -0.6522   -0.0546 C.ar      1 <0>        -0.1137
     10 C10         6.1176   -2.0352   -0.0680 C.ar      1 <0>        -0.0651
     11 C11         4.9322   -2.7481   -0.0663 C.ar      1 <0>        -0.1137
     12 C12         3.7235   -2.0821   -0.0450 C.ar      1 <0>        -0.1063
     13 C13         7.4343   -2.7680   -0.0849 C.3       1 <0>        -0.0728
     14 C14         7.8907   -3.0298    1.3518 C.3       1 <0>        -0.6321
     15 S1          9.4757   -3.9119    1.3314 S.o2      1 <0>         2.4486
     16 O1          9.2684   -5.1955    0.7580 O.2       1 <0>        -0.9365
     17 O2         10.4600   -3.0548    0.7694 O.2       1 <0>        -0.9365
     18 C15         9.8392   -4.1237    3.0959 C.3       1 <0>        -0.6706
     19 C16        11.1482   -4.8532    3.2552 C.2       1 <0>         0.5188
     20 O3         11.7776   -5.1983    2.2696 O.co2     1 <0>        -0.6736
     21 O4         11.5778   -5.0983    4.3695 O.co2     1 <0>        -0.6724
     22 H1         -0.9603    1.9042    0.0260 H         1 <0>         0.1213
     23 H2          1.1483    3.1717    0.0077 H         1 <0>         0.1232
     24 H3          3.3023    1.9834   -0.0191 H         1 <0>         0.1254
     25 H4          1.2186   -1.7603   -0.0193 H         1 <0>         0.1255
     26 H5         -0.9264   -0.5558    0.0082 H         1 <0>         0.1232
     27 H6          4.8823    1.1040   -0.0299 H         1 <0>         0.1253
     28 H7          7.0273   -0.1005   -0.0564 H         1 <0>         0.1284
     29 H8          4.9525   -3.8278   -0.0771 H         1 <0>         0.1284
     30 H9          2.7986   -2.6396   -0.0392 H         1 <0>         0.1253
     31 H10         7.3150   -3.7174   -0.6069 H         1 <0>         0.0907
     32 H11         8.1807   -2.1622   -0.5986 H         1 <0>         0.0906
     33 H12         8.0100   -2.0804    1.8738 H         1 <0>         0.1274
     34 H13         7.1443   -3.6356    1.8655 H         1 <0>         0.1275
     35 H14         9.9078   -3.1459    3.5727 H         1 <0>         0.1258
     36 H15         9.0421   -4.7011    3.5644 H         1 <0>         0.1258
@<TRIPOS>BOND
     1    1    6 ar
     2    1    2 ar
     3    1   22 1
     4    2    3 ar
     5    2   23 1
     6    3    4 ar
     7    3   24 1
     8    4    5 ar
     9    4    7 1
    10    5    6 ar
    11    5   25 1
    12    6   26 1
    13    7   12 ar
    14    7    8 ar
    15    8    9 ar
    16    8   27 1
    17    9   10 ar
    18    9   28 1
    19   10   11 ar
    20   10   13 1
    21   11   12 ar
    22   11   29 1
    23   12   30 1
    24   13   14 1
    25   13   31 1
    26   13   32 1
    27   14   15 1
    28   14   33 1
    29   14   34 1
    30   15   16 2
    31   15   17 2
    32   15   18 1
    33   18   19 1
    34   18   35 1
    35   18   36 1
    36   19   20 2
    37   19   21 1
