@<TRIPOS>MOLECULE
ZINC27090735
   44    46     0     0     0
SMALL
USER_CHARGES

@<TRIPOS>ATOM
      1 C1         -0.0165    1.3620    0.0095 C.ar      1 <0>        -0.1373
      2 C2          1.1708    2.0817    0.0021 C.ar      1 <0>        -0.0794
      3 C3          2.3870    1.4341   -0.0131 C.ar      1 <0>        -0.1123
      4 C4          2.4312    0.0446   -0.0210 C.ar      1 <0>         0.0711
      5 C5          1.2247   -0.6799   -0.0133 C.ar      1 <0>        -0.1470
      6 C6          0.0021   -0.0041    0.0020 C.ar      1 <0>        -0.0578
      7 C7          1.6095   -2.0907   -0.0246 C.2       1 <0>        -0.1051
      8 C8          2.9674   -2.1102   -0.0377 C.2       1 <0>        -0.0333
      9 O1          3.4413   -0.8467   -0.0354 O.3       1 <0>        -0.1865
     10 C9          3.7957   -3.3242   -0.0517 C.2       1 <0>         0.6011
     11 O2          3.2684   -4.4205   -0.0522 O.2       1 <0>        -0.5119
     12 N1          5.1396   -3.2229   -0.0640 N.am      1 <0>        -0.7188
     13 C10         5.9653   -4.4330   -0.0780 C.3       1 <0>         0.1181
     14 C11         7.4443   -4.0411   -0.0902 C.3       1 <0>        -0.1312
     15 C12         8.3066   -5.3049   -0.1048 C.3       1 <0>        -0.1133
     16 C13         9.7855   -4.9130   -0.1170 C.3       1 <0>         0.0555
     17 N2         10.6135   -6.1264   -0.1310 N.3       1 <0>        -0.5382
     18 C14        10.4679   -6.8780    1.1241 C.3       1 <0>         0.0137
     19 C15        11.2987   -8.1614    1.0433 C.3       1 <0>         0.0621
     20 O3         12.6613   -7.8248    0.7687 O.3       1 <0>        -0.3856
     21 C16        12.8397   -7.0927   -0.4469 C.3       1 <0>         0.0626
     22 C17        12.0246   -5.7985   -0.3812 C.3       1 <0>         0.0170
     23 H1         -0.9609    1.8855    0.0259 H         1 <0>         0.1341
     24 H2          1.1408    3.1613    0.0078 H         1 <0>         0.1394
     25 H3          3.3039    2.0047   -0.0191 H         1 <0>         0.1360
     26 H4         -0.9244   -0.5591    0.0083 H         1 <0>         0.1329
     27 H5          0.9478   -2.9443   -0.0229 H         1 <0>         0.1716
     28 H6          5.5601   -2.3488   -0.0637 H         1 <0>         0.4078
     29 H7          5.7542   -5.0272    0.8111 H         1 <0>         0.0737
     30 H8          5.7372   -5.0182   -0.9688 H         1 <0>         0.0752
     31 H9          7.6554   -3.4469   -0.9793 H         1 <0>         0.0733
     32 H10         7.6724   -3.4558    0.8006 H         1 <0>         0.0707
     33 H11         8.0955   -5.8991    0.7843 H         1 <0>         0.0676
     34 H12         8.0784   -5.8901   -0.9956 H         1 <0>         0.0775
     35 H13         9.9966   -4.3188   -1.0060 H         1 <0>         0.0776
     36 H14        10.0137   -4.3277    0.7738 H         1 <0>         0.0364
     37 H15        10.8199   -6.2684    1.9563 H         1 <0>         0.0432
     38 H16         9.4191   -7.1324    1.2765 H         1 <0>         0.0897
     39 H17        11.2396   -8.6937    1.9927 H         1 <0>         0.0989
     40 H18        10.9125   -8.7954    0.2452 H         1 <0>         0.0608
     41 H19        13.8951   -6.8520   -0.5752 H         1 <0>         0.0990
     42 H20        12.4983   -7.6956   -1.2883 H         1 <0>         0.0608
     43 H21        12.1119   -5.2648   -1.3276 H         1 <0>         0.0870
     44 H22        12.4014   -5.1716    0.4270 H         1 <0>         0.0433
@<TRIPOS>BOND
     1    1    6 ar
     2    1    2 ar
     3    1   23 1
     4    2    3 ar
     5    2   24 1
     6    3    4 ar
     7    3   25 1
     8    4    9 1
     9    4    5 ar
    10    5    6 ar
    11    5    7 1
    12    6   26 1
    13    7    8 2
    14    7   27 1
    15    8    9 1
    16    8   10 1
    17   10   11 2
    18   10   12 am
    19   12   13 1
    20   12   28 1
    21   13   14 1
    22   13   29 1
    23   13   30 1
    24   14   15 1
    25   14   31 1
    26   14   32 1
    27   15   16 1
    28   15   33 1
    29   15   34 1
    30   16   17 1
    31   16   35 1
    32   16   36 1
    33   17   22 1
    34   17   18 1
    35   18   19 1
    36   18   37 1
    37   18   38 1
    38   19   20 1
    39   19   39 1
    40   19   40 1
    41   20   21 1
    42   21   22 1
    43   21   41 1
    44   21   42 1
    45   22   43 1
    46   22   44 1
@<TRIPOS>MOLECULE
ZINC03924227
   75    79     0     0     0
SMALL
USER_CHARGES

@<TRIPOS>ATOM
      1 C1         -0.0184    1.5028    0.0103 C.3       1 <0>        -0.1188
      2 C2          0.0021   -0.0041    0.0020 C.ar      1 <0>        -0.0732
      3 C3          0.0057   -0.6868   -1.2043 C.ar      1 <0>        -0.0887
      4 C4          0.0238   -2.0661   -1.2263 C.ar      1 <0>        -0.0782
      5 C5          0.0387   -2.7812   -0.0349 C.ar      1 <0>         0.1880
      6 C6          0.0356   -2.0928    1.1881 C.ar      1 <0>        -0.0942
      7 C7          0.0228   -0.6955    1.1932 C.ar      1 <0>        -0.0944
      8 C8          0.0513   -2.8391    2.4594 C.2       1 <0>         0.5637
      9 O1          0.0669   -4.0550    2.4505 O.2       1 <0>        -0.4781
     10 N1          0.0482   -2.1738    3.6315 N.am      1 <0>        -0.5935
     11 O2          0.0632   -2.8906    4.8526 O.3       1 <0>        -0.3063
     12 N2          0.0561   -4.1697   -0.0544 N.pl3     1 <0>        -0.9323
     13 C9          1.3339   -4.8861   -0.0709 C.3       1 <0>         0.1686
     14 C10         1.8398   -5.0434    1.3399 C.ar      1 <0>        -0.0747
     15 C11         2.6500   -4.0713    1.8961 C.ar      1 <0>        -0.1124
     16 C12         3.1141   -4.2156    3.1902 C.ar      1 <0>        -0.1209
     17 C13         2.7676   -5.3319    3.9282 C.ar      1 <0>        -0.1101
     18 C14         1.9567   -6.3037    3.3723 C.ar      1 <0>        -0.1135
     19 C15         1.4891   -6.1572    2.0797 C.ar      1 <0>        -0.0746
     20 S1         -1.3675   -5.0156   -0.0589 S.o2      1 <0>         2.6965
     21 O3         -1.0777   -6.3012    0.4726 O.2       1 <0>        -0.9388
     22 O4         -2.3500   -4.1603    0.5089 O.2       1 <0>        -0.9457
     23 C16        -1.8240   -5.2582   -1.7434 C.ar      1 <0>        -0.7233
     24 C17        -2.6101   -4.3206   -2.3874 C.ar      1 <0>         0.0237
     25 C18        -2.9697   -4.5088   -3.7078 C.ar      1 <0>        -0.1688
     26 C19        -2.5410   -5.6394   -4.3879 C.ar      1 <0>         0.1874
     27 C20        -1.7520   -6.5785   -3.7397 C.ar      1 <0>        -0.2285
     28 C21        -1.3908   -6.3831   -2.4207 C.ar      1 <0>         0.0231
     29 O5         -2.8938   -5.8270   -5.6869 O.3       1 <0>        -0.3058
     30 C22        -2.4165   -7.0137   -6.3239 C.3       1 <0>         0.0402
     31 C23        -2.9119   -7.0503   -7.7710 C.3       1 <0>         0.1215
     32 N3         -2.3150   -5.9416   -8.5197 N.am      1 <0>        -0.7168
     33 C24        -2.6094   -5.7735   -9.8242 C.2       1 <0>         0.6038
     34 O6         -3.3709   -6.5425  -10.3798 O.2       1 <0>        -0.5109
     35 C25        -2.0106   -4.6612  -10.5753 C.2       1 <0>        -0.0339
     36 C26        -2.2378   -4.3920  -11.8869 C.2       1 <0>        -0.1031
     37 C27        -1.4400   -3.2073  -12.2014 C.ar      1 <0>        -0.1474
     38 C28        -1.2407   -2.4457  -13.3555 C.ar      1 <0>        -0.0573
     39 C29        -0.4059   -1.3649  -13.3177 C.ar      1 <0>        -0.1372
     40 C30         0.2451   -1.0195  -12.1411 C.ar      1 <0>        -0.0788
     41 C31         0.0624   -1.7579  -10.9921 C.ar      1 <0>        -0.1124
     42 C32        -0.7831   -2.8616  -11.0058 C.ar      1 <0>         0.0721
     43 O7         -1.1565   -3.7499  -10.0644 O.3       1 <0>        -0.1861
     44 C33         0.0271   -2.7979   -2.5436 C.3       1 <0>        -0.1327
     45 H1          1.0042    1.8801    0.0026 H         1 <0>         0.0762
     46 H2         -0.5455    1.8639   -0.8728 H         1 <0>         0.0724
     47 H3         -0.5286    1.8543    0.9071 H         1 <0>         0.0706
     48 H4         -0.0062   -0.1355   -2.1329 H         1 <0>         0.1352
     49 H5          0.0243   -0.1583    2.1301 H         1 <0>         0.1287
     50 H6          0.0357   -1.2039    3.6386 H         1 <0>         0.4022
     51 H7          0.0597   -2.3280    5.6390 H         1 <0>         0.3841
     52 H8          1.1930   -5.8700   -0.5183 H         1 <0>         0.0926
     53 H9          2.0595   -4.3213   -0.6563 H         1 <0>         0.0883
     54 H10         2.9207   -3.1991    1.3194 H         1 <0>         0.1063
     55 H11         3.7477   -3.4565    3.6245 H         1 <0>         0.1082
     56 H12         3.1308   -5.4451    4.9390 H         1 <0>         0.1104
     57 H13         1.6863   -7.1760    3.9488 H         1 <0>         0.1131
     58 H14         0.8525   -6.9146    1.6467 H         1 <0>         0.1290
     59 H15        -2.9435   -3.4406   -1.8575 H         1 <0>         0.1456
     60 H16        -3.5843   -3.7765   -4.2102 H         1 <0>         0.1429
     61 H17        -1.4171   -7.4595   -4.2670 H         1 <0>         0.1399
     62 H18        -0.7729   -7.1117   -1.9169 H         1 <0>         0.1441
     63 H19        -1.3265   -7.0188   -6.3128 H         1 <0>         0.0785
     64 H20        -2.7893   -7.8878   -5.7900 H         1 <0>         0.0908
     65 H21        -2.6232   -7.9959   -8.2301 H         1 <0>         0.1002
     66 H22        -3.9977   -6.9558   -7.7858 H         1 <0>         0.0886
     67 H23        -1.7078   -5.3285   -8.0767 H         1 <0>         0.4107
     68 H24        -2.8777   -4.9416  -12.5613 H         1 <0>         0.1718
     69 H25        -1.7441   -2.7104  -14.2736 H         1 <0>         0.1329
     70 H26        -0.2510   -0.7753  -14.2093 H         1 <0>         0.1342
     71 H27         0.9024   -0.1627  -12.1262 H         1 <0>         0.1395
     72 H28         0.5742   -1.4796  -10.0827 H         1 <0>         0.1359
     73 H29         1.0554   -2.9608   -2.8663 H         1 <0>         0.0792
     74 H30        -0.4735   -3.7591   -2.4265 H         1 <0>         0.0753
     75 H31        -0.4984   -2.2033   -3.2909 H         1 <0>         0.0748
@<TRIPOS>BOND
     1    1    2 1
     2    1   45 1
     3    1   46 1
     4    1   47 1
     5    2    7 ar
     6    2    3 ar
     7    3    4 ar
     8    3   48 1
     9    4    5 ar
    10    4   44 1
    11    5    6 ar
    12    5   12 1
    13    6    7 ar
    14    6    8 1
    15    7   49 1
    16    8    9 2
    17    8   10 am
    18   10   11 1
    19   10   50 1
    20   11   51 1
    21   12   13 1
    22   12   20 1
    23   13   14 1
    24   13   52 1
    25   13   53 1
    26   14   19 ar
    27   14   15 ar
    28   15   16 ar
    29   15   54 1
    30   16   17 ar
    31   16   55 1
    32   17   18 ar
    33   17   56 1
    34   18   19 ar
    35   18   57 1
    36   19   58 1
    37   20   21 2
    38   20   22 2
    39   20   23 1
    40   23   28 ar
    41   23   24 ar
    42   24   25 ar
    43   24   59 1
    44   25   26 ar
    45   25   60 1
    46   26   27 ar
    47   26   29 1
    48   27   28 ar
    49   27   61 1
    50   28   62 1
    51   29   30 1
    52   30   31 1
    53   30   63 1
    54   30   64 1
    55   31   32 1
    56   31   65 1
    57   31   66 1
    58   32   33 am
    59   32   67 1
    60   33   34 2
    61   33   35 1
    62   35   43 1
    63   35   36 2
    64   36   37 1
    65   36   68 1
    66   37   42 ar
    67   37   38 ar
    68   38   39 ar
    69   38   69 1
    70   39   40 ar
    71   39   70 1
    72   40   41 ar
    73   40   71 1
    74   41   42 ar
    75   41   72 1
    76   42   43 1
    77   44   73 1
    78   44   74 1
    79   44   75 1
