@<TRIPOS>MOLECULE
ZINC03924338
   84    86     0     0     0
SMALL
USER_CHARGES
N-[2,2-dimethyl-1-(1-phenylethylcarbamoyl)propyl]-2-(hydroxycarbamoylmethyl)-5-(3-methyl-4-phenyl-phenyl)-pentanamide
@<TRIPOS>ATOM
      1 C1         -7.5706    2.3330   -5.1220 C.3       1 <0>        -0.1160
      2 C2         -6.6629    3.0383   -4.1475 C.ar      1 <0>        -0.0684
      3 C3         -6.3363    2.4383   -2.9480 C.ar      1 <0>        -0.1175
      4 C4         -5.5042    3.0850   -2.0524 C.ar      1 <0>        -0.0693
      5 C5         -4.9984    4.3376   -2.3508 C.ar      1 <0>        -0.1193
      6 C6         -5.3137    4.9442   -3.5495 C.ar      1 <0>        -0.0997
      7 C7         -6.1521    4.2974   -4.4554 C.ar      1 <0>        -0.0596
      8 C8         -6.5000    4.9476   -5.7432 C.ar      1 <0>        -0.0408
      9 C9         -5.4924    5.3660   -6.6099 C.ar      1 <0>        -0.1081
     10 C10        -5.8218    5.9658   -7.8085 C.ar      1 <0>        -0.1190
     11 C11        -7.1490    6.1615   -8.1452 C.ar      1 <0>        -0.1204
     12 C12        -8.1532    5.7528   -7.2862 C.ar      1 <0>        -0.1195
     13 C13        -7.8353    5.1471   -6.0874 C.ar      1 <0>        -0.1058
     14 C14        -5.1521    2.4253   -0.7440 C.3       1 <0>        -0.0781
     15 C15        -3.8860    1.5847   -0.9211 C.3       1 <0>        -0.1134
     16 C16        -3.5285    0.9150    0.4072 C.3       1 <0>        -0.1019
     17 C17        -2.1991    0.1717    0.2621 C.3       1 <0>        -0.0904
     18 H1         -2.2512   -0.5024   -0.5929 H         1 <0>         0.1120
     19 C18        -1.9251   -0.6360    1.5324 C.3       1 <0>        -0.1235
     20 C19        -2.9523   -1.7309    1.6629 C.2       1 <0>         0.5262
     21 O1         -3.7422   -1.9315    0.7647 O.2       1 <0>        -0.5091
     22 N1         -2.9932   -2.4872    2.7777 N.am      1 <0>        -0.5975
     23 O2         -3.9584   -3.5160    2.9003 O.3       1 <0>        -0.3169
     24 C20        -1.0876    1.1670    0.0501 C.2       1 <0>         0.5234
     25 O3         -1.3345    2.3540    0.0183 O.2       1 <0>        -0.5164
     26 N2          0.1807    0.7381   -0.1040 N.am      1 <0>        -0.7143
     27 C21         1.2604    1.7054   -0.3161 C.3       1 <0>         0.1381
     28 H2          0.8875    2.5425   -0.9063 H         1 <0>         0.1088
     29 C22         2.3949    1.0388   -1.0507 C.2       1 <0>         0.5198
     30 O4          2.5547   -0.1600   -0.9600 O.2       1 <0>        -0.5300
     31 N3          3.2320    1.7748   -1.8083 N.am      1 <0>        -0.7198
     32 C23         4.2665    1.1154   -2.6090 C.3       1 <0>         0.1851
     33 H3          3.8871    0.1631   -2.9796 H         1 <0>         0.0971
     34 C24         5.5029    0.8692   -1.7421 C.3       1 <0>        -0.1582
     35 C25         4.6373    1.9961   -3.7743 C.ar      1 <0>        -0.0954
     36 C26         4.7396    3.3639   -3.6019 C.ar      1 <0>        -0.1154
     37 C27         5.0840    4.1713   -4.6697 C.ar      1 <0>        -0.1145
     38 C28         5.3172    3.6119   -5.9122 C.ar      1 <0>        -0.1169
     39 C29         5.2098    2.2447   -6.0858 C.ar      1 <0>        -0.1141
     40 C30         4.8696    1.4369   -5.0169 C.ar      1 <0>        -0.1069
     41 C31         1.7595    2.2173    1.0366 C.3       1 <0>        -0.0702
     42 C32         2.3545    1.0549    1.8338 C.3       1 <0>        -0.1434
     43 C33         2.8326    3.2848    0.8134 C.3       1 <0>        -0.1531
     44 C34         0.5905    2.8242    1.8151 C.3       1 <0>        -0.1316
     45 H4         -8.5953    2.6748   -4.9768 H         1 <0>         0.0703
     46 H5         -7.2539    2.5565   -6.1407 H         1 <0>         0.0683
     47 H6         -7.5190    1.2573   -4.9533 H         1 <0>         0.0654
     48 H7         -6.7317    1.4623   -2.7083 H         1 <0>         0.1226
     49 H8         -4.3526    4.8400   -1.6459 H         1 <0>         0.1231
     50 H9         -4.9150    5.9203   -3.7832 H         1 <0>         0.1213
     51 H10        -4.4557    5.2174   -6.3461 H         1 <0>         0.1219
     52 H11        -5.0416    6.2868   -8.4829 H         1 <0>         0.1230
     53 H12        -7.4022    6.6347   -9.0824 H         1 <0>         0.1218
     54 H13        -9.1879    5.9083   -7.5538 H         1 <0>         0.1232
     55 H14        -8.6202    4.8281   -5.4176 H         1 <0>         0.1224
     56 H15        -5.9738    1.7825   -0.4285 H         1 <0>         0.0694
     57 H16        -4.9776    3.1899    0.0130 H         1 <0>         0.0723
     58 H17        -3.0643    2.2275   -1.2367 H         1 <0>         0.0791
     59 H18        -4.0605    0.8201   -1.6781 H         1 <0>         0.0585
     60 H19        -4.3121    0.2081    0.6802 H         1 <0>         0.0809
     61 H20        -3.4374    1.6742    1.1840 H         1 <0>         0.0701
     62 H21        -0.9297   -1.0765    1.4752 H         1 <0>         0.1048
     63 H22        -1.9822    0.0212    2.4001 H         1 <0>         0.1057
     64 H23        -2.3614   -2.3267    3.4961 H         1 <0>         0.4084
     65 H24        -3.9098   -4.0036    3.7340 H         1 <0>         0.3888
     66 H25         0.3782   -0.2112   -0.0785 H         1 <0>         0.4089
     67 H26         3.1495    2.7412   -1.8234 H         1 <0>         0.4020
     68 H27         5.8822    1.8215   -1.3715 H         1 <0>         0.0597
     69 H28         5.2347    0.2322   -0.8993 H         1 <0>         0.0670
     70 H29         6.2725    0.3786   -2.3379 H         1 <0>         0.0690
     71 H30         4.5537    3.8013   -2.6321 H         1 <0>         0.1194
     72 H31         5.1682    5.2394   -4.5340 H         1 <0>         0.1248
     73 H32         5.5837    4.2430   -6.7471 H         1 <0>         0.1240
     74 H33         5.3920    1.8077   -7.0565 H         1 <0>         0.1254
     75 H34         4.7857    0.3687   -5.1526 H         1 <0>         0.1247
     76 H35         3.1873    0.6225    1.2792 H         1 <0>         0.0586
     77 H36         2.7101    1.4196    2.7975 H         1 <0>         0.0589
     78 H37         1.5900    0.2944    1.9928 H         1 <0>         0.0573
     79 H38         2.4380    4.0667    0.1647 H         1 <0>         0.0605
     80 H39         3.1190    3.7180    1.7718 H         1 <0>         0.0677
     81 H40         3.7055    2.8301    0.3449 H         1 <0>         0.0592
     82 H41        -0.1740    2.0637    1.9740 H         1 <0>         0.0543
     83 H42         0.9461    3.1889    2.7787 H         1 <0>         0.0525
     84 H43         0.1667    3.6523    1.2471 H         1 <0>         0.0688
@<TRIPOS>BOND
     1    1    2 1
     2    1   45 1
     3    1   46 1
     4    1   47 1
     5    2    7 ar
     6    2    3 ar
     7    3    4 ar
     8    3   48 1
     9    4    5 ar
    10    4   14 1
    11    5    6 ar
    12    5   49 1
    13    6    7 ar
    14    6   50 1
    15    7    8 1
    16    8   13 ar
    17    8    9 ar
    18    9   10 ar
    19    9   51 1
    20   10   11 ar
    21   10   52 1
    22   11   12 ar
    23   11   53 1
    24   12   13 ar
    25   12   54 1
    26   13   55 1
    27   14   15 1
    28   14   56 1
    29   14   57 1
    30   15   16 1
    31   15   58 1
    32   15   59 1
    33   16   17 1
    34   16   60 1
    35   16   61 1
    36   17   18 1
    37   17   19 1
    38   17   24 1
    39   19   20 1
    40   19   62 1
    41   19   63 1
    42   20   21 2
    43   20   22 am
    44   22   23 1
    45   22   64 1
    46   23   65 1
    47   24   25 2
    48   24   26 am
    49   26   27 1
    50   26   66 1
    51   27   28 1
    52   27   29 1
    53   27   41 1
    54   29   30 2
    55   29   31 am
    56   31   32 1
    57   31   67 1
    58   32   33 1
    59   32   34 1
    60   32   35 1
    61   34   68 1
    62   34   69 1
    63   34   70 1
    64   35   40 ar
    65   35   36 ar
    66   36   37 ar
    67   36   71 1
    68   37   38 ar
    69   37   72 1
    70   38   39 ar
    71   38   73 1
    72   39   40 ar
    73   39   74 1
    74   40   75 1
    75   41   42 1
    76   41   43 1
    77   41   44 1
    78   42   76 1
    79   42   77 1
    80   42   78 1
    81   43   79 1
    82   43   80 1
    83   43   81 1
    84   44   82 1
    85   44   83 1
    86   44   84 1
@<TRIPOS>MOLECULE
ZINC13831240
   54    55     0     0     0
SMALL
USER_CHARGES

@<TRIPOS>ATOM
      1 C1          1.6084    1.4471   -0.3501 C.3       1 <0>        -0.1491
      2 C2          1.3061    0.0344    0.1538 C.3       1 <0>        -0.0899
      3 C3          1.6377   -0.0572    1.6446 C.3       1 <0>        -0.1615
      4 C4         -0.1769   -0.2764   -0.0588 C.3       1 <0>         0.1448
      5 H1         -0.7815    0.4342    0.5048 H         1 <0>         0.1278
      6 C5         -0.4704   -1.6753    0.4185 C.2       1 <0>         0.5128
      7 O1         -0.3600   -2.6119   -0.3440 O.2       1 <0>        -0.4950
      8 N1         -0.8555   -1.8856    1.6929 N.am      1 <0>        -0.5916
      9 O2         -1.0372   -3.2068    2.1687 O.3       1 <0>        -0.3150
     10 N2         -0.4988   -0.1691   -1.4840 N.pl3     1 <0>        -0.8509
     11 O3          0.2740   -0.8727   -2.4394 O.3       1 <0>        -0.0949
     12 C6         -0.2971   -2.1180   -2.8457 C.3       1 <0>         0.0570
     13 C7         -0.6610   -2.0519   -4.3303 C.3       1 <0>        -0.1792
     14 C8          0.7159   -3.2419   -2.6184 C.3       1 <0>        -0.1501
     15 S1         -1.7666    0.7751   -1.9776 S.o2      1 <0>         2.6873
     16 O4         -2.1981    0.2545   -3.2275 O.2       1 <0>        -0.9296
     17 O5         -2.6385    0.8998   -0.8625 O.2       1 <0>        -0.9419
     18 C9         -1.1243    2.3844   -2.2971 C.ar      1 <0>        -0.6741
     19 C10        -1.0799    3.3227   -1.2818 C.ar      1 <0>        -0.0145
     20 C11        -0.5777    4.5847   -1.5264 C.ar      1 <0>        -0.1336
     21 C12        -0.1150    4.9129   -2.7991 C.ar      1 <0>         0.0227
     22 C13        -0.1621    3.9639   -3.8182 C.ar      1 <0>        -0.1334
     23 C14        -0.6610    2.7030   -3.5609 C.ar      1 <0>        -0.0031
     24 C15         0.4256    6.2684   -3.0683 C.ar      1 <0>        -0.0668
     25 C16         0.4776    7.2158   -2.0478 C.ar      1 <0>        -0.1006
     26 C17         0.9817    8.4749   -2.3037 C.ar      1 <0>        -0.1196
     27 C18         1.4345    8.7971   -3.5703 C.ar      1 <0>        -0.1077
     28 C19         1.3848    7.8607   -4.5871 C.ar      1 <0>        -0.1191
     29 C20         0.8883    6.5966   -4.3409 C.ar      1 <0>        -0.1003
     30 H2          2.6649    1.6685   -0.1986 H         1 <0>         0.0659
     31 H3          1.3722    1.5124   -1.4121 H         1 <0>         0.0667
     32 H4          1.0036    2.1668    0.2016 H         1 <0>         0.0556
     33 H5          1.9109   -0.6853   -0.3979 H         1 <0>         0.0953
     34 H6          1.0694    0.6961    2.1902 H         1 <0>         0.0619
     35 H7          1.3760   -1.0484    2.0148 H         1 <0>         0.0608
     36 H8          2.7039    0.1155    1.7909 H         1 <0>         0.0710
     37 H9         -1.0082   -1.1319    2.2840 H         1 <0>         0.4083
     38 H10        -1.3137   -3.2570    3.0940 H         1 <0>         0.3892
     39 H11        -1.1951   -2.3143   -2.2598 H         1 <0>         0.0884
     40 H12        -0.9718   -3.0391   -4.6724 H         1 <0>         0.0678
     41 H13        -1.4776   -1.3442   -4.4730 H         1 <0>         0.0852
     42 H14         0.2070   -1.7255   -4.9030 H         1 <0>         0.0601
     43 H15         0.9752   -3.2889   -1.5607 H         1 <0>         0.0819
     44 H16         0.2803   -4.1918   -2.9283 H         1 <0>         0.0627
     45 H17         1.6139   -3.0456   -3.2042 H         1 <0>         0.0511
     46 H18        -1.4392    3.0673   -0.2958 H         1 <0>         0.1407
     47 H19        -0.5439    5.3167   -0.7330 H         1 <0>         0.1371
     48 H20         0.1950    4.2131   -4.8065 H         1 <0>         0.1373
     49 H21        -0.6936    1.9651   -4.3488 H         1 <0>         0.1448
     50 H22         0.1237    6.9655   -1.0587 H         1 <0>         0.1279
     51 H23         1.0225    9.2100   -1.5135 H         1 <0>         0.1276
     52 H24         1.8279    9.7837   -3.7662 H         1 <0>         0.1261
     53 H25         1.7393    8.1177   -5.5744 H         1 <0>         0.1277
     54 H26         0.8541    5.8648   -5.1344 H         1 <0>         0.1282
@<TRIPOS>BOND
     1    1    2 1
     2    1   30 1
     3    1   31 1
     4    1   32 1
     5    2    3 1
     6    2    4 1
     7    2   33 1
     8    3   34 1
     9    3   35 1
    10    3   36 1
    11    4    5 1
    12    4    6 1
    13    4   10 1
    14    6    7 2
    15    6    8 am
    16    8    9 1
    17    8   37 1
    18    9   38 1
    19   10   11 1
    20   10   15 1
    21   11   12 1
    22   12   13 1
    23   12   14 1
    24   12   39 1
    25   13   40 1
    26   13   41 1
    27   13   42 1
    28   14   43 1
    29   14   44 1
    30   14   45 1
    31   15   16 2
    32   15   17 2
    33   15   18 1
    34   18   23 ar
    35   18   19 ar
    36   19   20 ar
    37   19   46 1
    38   20   21 ar
    39   20   47 1
    40   21   22 ar
    41   21   24 1
    42   22   23 ar
    43   22   48 1
    44   23   49 1
    45   24   29 ar
    46   24   25 ar
    47   25   26 ar
    48   25   50 1
    49   26   27 ar
    50   26   51 1
    51   27   28 ar
    52   27   52 1
    53   28   29 ar
    54   28   53 1
    55   29   54 1
@<TRIPOS>MOLECULE
ZINC03818628
   45    46     0     0     0
SMALL
USER_CHARGES

@<TRIPOS>ATOM
      1 C1          2.6021   -2.0659    1.0178 C.3       1 <0>        -0.1558
      2 C2          2.1237   -0.7034    1.5234 C.3       1 <0>         0.0227
      3 C3          3.0258    0.3957    0.9583 C.3       1 <0>        -0.1646
      4 O1          0.7783   -0.4821    1.0958 O.3       1 <0>        -0.0944
      5 N1         -0.1653   -0.4599    2.1514 N.pl3     1 <0>        -0.8427
      6 C4         -0.9067   -1.6753    2.4967 C.3       1 <0>         0.0952
      7 C5         -0.1403   -2.4533    3.5352 C.2       1 <0>         0.4931
      8 O2          0.9208   -2.0339    3.9462 O.2       1 <0>        -0.5008
      9 N2         -0.6340   -3.6152    4.0070 N.am      1 <0>        -0.5914
     10 O3          0.0862   -4.3463    4.9827 O.3       1 <0>        -0.3153
     11 S1         -0.4306    0.9399    2.9954 S.o2      1 <0>         2.6901
     12 O4         -0.1309    2.0107    2.1107 O.2       1 <0>        -0.9261
     13 O5         -1.6983    0.8019    3.6225 O.2       1 <0>        -0.9379
     14 C6          0.7659    1.0040    4.2873 C.ar      1 <0>        -0.6759
     15 C7          0.4812    0.4421    5.5187 C.ar      1 <0>         0.0080
     16 C8          1.4148    0.4895    6.5342 C.ar      1 <0>        -0.1282
     17 C9          2.6459    1.1048    6.3170 C.ar      1 <0>         0.0214
     18 C10         2.9274    1.6693    5.0746 C.ar      1 <0>        -0.1336
     19 C11         1.9886    1.6112    4.0645 C.ar      1 <0>        -0.0153
     20 C12         3.6534    1.1593    7.4051 C.ar      1 <0>        -0.0633
     21 C13         3.3739    0.5902    8.6459 C.ar      1 <0>        -0.1010
     22 C14         4.3149    0.6433    9.6542 C.ar      1 <0>        -0.1194
     23 C15         5.5332    1.2605    9.4350 C.ar      1 <0>        -0.1096
     24 C16         5.8157    1.8275    8.2054 C.ar      1 <0>        -0.1194
     25 C17         4.8845    1.7747    7.1880 C.ar      1 <0>        -0.1016
     26 H1          2.4780   -2.1160   -0.0640 H         1 <0>         0.0640
     27 H2          3.6544   -2.1978    1.2693 H         1 <0>         0.0698
     28 H3          2.0146   -2.8546    1.4878 H         1 <0>         0.0564
     29 H4          2.1666   -0.6845    2.6124 H         1 <0>         0.1051
     30 H5          2.9829    0.3767   -0.1306 H         1 <0>         0.0703
     31 H6          2.6850    1.3663    1.3186 H         1 <0>         0.0666
     32 H7          4.0520    0.2269    1.2845 H         1 <0>         0.0761
     33 H8         -1.8845   -1.4037    2.8946 H         1 <0>         0.1437
     34 H9         -1.0350   -2.2885    1.6047 H         1 <0>         0.1359
     35 H10        -1.4827   -3.9507    3.6782 H         1 <0>         0.4108
     36 H11        -0.3469   -5.1654    5.2594 H         1 <0>         0.3896
     37 H12        -0.4735   -0.0343    5.6860 H         1 <0>         0.1339
     38 H13         1.1913    0.0507    7.4954 H         1 <0>         0.1333
     39 H14         3.8799    2.1478    4.9010 H         1 <0>         0.1354
     40 H15         2.2075    2.0442    3.0996 H         1 <0>         0.1403
     41 H16         2.4227    0.1087    8.8184 H         1 <0>         0.1271
     42 H17         4.0993    0.2025   10.6164 H         1 <0>         0.1270
     43 H18         6.2664    1.3001   10.2269 H         1 <0>         0.1256
     44 H19         6.7684    2.3084    8.0397 H         1 <0>         0.1272
     45 H20         5.1078    2.2138    6.2269 H         1 <0>         0.1276
@<TRIPOS>BOND
     1    1    2 1
     2    1   26 1
     3    1   27 1
     4    1   28 1
     5    2    3 1
     6    2    4 1
     7    2   29 1
     8    3   30 1
     9    3   31 1
    10    3   32 1
    11    4    5 1
    12    5    6 1
    13    5   11 1
    14    6    7 1
    15    6   33 1
    16    6   34 1
    17    7    8 2
    18    7    9 am
    19    9   10 1
    20    9   35 1
    21   10   36 1
    22   11   12 2
    23   11   13 2
    24   11   14 1
    25   14   19 ar
    26   14   15 ar
    27   15   16 ar
    28   15   37 1
    29   16   17 ar
    30   16   38 1
    31   17   18 ar
    32   17   20 1
    33   18   19 ar
    34   18   39 1
    35   19   40 1
    36   20   25 ar
    37   20   21 ar
    38   21   22 ar
    39   21   41 1
    40   22   23 ar
    41   22   42 1
    42   23   24 ar
    43   23   43 1
    44   24   25 ar
    45   24   44 1
    46   25   45 1
@<TRIPOS>MOLECULE
ZINC03780014
   56    57     0     0     0
SMALL
USER_CHARGES

@<TRIPOS>ATOM
      1 C1         -4.9014   -2.7959   -0.2874 C.3       1 <0>        -0.1475
      2 C2         -3.5376   -2.8042   -0.9809 C.3       1 <0>        -0.0930
      3 C3         -3.1945   -1.3884   -1.4484 C.3       1 <0>        -0.1554
      4 C4         -2.4693   -3.2902    0.0006 C.3       1 <0>        -0.1061
      5 C5         -1.1289   -3.4171   -0.7262 C.3       1 <0>        -0.1051
      6 H1         -0.8997   -2.4792   -1.2321 H         1 <0>         0.1276
      7 C6         -1.2122   -4.5451   -1.7565 C.3       1 <0>        -0.1172
      8 C7         -1.5195   -3.9649   -3.1129 C.2       1 <0>         0.5263
      9 O1         -1.2277   -2.8140   -3.3604 O.2       1 <0>        -0.5111
     10 N1         -2.1186   -4.7249   -4.0510 N.am      1 <0>        -0.5983
     11 O2         -2.4073   -4.1798   -5.3255 O.3       1 <0>        -0.3184
     12 C8         -0.0436   -3.7277    0.2721 C.2       1 <0>         0.5307
     13 O3          0.4797   -4.8218    0.2782 O.2       1 <0>        -0.5430
     14 N2          0.3456   -2.7896    1.1581 N.am      1 <0>        -0.6970
     15 C9          1.4614   -3.0597    2.0683 C.3       1 <0>         0.1359
     16 H2          2.1702   -3.7318    1.5846 H         1 <0>         0.1120
     17 C10         2.1624   -1.7460    2.4196 C.3       1 <0>        -0.0434
     18 C11         2.7912   -1.1648    1.1795 C.2       1 <0>        -0.1770
     19 C12         4.0613   -1.3280    0.7767 C.2       1 <0>         0.0630
     20 N3          4.2699   -0.6520   -0.3945 N.pl3     1 <0>        -0.5937
     21 H3          5.1101   -0.6216   -0.8783 H         1 <0>         0.4168
     22 C13         3.1096   -0.0211   -0.7839 C.ar      1 <0>         0.0948
     23 C14         2.1307   -0.3199    0.1817 C.ar      1 <0>        -0.0926
     24 C15         0.8375    0.1869    0.0425 C.ar      1 <0>        -0.0773
     25 C16         0.5277    0.9690   -1.0346 C.ar      1 <0>        -0.1349
     26 C17         1.4886    1.2632   -1.9919 C.ar      1 <0>        -0.0949
     27 C18         2.7736    0.7811   -1.8692 C.ar      1 <0>        -0.1271
     28 C19         0.9385   -3.7024    3.3271 C.2       1 <0>         0.5025
     29 O4         -0.2172   -3.5389    3.6565 O.2       1 <0>        -0.5287
     30 N4          1.7552   -4.4590    4.0868 N.am      1 <0>        -0.7323
     31 C20         1.2469   -5.0838    5.3105 C.3       1 <0>         0.0869
     32 H4         -5.6625   -2.4497   -0.9866 H         1 <0>         0.0552
     33 H5         -5.1458   -3.8046    0.0457 H         1 <0>         0.0533
     34 H6         -4.8674   -2.1275    0.5729 H         1 <0>         0.0568
     35 H7         -3.5716   -3.4727   -1.8412 H         1 <0>         0.0647
     36 H8         -3.2493   -0.7032   -0.6024 H         1 <0>         0.0525
     37 H9         -2.1857   -1.3764   -1.8609 H         1 <0>         0.0736
     38 H10        -3.9042   -1.0768   -2.2148 H         1 <0>         0.0517
     39 H11        -2.3735   -2.5744    0.8171 H         1 <0>         0.0747
     40 H12        -2.7588   -4.2617    0.4012 H         1 <0>         0.0715
     41 H13        -0.2596   -5.0735   -1.7946 H         1 <0>         0.1205
     42 H14        -2.0020   -5.2401   -1.4712 H         1 <0>         0.0973
     43 H15        -2.3519   -5.6454   -3.8530 H         1 <0>         0.4079
     44 H16        -2.8369   -4.7999   -5.9305 H         1 <0>         0.3870
     45 H17        -0.1130   -1.9356    1.1932 H         1 <0>         0.4054
     46 H18         1.4341   -1.0418    2.8219 H         1 <0>         0.0844
     47 H19         2.9354   -1.9346    3.1647 H         1 <0>         0.0914
     48 H20         4.8080   -1.9070    1.2999 H         1 <0>         0.1699
     49 H21         0.0845   -0.0385    0.7831 H         1 <0>         0.1149
     50 H22        -0.4730    1.3609   -1.1419 H         1 <0>         0.1230
     51 H23         1.2283    1.8821   -2.8378 H         1 <0>         0.1250
     52 H24         3.5139    1.0147   -2.6201 H         1 <0>         0.1186
     53 H25         2.6795   -4.5898    3.8233 H         1 <0>         0.4024
     54 H26         2.0457   -5.6518    5.7873 H         1 <0>         0.0763
     55 H27         0.8932   -4.3111    5.9931 H         1 <0>         0.0605
     56 H28         0.4236   -5.7533    5.0616 H         1 <0>         0.0594
@<TRIPOS>BOND
     1    1    2 1
     2    1   32 1
     3    1   33 1
     4    1   34 1
     5    2    3 1
     6    2    4 1
     7    2   35 1
     8    3   36 1
     9    3   37 1
    10    3   38 1
    11    4    5 1
    12    4   39 1
    13    4   40 1
    14    5    6 1
    15    5    7 1
    16    5   12 1
    17    7    8 1
    18    7   41 1
    19    7   42 1
    20    8    9 2
    21    8   10 am
    22   10   11 1
    23   10   43 1
    24   11   44 1
    25   12   13 2
    26   12   14 am
    27   14   15 1
    28   14   45 1
    29   15   16 1
    30   15   17 1
    31   15   28 1
    32   17   18 1
    33   17   46 1
    34   17   47 1
    35   18   23 1
    36   18   19 2
    37   19   20 1
    38   19   48 1
    39   20   21 1
    40   20   22 1
    41   22   27 ar
    42   22   23 ar
    43   23   24 ar
    44   24   25 ar
    45   24   49 1
    46   25   26 ar
    47   25   50 1
    48   26   27 ar
    49   26   51 1
    50   27   52 1
    51   28   29 2
    52   28   30 am
    53   30   31 1
    54   30   53 1
    55   31   54 1
    56   31   55 1
    57   31   56 1
@<TRIPOS>MOLECULE
ZINC34801833
   79    81     0     0     0
SMALL
USER_CHARGES

@<TRIPOS>ATOM
      1 C1          0.8360   -1.2830   -2.3872 C.3       1 <0>        -0.1477
      2 C2          0.3647   -1.0920   -0.9442 C.3       1 <0>        -0.1318
      3 C3          1.1800   -1.9962   -0.0176 C.3       1 <0>        -0.1149
      4 C4          0.7087   -1.8053    1.4255 C.3       1 <0>        -0.0735
      5 H1         -0.3657   -1.9797    1.4829 H         1 <0>         0.1081
      6 C5          1.4359   -2.7976    2.3350 C.3       1 <0>        -0.1038
      7 H2          1.0332   -2.7269    3.3454 H         1 <0>         0.0969
      8 C6          1.2344   -4.2183    1.8040 C.3       1 <0>        -0.1058
      9 C7          1.8505   -5.2206    2.7822 C.3       1 <0>        -0.1134
     10 C8          1.1005   -5.1599    4.1144 C.3       1 <0>        -0.1555
     11 C9          1.7441   -6.6318    2.2008 C.3       1 <0>        -0.1422
     12 C10         2.9075   -2.4737    2.3570 C.2       1 <0>         0.5184
     13 O1          3.3836   -1.7575    1.5017 O.2       1 <0>        -0.5075
     14 N1          3.6946   -2.9797    3.3270 N.am      1 <0>        -0.7104
     15 C11         5.1039   -2.5875    3.4058 C.3       1 <0>         0.1312
     16 H3          5.2115   -1.5455    3.1046 H         1 <0>         0.1113
     17 C12         5.6069   -2.7627    4.8408 C.3       1 <0>        -0.1212
     18 C13         6.7891   -1.8497    5.1112 C.3       1 <0>        -0.1192
     19 C14         8.0328   -2.2063    4.3177 C.3       1 <0>        -0.1427
     20 C15         7.8143   -1.9637    2.8231 C.3       1 <0>         0.1049
     21 N2          7.2015   -3.1661    2.2354 N.am      1 <0>        -0.5999
     22 C16         5.9292   -3.4690    2.4921 C.2       1 <0>         0.5106
     23 O2          5.4323   -4.4578    1.9957 O.2       1 <0>        -0.5284
     24 C17         7.9937   -4.0322    1.3587 C.3       1 <0>         0.1526
     25 C18         8.6793   -5.0904    2.1840 C.ar      1 <0>        -0.0914
     26 C19         9.9366   -4.8511    2.7079 C.ar      1 <0>        -0.1040
     27 C20        10.5681   -5.8196    3.4658 C.ar      1 <0>        -0.1068
     28 C21         9.9444   -7.0297    3.7014 C.ar      1 <0>        -0.1190
     29 C22         8.6831   -7.2723    3.1770 C.ar      1 <0>         0.0824
     30 C23         8.0490   -6.2962    2.4213 C.ar      1 <0>        -0.1068
     31 O3          8.0675   -8.4617    3.4072 O.3       1 <0>        -0.2594
     32 C24         8.0287   -9.3665    2.3942 C.ar      1 <0>         0.1223
     33 C25         8.7067   -9.1138    1.2103 C.ar      1 <0>        -0.1928
     34 C26         8.6656  -10.0353    0.1820 C.ar      1 <0>        -0.0819
     35 C27         7.9493  -11.2085    0.3316 C.ar      1 <0>        -0.1524
     36 C28         7.2724  -11.4626    1.5102 C.ar      1 <0>        -0.0825
     37 C29         7.3157  -10.5474    2.5441 C.ar      1 <0>        -0.1462
     38 C30         1.0138   -0.3985    1.8715 C.2       1 <0>         0.5295
     39 O4          1.5228    0.3857    1.0990 O.2       1 <0>        -0.4899
     40 N3          0.7208   -0.0118    3.1290 N.am      1 <0>        -0.6048
     41 O5          0.9087    1.3371    3.5168 O.3       1 <0>        -0.3187
     42 H4          0.6968   -2.3236   -2.6802 H         1 <0>         0.0492
     43 H5          0.2551   -0.6388   -3.0474 H         1 <0>         0.0512
     44 H6          1.8917   -1.0226   -2.4621 H         1 <0>         0.0543
     45 H7          0.5039   -0.0514   -0.6512 H         1 <0>         0.0801
     46 H8         -0.6911   -1.3525   -0.8693 H         1 <0>         0.0508
     47 H9          1.0408   -3.0368   -0.3106 H         1 <0>         0.0699
     48 H10         2.2358   -1.7358   -0.0925 H         1 <0>         0.1047
     49 H11         0.1681   -4.4198    1.7008 H         1 <0>         0.0815
     50 H12         1.7181   -4.3149    0.8320 H         1 <0>         0.0800
     51 H13         2.8994   -4.9724    2.9441 H         1 <0>         0.0857
     52 H14         1.1763   -4.1545    4.5285 H         1 <0>         0.0506
     53 H15         0.0515   -5.4081    3.9524 H         1 <0>         0.0607
     54 H16         1.5394   -5.8740    4.8112 H         1 <0>         0.0587
     55 H17         2.2784   -6.6750    1.2517 H         1 <0>         0.0559
     56 H18         2.1830   -7.3459    2.8977 H         1 <0>         0.0552
     57 H19         0.6952   -6.8800    2.0389 H         1 <0>         0.0540
     58 H20         3.3279   -3.6035    3.9729 H         1 <0>         0.4040
     59 H21         4.8018   -2.5224    5.5352 H         1 <0>         0.0833
     60 H22         5.9118   -3.7984    4.9903 H         1 <0>         0.0732
     61 H23         6.5019   -0.8270    4.8670 H         1 <0>         0.0682
     62 H24         7.0289   -1.8964    6.1735 H         1 <0>         0.0739
     63 H25         8.8657   -1.5934    4.6623 H         1 <0>         0.0807
     64 H26         8.2717   -3.2575    4.4790 H         1 <0>         0.0743
     65 H27         7.1509   -1.1101    2.6843 H         1 <0>         0.0800
     66 H28         8.7718   -1.7681    2.3405 H         1 <0>         0.0894
     67 H29         7.3381   -4.5082    0.6295 H         1 <0>         0.0949
     68 H30         8.7428   -3.4351    0.8386 H         1 <0>         0.0903
     69 H31        10.4261   -3.9061    2.5243 H         1 <0>         0.1270
     70 H32        11.5499   -5.6302    3.8738 H         1 <0>         0.1321
     71 H33        10.4384   -7.7862    4.2930 H         1 <0>         0.1312
     72 H34         7.0653   -6.4810    2.0154 H         1 <0>         0.1354
     73 H35         9.2658   -8.1973    1.0926 H         1 <0>         0.1266
     74 H36         9.1932   -9.8390   -0.7397 H         1 <0>         0.1258
     75 H37         7.9182  -11.9274   -0.4737 H         1 <0>         0.1255
     76 H38         6.7133  -12.3795    1.6244 H         1 <0>         0.1313
     77 H39         6.7908  -10.7485    3.4662 H         1 <0>         0.1315
     78 H40         0.3812   -0.6574    3.7683 H         1 <0>         0.4013
     79 H41         0.6715    1.5186    4.4365 H         1 <0>         0.3841
@<TRIPOS>BOND
     1    1    2 1
     2    1   42 1
     3    1   43 1
     4    1   44 1
     5    2    3 1
     6    2   45 1
     7    2   46 1
     8    3    4 1
     9    3   47 1
    10    3   48 1
    11    4    5 1
    12    4    6 1
    13    4   38 1
    14    6    7 1
    15    6    8 1
    16    6   12 1
    17    8    9 1
    18    8   49 1
    19    8   50 1
    20    9   10 1
    21    9   11 1
    22    9   51 1
    23   10   52 1
    24   10   53 1
    25   10   54 1
    26   11   55 1
    27   11   56 1
    28   11   57 1
    29   12   13 2
    30   12   14 am
    31   14   15 1
    32   14   58 1
    33   15   16 1
    34   15   22 1
    35   15   17 1
    36   17   18 1
    37   17   59 1
    38   17   60 1
    39   18   19 1
    40   18   61 1
    41   18   62 1
    42   19   20 1
    43   19   63 1
    44   19   64 1
    45   20   21 1
    46   20   65 1
    47   20   66 1
    48   21   22 am
    49   21   24 1
    50   22   23 2
    51   24   25 1
    52   24   67 1
    53   24   68 1
    54   25   30 ar
    55   25   26 ar
    56   26   27 ar
    57   26   69 1
    58   27   28 ar
    59   27   70 1
    60   28   29 ar
    61   28   71 1
    62   29   30 ar
    63   29   31 1
    64   30   72 1
    65   31   32 1
    66   32   37 ar
    67   32   33 ar
    68   33   34 ar
    69   33   73 1
    70   34   35 ar
    71   34   74 1
    72   35   36 ar
    73   35   75 1
    74   36   37 ar
    75   36   76 1
    76   37   77 1
    77   38   39 2
    78   38   40 am
    79   40   41 1
    80   40   78 1
    81   41   79 1
@<TRIPOS>MOLECULE
ZINC28640034
   49    50     0     0     0
SMALL
USER_CHARGES

@<TRIPOS>ATOM
      1 C1          0.0802    1.7020    0.0022 C.3       1 <0>        -0.1407
      2 C2          0.2270    0.2073   -0.2894 C.3       1 <0>        -0.0962
      3 C3          0.9985   -0.4613    0.8501 C.3       1 <0>        -0.4312
      4 H1          0.4075   -0.4156    1.7649 H         1 <0>         0.1044
      5 P1          1.3241   -2.2035    0.4234 P.3       1 <0>         2.2344
      6 O1          2.4286   -2.7624    1.3480 O.2       1 <0>        -1.0693
      7 O2          0.0314   -3.0292    0.6080 O.3       1 <0>        -1.0844
      8 O3          1.8079   -2.2993   -1.1092 O.3       1 <0>        -0.9010
      9 N1          2.2699    0.2372    1.0548 N.pl3     1 <0>        -1.0882
     10 S1          2.6610    0.8229    2.5535 S.o2      1 <0>         2.6928
     11 O4          3.9346    1.4406    2.4286 O.2       1 <0>        -0.9763
     12 O5          1.5183    1.5224    3.0271 O.2       1 <0>        -0.9702
     13 C4          2.8771   -0.5662    3.6157 C.ar      1 <0>        -0.6542
     14 C5          1.8060   -1.0561    4.3394 C.ar      1 <0>        -0.0108
     15 C6          1.9755   -2.1460    5.1727 C.ar      1 <0>        -0.1320
     16 C7          3.2160   -2.7462    5.2820 C.ar      1 <0>        -0.0252
     17 C8          4.2868   -2.2568    4.5576 C.ar      1 <0>        -0.1294
     18 C9          4.1163   -1.1696    3.7210 C.ar      1 <0>         0.0130
     19 C10         3.4010   -3.9337    6.1912 C.3       1 <0>        -0.0747
     20 C11         3.1311   -5.2211    5.4099 C.3       1 <0>        -0.0808
     21 C12         3.3161   -6.4086    6.3191 C.ar      1 <0>        -0.0722
     22 C13         4.5579   -7.0053    6.4327 C.ar      1 <0>        -0.1176
     23 C14         4.7276   -8.0946    7.2667 C.ar      1 <0>        -0.1207
     24 C15         3.6557   -8.5869    7.9875 C.ar      1 <0>        -0.1311
     25 C16         2.4142   -7.9897    7.8746 C.ar      1 <0>        -0.1200
     26 C17         2.2454   -6.8977    7.0438 C.ar      1 <0>        -0.1171
     27 C18        -1.1599   -0.4279   -0.4078 C.3       1 <0>        -0.1641
     28 H2          1.0682    2.1545    0.0866 H         1 <0>         0.0466
     29 H3         -0.4695    2.1784   -0.8096 H         1 <0>         0.0478
     30 H4         -0.4628    1.8381    0.9375 H         1 <0>         0.0572
     31 H5          0.7700    0.0712   -1.2247 H         1 <0>         0.0754
     32 H6          1.9996   -3.1995   -1.4056 H         1 <0>         0.4108
     33 H7          2.8827    0.3565    0.3124 H         1 <0>         0.4134
     34 H8          0.8369   -0.5872    4.2540 H         1 <0>         0.1275
     35 H9          1.1389   -2.5283    5.7387 H         1 <0>         0.1246
     36 H10         5.2561   -2.7255    4.6432 H         1 <0>         0.1241
     37 H11         4.9521   -0.7896    3.1522 H         1 <0>         0.1298
     38 H12         4.4232   -3.9458    6.5696 H         1 <0>         0.0732
     39 H13         2.7050   -3.8632    7.0271 H         1 <0>         0.0730
     40 H14         2.1089   -5.2090    5.0316 H         1 <0>         0.0828
     41 H15         3.8271   -5.2916    4.5740 H         1 <0>         0.0824
     42 H16         5.3954   -6.6207    5.8696 H         1 <0>         0.1220
     43 H17         5.6976   -8.5612    7.3549 H         1 <0>         0.1185
     44 H18         3.7882   -9.4384    8.6385 H         1 <0>         0.1170
     45 H19         1.5766   -8.3745    8.4374 H         1 <0>         0.1189
     46 H20         1.2763   -6.4288    6.9585 H         1 <0>         0.1227
     47 H21        -1.7004    0.0314   -1.2355 H         1 <0>         0.0518
     48 H22        -1.0553   -1.4973   -0.5910 H         1 <0>         0.0879
     49 H23        -1.7120   -0.2702    0.5187 H         1 <0>         0.0550
@<TRIPOS>BOND
     1    1    2 1
     2    1   28 1
     3    1   29 1
     4    1   30 1
     5    2    3 1
     6    2   27 1
     7    2   31 1
     8    3    4 1
     9    3    5 1
    10    3    9 1
    11    5    6 2
    12    5    7 1
    13    5    8 1
    14    8   32 1
    15    9   10 1
    16    9   33 1
    17   10   11 2
    18   10   12 2
    19   10   13 1
    20   13   18 ar
    21   13   14 ar
    22   14   15 ar
    23   14   34 1
    24   15   16 ar
    25   15   35 1
    26   16   17 ar
    27   16   19 1
    28   17   18 ar
    29   17   36 1
    30   18   37 1
    31   19   20 1
    32   19   38 1
    33   19   39 1
    34   20   21 1
    35   20   40 1
    36   20   41 1
    37   21   26 ar
    38   21   22 ar
    39   22   23 ar
    40   22   42 1
    41   23   24 ar
    42   23   43 1
    43   24   25 ar
    44   24   44 1
    45   25   26 ar
    46   25   45 1
    47   26   46 1
    48   27   47 1
    49   27   48 1
    50   27   49 1
@<TRIPOS>MOLECULE
ZINC28640034
   48    49     0     0     0
SMALL
USER_CHARGES

@<TRIPOS>ATOM
      1 C1          1.3052    1.7703    0.4699 C.3       1 <0>        -0.1810
      2 C2          1.4427    0.2677    0.2163 C.3       1 <0>        -0.0800
      3 C3          0.6668   -0.5032    1.2861 C.3       1 <0>        -0.4271
      4 H1          1.0685   -0.2626    2.2704 H         1 <0>         0.0589
      5 P1         -1.0933   -0.0338    1.2168 P.3       1 <0>         2.2026
      6 O1         -1.2338    1.5055    1.4726 O.2       1 <0>        -1.1566
      7 O2         -1.6717   -0.3832   -0.1966 O.3       1 <0>        -1.1544
      8 O3         -1.8872   -0.8202    2.3149 O.3       1 <0>        -1.1704
      9 N1          0.7985   -1.9419    1.0432 N.pl3     1 <0>        -1.0607
     10 S1          1.9680   -2.8109    1.8302 S.o2      1 <0>         2.6814
     11 O4          1.7984   -4.1666    1.4400 O.2       1 <0>        -0.9884
     12 O5          3.1902   -2.1110    1.6413 O.2       1 <0>        -0.9778
     13 C4          1.6044   -2.7333    3.5525 C.ar      1 <0>        -0.6610
     14 C5          2.2114   -1.7769    4.3448 C.ar      1 <0>        -0.0172
     15 C6          1.9261   -1.7160    5.6960 C.ar      1 <0>        -0.1412
     16 C7          1.0334   -2.6113    6.2549 C.ar      1 <0>        -0.0400
     17 C8          0.4257   -3.5672    5.4625 C.ar      1 <0>        -0.1358
     18 C9          0.7077   -3.6253    4.1105 C.ar      1 <0>         0.0001
     19 C10         0.7231   -2.5456    7.7281 C.3       1 <0>        -0.0699
     20 C11        -0.4659   -1.6105    7.9577 C.3       1 <0>        -0.0867
     21 C12        -0.7762   -1.5448    9.4309 C.ar      1 <0>        -0.0687
     22 C13        -1.6646   -2.4437    9.9909 C.ar      1 <0>        -0.1163
     23 C14        -1.9492   -2.3835   11.3423 C.ar      1 <0>        -0.1206
     24 C15        -1.3451   -1.4246   12.1338 C.ar      1 <0>        -0.1327
     25 C16        -0.4560   -0.5263   11.5740 C.ar      1 <0>        -0.1209
     26 C17        -0.1681   -0.5892   10.2234 C.ar      1 <0>        -0.1171
     27 C18         0.8789   -0.0699   -1.1654 C.3       1 <0>        -0.1778
     28 H2          1.7069    2.0109    1.4542 H         1 <0>         0.0306
     29 H3          1.8580    2.3195   -0.2922 H         1 <0>         0.0243
     30 H4          0.2528    2.0510    0.4285 H         1 <0>         0.1341
     31 H5          2.4952   -0.0129    0.2577 H         1 <0>         0.0321
     32 H6          0.2006   -2.3855    0.4214 H         1 <0>         0.4180
     33 H7          2.9089   -1.0774    3.9081 H         1 <0>         0.1343
     34 H8          2.4009   -0.9692    6.3150 H         1 <0>         0.1256
     35 H9         -0.2715   -4.2669    5.8992 H         1 <0>         0.1279
     36 H10         0.2301   -4.3697    3.4907 H         1 <0>         0.1372
     37 H11         0.4766   -3.5430    8.0923 H         1 <0>         0.0736
     38 H12         1.5923   -2.1670    8.2660 H         1 <0>         0.0724
     39 H13        -0.2194   -0.6132    7.5935 H         1 <0>         0.0819
     40 H14        -1.3351   -1.9892    7.4199 H         1 <0>         0.0846
     41 H15        -2.1366   -3.1929    9.3725 H         1 <0>         0.1235
     42 H16        -2.6439   -3.0853   11.7797 H         1 <0>         0.1184
     43 H17        -1.5680   -1.3771   13.1895 H         1 <0>         0.1160
     44 H18         0.0157    0.2231   12.1923 H         1 <0>         0.1180
     45 H19         0.5293    0.1102    9.7867 H         1 <0>         0.1224
     46 H20        -0.1735    0.2107   -1.2068 H         1 <0>         0.1323
     47 H21         1.4317    0.4793   -1.9275 H         1 <0>         0.0193
     48 H22         0.9768   -1.1404   -1.3461 H         1 <0>         0.0328
@<TRIPOS>BOND
     1    1    2 1
     2    1   28 1
     3    1   29 1
     4    1   30 1
     5    2    3 1
     6    2   27 1
     7    2   31 1
     8    3    4 1
     9    3    5 1
    10    3    9 1
    11    5    6 2
    12    5    7 1
    13    5    8 1
    14    9   10 1
    15    9   32 1
    16   10   11 2
    17   10   12 2
    18   10   13 1
    19   13   18 ar
    20   13   14 ar
    21   14   15 ar
    22   14   33 1
    23   15   16 ar
    24   15   34 1
    25   16   17 ar
    26   16   19 1
    27   17   18 ar
    28   17   35 1
    29   18   36 1
    30   19   20 1
    31   19   37 1
    32   19   38 1
    33   20   21 1
    34   20   39 1
    35   20   40 1
    36   21   26 ar
    37   21   22 ar
    38   22   23 ar
    39   22   41 1
    40   23   24 ar
    41   23   42 1
    42   24   25 ar
    43   24   43 1
    44   25   26 ar
    45   25   44 1
    46   26   45 1
    47   27   46 1
    48   27   47 1
    49   27   48 1
@<TRIPOS>MOLECULE
ZINC01544157
   52    51     0     0     0
SMALL
USER_CHARGES
(2R)-N-[(1S)-2,2-dimethyl-1-(methylcarbamoyl)propyl]-2-[(1S)-1-hydroxy-2-(hydroxyamino)-2-oxo-ethyl]-4-methyl-pentanamide
@<TRIPOS>ATOM
      1 C1          3.0091    4.5674    0.8752 C.3       1 <0>        -0.1725
      2 C2          2.8370    3.3040    1.7207 C.3       1 <0>        -0.1114
      3 C3          3.7850    3.3601    2.9204 C.3       1 <0>        -0.1515
      4 C4          1.3922    3.2147    2.2162 C.3       1 <0>        -0.1277
      5 C5          0.4588    2.9800    1.0268 C.3       1 <0>        -0.1436
      6 H1         -0.5517    2.7917    1.3896 H         1 <0>         0.1129
      7 C6          0.9468    1.7708    0.2264 C.3       1 <0>         0.1266
      8 H2          1.9895    1.9182   -0.0550 H         1 <0>         0.1368
      9 C7          0.8250    0.5278    1.0698 C.2       1 <0>         0.4947
     10 O1         -0.0196   -0.3023    0.8080 O.2       1 <0>        -0.5059
     11 N1          1.6547    0.3386    2.1149 N.am      1 <0>        -0.5951
     12 O2          1.6054   -0.8719    2.8479 O.3       1 <0>        -0.3178
     13 O3          0.1511    1.6269   -0.9518 O.3       1 <0>        -0.5050
     14 C8          0.4558    4.2000    0.1421 C.2       1 <0>         0.5376
     15 O4          0.7344    4.0970   -1.0337 O.2       1 <0>        -0.5056
     16 N2          0.1435    5.4054    0.6577 N.am      1 <0>        -0.7140
     17 C9          0.0346    6.5722   -0.2215 C.3       1 <0>         0.1387
     18 H3          0.7694    6.4932   -1.0227 H         1 <0>         0.1119
     19 C10         0.2914    7.8262    0.5738 C.2       1 <0>         0.5166
     20 O5          0.1388    7.8231    1.7769 O.2       1 <0>        -0.5316
     21 N3          0.6907    8.9512   -0.0520 N.am      1 <0>        -0.7302
     22 C11         1.0400   10.1397    0.7300 C.3       1 <0>         0.0849
     23 C12        -1.3712    6.6284   -0.8226 C.3       1 <0>        -0.0724
     24 C13        -2.3961    6.8315    0.2951 C.3       1 <0>        -0.1441
     25 C14        -1.4571    7.7931   -1.8111 C.3       1 <0>        -0.1546
     26 C15        -1.6664    5.3168   -1.5531 C.3       1 <0>        -0.1327
     27 H4          2.5718    5.4175    1.3989 H         1 <0>         0.0600
     28 H5          4.0704    4.7508    0.7077 H         1 <0>         0.0593
     29 H6          2.5076    4.4342   -0.0834 H         1 <0>         0.0774
     30 H7          3.0684    2.4275    1.1155 H         1 <0>         0.0727
     31 H8          3.6624    2.4600    3.5228 H         1 <0>         0.0526
     32 H9          4.8143    3.4237    2.5674 H         1 <0>         0.0633
     33 H10         3.5536    4.2366    3.5256 H         1 <0>         0.0627
     34 H11         1.1203    4.1460    2.7131 H         1 <0>         0.0885
     35 H12         1.2997    2.3871    2.9195 H         1 <0>         0.0814
     36 H13         2.2857    1.0316    2.3649 H         1 <0>         0.4083
     37 H14         2.2374   -0.9154    3.5784 H         1 <0>         0.3884
     38 H15        -0.7903    1.4920   -0.7766 H         1 <0>         0.3809
     39 H16        -0.0092    5.5005    1.6109 H         1 <0>         0.4088
     40 H17         0.7467    8.9738   -1.0201 H         1 <0>         0.4052
     41 H18         0.1766   10.4562    1.3153 H         1 <0>         0.0629
     42 H19         1.8665    9.9037    1.4002 H         1 <0>         0.0614
     43 H20         1.3367   10.9436    0.0563 H         1 <0>         0.0787
     44 H21        -2.1858    7.7659    0.8155 H         1 <0>         0.0563
     45 H22        -3.3976    6.8716   -0.1331 H         1 <0>         0.0602
     46 H23        -2.3349    6.0018    0.9993 H         1 <0>         0.0579
     47 H24        -0.7527    7.6300   -2.6268 H         1 <0>         0.0633
     48 H25        -2.4688    7.8559   -2.2117 H         1 <0>         0.0678
     49 H26        -1.2108    8.7232   -1.2989 H         1 <0>         0.0593
     50 H27        -1.6053    4.4871   -0.8489 H         1 <0>         0.0527
     51 H28        -2.6680    5.3569   -1.9813 H         1 <0>         0.0548
     52 H29        -0.9363    5.1721   -2.3494 H         1 <0>         0.0702
@<TRIPOS>BOND
     1    1    2 1
     2    1   27 1
     3    1   28 1
     4    1   29 1
     5    2    3 1
     6    2    4 1
     7    2   30 1
     8    3   31 1
     9    3   32 1
    10    3   33 1
    11    4    5 1
    12    4   34 1
    13    4   35 1
    14    5    6 1
    15    5    7 1
    16    5   14 1
    17    7    8 1
    18    7    9 1
    19    7   13 1
    20    9   10 2
    21    9   11 am
    22   11   12 1
    23   11   36 1
    24   12   37 1
    25   13   38 1
    26   14   15 2
    27   14   16 am
    28   16   17 1
    29   16   39 1
    30   17   18 1
    31   17   19 1
    32   17   23 1
    33   19   20 2
    34   19   21 am
    35   21   22 1
    36   21   40 1
    37   22   41 1
    38   22   42 1
    39   22   43 1
    40   23   24 1
    41   23   25 1
    42   23   26 1
    43   24   44 1
    44   24   45 1
    45   24   46 1
    46   25   47 1
    47   25   48 1
    48   25   49 1
    49   26   50 1
    50   26   51 1
    51   26   52 1
@<TRIPOS>MOLECULE
ZINC03789788
   63    64     0     0     0
SMALL
USER_CHARGES
2-[1-(hydroxycarbamoyl)-2-(2-thienylsulfanyl)ethyl]-4-methyl-N-[1-(methylcarbamoyl)-2-phenyl-ethyl]-pentanamide
@<TRIPOS>ATOM
      1 C1          3.1221    2.9557    1.7202 C.3       1 <0>        -0.1431
      2 C2          2.5102    1.7687    0.9736 C.3       1 <0>        -0.1379
      3 C3          2.7420    0.4870    1.7763 C.3       1 <0>        -0.1394
      4 C4          1.0073    1.9961    0.7987 C.3       1 <0>        -0.1065
      5 C5          0.4069    0.8410   -0.0051 C.3       1 <0>        -0.0885
      6 H1          0.8505   -0.0991    0.3229 H         1 <0>         0.1149
      7 C6          0.6967    1.0500   -1.4928 C.3       1 <0>        -0.0588
      8 H2          0.1623    1.9316   -1.8467 H         1 <0>         0.1151
      9 C7          0.2335   -0.1774   -2.2801 C.3       1 <0>        -0.1124
     10 S1          0.4407    0.1297   -4.0558 S.3       1 <0>        -0.0144
     11 C8         -0.1286   -1.3552   -4.8145 C.2       1 <0>        -0.1714
     12 C9         -0.1962   -1.6718   -6.1386 C.2       1 <0>        -0.1349
     13 C10        -0.6846   -2.9141   -6.5020 C.2       1 <0>        -0.1423
     14 C11        -1.0794   -3.7751   -5.5344 C.2       1 <0>        -0.1732
     15 S2         -0.7596   -2.8391   -4.0484 S.3       1 <0>         0.0560
     16 C12         2.1774    1.2461   -1.6934 C.2       1 <0>         0.5371
     17 O1          2.9647    0.4671   -1.1991 O.2       1 <0>        -0.4942
     18 N1          2.6267    2.2870   -2.4221 N.am      1 <0>        -0.5886
     19 O2          4.0180    2.4712   -2.6105 O.3       1 <0>        -0.3117
     20 C13        -1.0833    0.7970    0.2150 C.2       1 <0>         0.5303
     21 O3         -1.8280    1.3539   -0.5637 O.2       1 <0>        -0.5294
     22 N2         -1.5885    0.1389    1.2771 N.am      1 <0>        -0.7016
     23 C14        -3.0392    0.0187    1.4421 C.3       1 <0>         0.1370
     24 H3         -3.5070   -0.1037    0.4652 H         1 <0>         0.1156
     25 C15        -3.3542   -1.1982    2.3144 C.3       1 <0>        -0.0835
     26 C16        -2.9289   -2.4537    1.5975 C.ar      1 <0>        -0.0870
     27 C17        -3.8193   -3.1126    0.7704 C.ar      1 <0>        -0.1132
     28 C18        -3.4277   -4.2617    0.1091 C.ar      1 <0>        -0.1147
     29 C19        -2.1491   -4.7576    0.2830 C.ar      1 <0>        -0.1168
     30 C20        -1.2605   -4.1016    1.1142 C.ar      1 <0>        -0.1145
     31 C21        -1.6504   -2.9497    1.7715 C.ar      1 <0>        -0.1117
     32 C22        -3.5745    1.2627    2.1031 C.2       1 <0>         0.5023
     33 O4         -2.8083    2.1045    2.5217 O.2       1 <0>        -0.5232
     34 N3         -4.9046    1.4397    2.2291 N.am      1 <0>        -0.7333
     35 C23        -5.4250    2.6490    2.8717 C.3       1 <0>         0.0870
     36 H4          2.6525    3.0503    2.6993 H         1 <0>         0.0504
     37 H5          4.1928    2.7937    1.8448 H         1 <0>         0.0547
     38 H6          2.9569    3.8689    1.1484 H         1 <0>         0.0490
     39 H7          2.9797    1.6742   -0.0055 H         1 <0>         0.1157
     40 H8          2.1362    0.5109    2.6821 H         1 <0>         0.0464
     41 H9          2.4595   -0.3757    1.1729 H         1 <0>         0.0583
     42 H10         3.7956    0.4125    2.0457 H         1 <0>         0.0537
     43 H11         0.8410    2.9333    0.2676 H         1 <0>         0.0699
     44 H12         0.5307    2.0437    1.7778 H         1 <0>         0.0792
     45 H13         0.8298   -1.0421   -1.9888 H         1 <0>         0.1037
     46 H14        -0.8173   -0.3716   -2.0651 H         1 <0>         0.1097
     47 H15         0.1259   -0.9660   -6.8900 H         1 <0>         0.1365
     48 H16        -0.7498   -3.1935   -7.5431 H         1 <0>         0.1390
     49 H17        -1.4800   -4.7730   -5.6354 H         1 <0>         0.1882
     50 H18         1.9971    2.9101   -2.8174 H         1 <0>         0.4091
     51 H19         4.2434    3.2439   -3.1465 H         1 <0>         0.3897
     52 H20        -0.9916   -0.2550    1.9324 H         1 <0>         0.4059
     53 H21        -2.8146   -1.1182    3.2581 H         1 <0>         0.0879
     54 H22        -4.4256   -1.2370    2.5106 H         1 <0>         0.0954
     55 H23        -4.8196   -2.7277    0.6380 H         1 <0>         0.1221
     56 H24        -4.1221   -4.7744   -0.5400 H         1 <0>         0.1223
     57 H25        -1.8446   -5.6577   -0.2302 H         1 <0>         0.1213
     58 H26        -0.2617   -4.4892    1.2504 H         1 <0>         0.1233
     59 H27        -0.9562   -2.4373    2.4211 H         1 <0>         0.1193
     60 H28        -5.5174    0.7664    1.8943 H         1 <0>         0.4018
     61 H29        -6.5144    2.6151    2.8818 H         1 <0>         0.0772
     62 H30        -5.0537    2.7052    3.8950 H         1 <0>         0.0606
     63 H31        -5.0940    3.5267    2.3165 H         1 <0>         0.0603
@<TRIPOS>BOND
     1    1    2 1
     2    1   36 1
     3    1   37 1
     4    1   38 1
     5    2    3 1
     6    2    4 1
     7    2   39 1
     8    3   40 1
     9    3   41 1
    10    3   42 1
    11    4    5 1
    12    4   43 1
    13    4   44 1
    14    5    6 1
    15    5    7 1
    16    5   20 1
    17    7    8 1
    18    7    9 1
    19    7   16 1
    20    9   10 1
    21    9   45 1
    22    9   46 1
    23   10   11 1
    24   11   15 1
    25   11   12 2
    26   12   13 1
    27   12   47 1
    28   13   14 2
    29   13   48 1
    30   14   15 1
    31   14   49 1
    32   16   17 2
    33   16   18 am
    34   18   19 1
    35   18   50 1
    36   19   51 1
    37   20   21 2
    38   20   22 am
    39   22   23 1
    40   22   52 1
    41   23   24 1
    42   23   25 1
    43   23   32 1
    44   25   26 1
    45   25   53 1
    46   25   54 1
    47   26   31 ar
    48   26   27 ar
    49   27   28 ar
    50   27   55 1
    51   28   29 ar
    52   28   56 1
    53   29   30 ar
    54   29   57 1
    55   30   31 ar
    56   30   58 1
    57   31   59 1
    58   32   33 2
    59   32   34 am
    60   34   35 1
    61   34   60 1
    62   35   61 1
    63   35   62 1
    64   35   63 1
@<TRIPOS>MOLECULE
ZINC03870412
   51    54     0     0     0
SMALL
USER_CHARGES

@<TRIPOS>ATOM
      1 C1         -0.0167    1.3824    0.0096 C.ar      1 <0>        -0.1232
      2 C2          1.1697    2.0917    0.0021 C.ar      1 <0>        -0.0728
      3 C3          2.3792    1.4226   -0.0135 C.ar      1 <0>        -0.0978
      4 C4          2.4066    0.0362   -0.0217 C.ar      1 <0>         0.0943
      5 C5          1.2160   -0.6806   -0.0137 C.ar      1 <0>         0.0658
      6 C6          0.0021   -0.0041    0.0020 C.ar      1 <0>         0.0986
      7 O1         -1.1658   -0.7009    0.0099 O.3       1 <0>        -0.4875
      8 O2          1.2387   -2.0413   -0.0217 O.3       1 <0>        -0.4804
      9 O3          3.5971   -0.6212   -0.0380 O.3       1 <0>        -0.4833
     10 C7          1.1446    3.5984    0.0105 C.3       1 <0>         0.1463
     11 H1          0.2126    3.9475    0.4550 H         1 <0>         0.1098
     12 C8          1.2611    4.1251   -1.4256 C.3       1 <0>         0.0607
     13 H2          0.4684    3.6972   -2.0393 H         1 <0>         0.1110
     14 C9          1.1215    5.6490   -1.3913 C.3       1 <0>        -0.0887
     15 C10         2.0188    6.2172   -0.3211 C.ar      1 <0>        -0.1934
     16 C11         2.3348    7.5707   -0.3637 C.ar      1 <0>         0.1618
     17 C12         3.1535    8.1275    0.6048 C.ar      1 <0>        -0.1998
     18 C13         3.6597    7.3319    1.6220 C.ar      1 <0>         0.1590
     19 C14         3.3464    5.9836    1.6646 C.ar      1 <0>        -0.1810
     20 C15         2.5265    5.4225    0.6909 C.ar      1 <0>         0.1700
     21 O4          2.2521    4.0938    0.7639 O.3       1 <0>        -0.2919
     22 O5          4.4620    7.8746    2.5751 O.3       1 <0>        -0.4915
     23 O6          1.8385    8.3503   -1.3601 O.3       1 <0>        -0.4908
     24 O7          2.5347    3.7694   -1.9673 O.3       1 <0>        -0.3234
     25 C16         2.6005    3.5753   -3.2991 C.2       1 <0>         0.5152
     26 O8          1.6037    3.7045   -3.9818 O.2       1 <0>        -0.4949
     27 C17         3.8823    3.2060   -3.9281 C.ar      1 <0>        -0.1035
     28 C18         5.0283    3.0514   -3.1432 C.ar      1 <0>        -0.0764
     29 C19         6.2283    2.7053   -3.7353 C.ar      1 <0>         0.0874
     30 C20         6.2961    2.5111   -5.1125 C.ar      1 <0>         0.0957
     31 C21         5.1559    2.6649   -5.8970 C.ar      1 <0>         0.0871
     32 C22         3.9519    3.0043   -5.3093 C.ar      1 <0>        -0.0733
     33 O9          5.2258    2.4749   -7.2418 O.3       1 <0>        -0.4778
     34 O10         7.4772    2.1713   -5.6921 O.3       1 <0>        -0.4725
     35 O11         7.3439    2.5547   -2.9722 O.3       1 <0>        -0.4781
     36 H3         -0.9596    1.9089    0.0260 H         1 <0>         0.1412
     37 H4          3.3040    1.9803   -0.0197 H         1 <0>         0.1453
     38 H5         -1.5123   -0.8977   -0.8712 H         1 <0>         0.3973
     39 H6          1.2542   -2.4396    0.8593 H         1 <0>         0.3921
     40 H7          3.9506   -0.8164    0.8407 H         1 <0>         0.3917
     41 H8          1.4057    6.0611   -2.3595 H         1 <0>         0.0993
     42 H9          0.0865    5.9136   -1.1749 H         1 <0>         0.0973
     43 H10         3.3971    9.1790    0.5682 H         1 <0>         0.1392
     44 H11         3.7408    5.3648    2.4571 H         1 <0>         0.1416
     45 H12         3.9848    8.2124    3.3453 H         1 <0>         0.3966
     46 H13         0.9859    8.7570   -1.1536 H         1 <0>         0.3948
     47 H14         4.9764    3.2026   -2.0751 H         1 <0>         0.1522
     48 H15         3.0669    3.1188   -5.9176 H         1 <0>         0.1531
     49 H16         5.0544    1.5647   -7.5199 H         1 <0>         0.3927
     50 H17         7.6276    1.2177   -5.7487 H         1 <0>         0.3919
     51 H18         7.4749    1.6560   -2.6401 H         1 <0>         0.3928
@<TRIPOS>BOND
     1    1    6 ar
     2    1    2 ar
     3    1   36 1
     4    2    3 ar
     5    2   10 1
     6    3    4 ar
     7    3   37 1
     8    4    5 ar
     9    4    9 1
    10    5    6 ar
    11    5    8 1
    12    6    7 1
    13    7   38 1
    14    8   39 1
    15    9   40 1
    16   10   11 1
    17   10   21 1
    18   10   12 1
    19   12   13 1
    20   12   14 1
    21   12   24 1
    22   14   15 1
    23   14   41 1
    24   14   42 1
    25   15   20 ar
    26   15   16 ar
    27   16   17 ar
    28   16   23 1
    29   17   18 ar
    30   17   43 1
    31   18   19 ar
    32   18   22 1
    33   19   20 ar
    34   19   44 1
    35   20   21 1
    36   22   45 1
    37   23   46 1
    38   24   25 1
    39   25   26 2
    40   25   27 1
    41   27   32 ar
    42   27   28 ar
    43   28   29 ar
    44   28   47 1
    45   29   30 ar
    46   29   35 1
    47   30   31 ar
    48   30   34 1
    49   31   32 ar
    50   31   33 1
    51   32   48 1
    52   33   49 1
    53   34   50 1
    54   35   51 1
@<TRIPOS>MOLECULE
ZINC03818629
   41    41     0     0     0
SMALL
USER_CHARGES

@<TRIPOS>ATOM
      1 C1          0.3217    1.2381   -0.4555 C.3       1 <0>        -0.1483
      2 C2          0.1189   -0.2089   -0.0016 C.3       1 <0>        -0.1216
      3 C3          0.8424   -0.4325    1.3278 C.3       1 <0>        -0.1516
      4 C4         -1.3757   -0.4820    0.1789 C.3       1 <0>         0.1171
      5 N1         -1.5796   -1.9006    0.4828 N.pl3     1 <0>        -0.9744
      6 C5         -1.4984   -2.3721    1.8675 C.3       1 <0>         0.1129
      7 C6         -2.8306   -2.1756    2.5440 C.2       1 <0>         0.5050
      8 O1         -3.7567   -1.6895    1.9300 O.2       1 <0>        -0.5035
      9 N2         -2.9929   -2.5400    3.8314 N.am      1 <0>        -0.5967
     10 O2         -4.2447   -2.3553    4.4670 O.3       1 <0>        -0.3162
     11 S1         -1.9019   -2.9711   -0.7389 S.o2      1 <0>         2.6937
     12 O3         -2.5809   -4.0702   -0.1471 O.2       1 <0>        -0.9505
     13 O4         -2.4604   -2.2150   -1.8046 O.2       1 <0>        -0.9449
     14 C7         -0.3543   -3.5859   -1.3146 C.ar      1 <0>        -0.7163
     15 C8          0.3126   -2.9311   -2.3335 C.ar      1 <0>         0.0203
     16 C9          1.5258   -3.4114   -2.7870 C.ar      1 <0>        -0.1694
     17 C10         2.0753   -4.5515   -2.2188 C.ar      1 <0>         0.1849
     18 C11         1.4045   -5.2065   -1.1963 C.ar      1 <0>        -0.2285
     19 C12         0.1939   -4.7192   -0.7428 C.ar      1 <0>         0.0201
     20 O5          3.2686   -5.0262   -2.6635 O.3       1 <0>        -0.3098
     21 C13         3.7739   -6.2044   -2.0322 C.3       1 <0>         0.0218
     22 H1          1.3864    1.4327   -0.5841 H         1 <0>         0.0600
     23 H2         -0.1938    1.3974   -1.4026 H         1 <0>         0.0607
     24 H3         -0.0831    1.9150    0.2968 H         1 <0>         0.0590
     25 H4          0.5237   -0.8858   -0.7539 H         1 <0>         0.0739
     26 H5          0.8024   -1.4898    1.5899 H         1 <0>         0.0573
     27 H6          1.8826   -0.1210    1.2323 H         1 <0>         0.0583
     28 H7          0.3577    0.1539    2.1084 H         1 <0>         0.0575
     29 H8         -1.7593    0.1241    0.9995 H         1 <0>         0.0896
     30 H9         -1.9051   -0.2274   -0.7393 H         1 <0>         0.1005
     31 H10        -1.2392   -3.4308    1.8762 H         1 <0>         0.1169
     32 H11        -0.7337   -1.8064    2.3997 H         1 <0>         0.1252
     33 H12        -2.2523   -2.9287    4.3224 H         1 <0>         0.4079
     34 H13        -4.2643   -2.6463    5.3890 H         1 <0>         0.3880
     35 H14        -0.1156   -2.0436   -2.7755 H         1 <0>         0.1477
     36 H15         2.0460   -2.9000   -3.5834 H         1 <0>         0.1429
     37 H16         1.8301   -6.0943   -0.7524 H         1 <0>         0.1395
     38 H17        -0.3266   -5.2262    0.0562 H         1 <0>         0.1420
     39 H18         3.9123   -6.0154   -0.9677 H         1 <0>         0.0609
     40 H19         3.0651   -7.0214   -2.1670 H         1 <0>         0.0613
     41 H20         4.7299   -6.4752   -2.4804 H         1 <0>         0.1066
@<TRIPOS>BOND
     1    1    2 1
     2    1   22 1
     3    1   23 1
     4    1   24 1
     5    2    3 1
     6    2    4 1
     7    2   25 1
     8    3   26 1
     9    3   27 1
    10    3   28 1
    11    4    5 1
    12    4   29 1
    13    4   30 1
    14    5    6 1
    15    5   11 1
    16    6    7 1
    17    6   31 1
    18    6   32 1
    19    7    8 2
    20    7    9 am
    21    9   10 1
    22    9   33 1
    23   10   34 1
    24   11   12 2
    25   11   13 2
    26   11   14 1
    27   14   19 ar
    28   14   15 ar
    29   15   16 ar
    30   15   35 1
    31   16   17 ar
    32   16   36 1
    33   17   18 ar
    34   17   20 1
    35   18   19 ar
    36   18   37 1
    37   19   38 1
    38   20   21 1
    39   21   39 1
    40   21   40 1
    41   21   41 1
@<TRIPOS>MOLECULE
ZINC39193938
   63    65     0     0     0
SMALL
USER_CHARGES

@<TRIPOS>ATOM
      1 C1         -0.0187    1.5258    0.0104 C.3       1 <0>        -0.1525
      2 C2          0.0021   -0.0041    0.0020 C.3       1 <0>         0.0513
      3 O1          0.6709   -0.4649   -1.1737 O.3       1 <0>        -0.3140
      4 C3          0.7768   -1.8100   -1.3361 C.ar      1 <0>         0.1423
      5 C4          0.2412   -2.6667   -0.3838 C.ar      1 <0>        -0.2039
      6 C5          0.3465   -4.0319   -0.5449 C.ar      1 <0>        -0.0565
      7 C6          0.9925   -4.5526   -1.6673 C.ar      1 <0>        -0.0546
      8 C7          1.5296   -3.6880   -2.6225 C.ar      1 <0>        -0.0497
      9 C8          1.4151   -2.3239   -2.4569 C.ar      1 <0>        -0.1502
     10 C9          1.1080   -6.0159   -1.8438 C.2       1 <0>        -0.0756
     11 C10         1.7008   -6.7183   -2.8585 C.2       1 <0>        -0.1883
     12 C11         1.6850   -8.0955   -2.8081 C.2       1 <0>        -0.0108
     13 C12         1.0847   -8.7119   -1.7583 C.2       1 <0>        -0.7562
     14 S1          0.5177   -7.3268   -0.7853 S.3       1 <0>         0.1894
     15 S2          0.9141  -10.4358   -1.4359 S.o2      1 <0>         2.7210
     16 O2         -0.2130  -10.5798   -0.5827 O.2       1 <0>        -0.9348
     17 O3          1.0086  -11.0950   -2.6912 O.2       1 <0>        -0.9662
     18 N1          2.2368  -10.9024   -0.5555 N.pl3     1 <0>        -1.0788
     19 C13         2.4448  -10.3686    0.7929 C.3       1 <0>         0.0854
     20 H1          1.9409   -9.4064    0.8844 H         1 <0>         0.0743
     21 C14         3.9430  -10.1856    1.0435 C.3       1 <0>        -0.0712
     22 C15         4.6504  -11.5364    0.9132 C.3       1 <0>        -0.1304
     23 C16         6.1546  -11.3436    1.1305 C.3       1 <0>         0.1301
     24 N2          6.3639  -10.6748    2.4219 N.am      1 <0>        -0.5870
     25 C17         5.6584   -9.4135    2.6868 C.3       1 <0>         0.1140
     26 C18         4.1599   -9.6279    2.4521 C.3       1 <0>        -0.1346
     27 C19         7.1870  -11.2085    3.3461 C.2       1 <0>         0.6509
     28 O4          7.7643  -12.2524    3.1151 O.2       1 <0>        -0.5792
     29 O5          7.3695  -10.5849    4.5254 O.3       1 <0>        -0.3583
     30 C20         8.2557  -11.2071    5.4579 C.3       1 <0>         0.0967
     31 C21         8.9206  -10.1345    6.3230 C.3       1 <0>        -0.1480
     32 C22         7.4653  -12.1652    6.3513 C.3       1 <0>        -0.1729
     33 C23         1.8797  -11.3300    1.8064 C.2       1 <0>         0.4951
     34 O6          1.5185  -12.4411    1.4576 O.co2     1 <0>        -0.6754
     35 O7          1.7836  -10.9969    2.9753 O.co2     1 <0>        -0.6896
     36 H2          1.0039    1.9031    0.0027 H         1 <0>         0.0666
     37 H3         -0.5459    1.8868   -0.8726 H         1 <0>         0.0663
     38 H4         -0.5289    1.8773    0.9072 H         1 <0>         0.0794
     39 H5          0.5293   -0.3651    0.8851 H         1 <0>         0.0650
     40 H6         -1.0205   -0.3814    0.0098 H         1 <0>         0.0644
     41 H7         -0.2582   -2.2630    0.4846 H         1 <0>         0.1349
     42 H8         -0.0700   -4.6976    0.1966 H         1 <0>         0.1313
     43 H9          2.0302   -4.0869   -3.4924 H         1 <0>         0.1363
     44 H10         1.8265   -1.6543   -3.1977 H         1 <0>         0.1371
     45 H11         2.1715   -6.2031   -3.6828 H         1 <0>         0.1410
     46 H12         2.1441   -8.6768   -3.5940 H         1 <0>         0.1474
     47 H13         2.8739  -11.5292   -0.9326 H         1 <0>         0.4134
     48 H14         4.3514   -9.4898    0.3106 H         1 <0>         0.0642
     49 H15         4.2600  -12.2253    1.6622 H         1 <0>         0.0827
     50 H16         4.4760  -11.9439   -0.0826 H         1 <0>         0.0753
     51 H17         6.6502  -12.3143    1.1372 H         1 <0>         0.0934
     52 H18         6.5635  -10.7277    0.3296 H         1 <0>         0.0682
     53 H19         5.8267   -9.1108    3.7204 H         1 <0>         0.0892
     54 H20         6.0269   -8.6402    2.0128 H         1 <0>         0.0633
     55 H21         3.6363   -8.6771    2.5515 H         1 <0>         0.0734
     56 H22         3.7741  -10.3348    3.1866 H         1 <0>         0.1059
     57 H23         9.0210  -11.7631    4.9164 H         1 <0>         0.0830
     58 H24         8.1553   -9.5785    6.8645 H         1 <0>         0.0671
     59 H25         9.5966  -10.6091    7.0344 H         1 <0>         0.0765
     60 H26         9.4837   -9.4519    5.6866 H         1 <0>         0.0620
     61 H27         8.1412  -12.6398    7.0626 H         1 <0>         0.0707
     62 H28         6.7000  -11.6092    6.8928 H         1 <0>         0.0657
     63 H29         6.9916  -12.9293    5.7349 H         1 <0>         0.0644
@<TRIPOS>BOND
     1    1    2 1
     2    1   36 1
     3    1   37 1
     4    1   38 1
     5    2    3 1
     6    2   39 1
     7    2   40 1
     8    3    4 1
     9    4    9 ar
    10    4    5 ar
    11    5    6 ar
    12    5   41 1
    13    6    7 ar
    14    6   42 1
    15    7    8 ar
    16    7   10 1
    17    8    9 ar
    18    8   43 1
    19    9   44 1
    20   10   14 1
    21   10   11 2
    22   11   12 1
    23   11   45 1
    24   12   13 2
    25   12   46 1
    26   13   14 1
    27   13   15 1
    28   15   16 2
    29   15   17 2
    30   15   18 1
    31   18   19 1
    32   18   47 1
    33   19   20 1
    34   19   21 1
    35   19   33 1
    36   21   26 1
    37   21   22 1
    38   21   48 1
    39   22   23 1
    40   22   49 1
    41   22   50 1
    42   23   24 1
    43   23   51 1
    44   23   52 1
    45   24   25 1
    46   24   27 am
    47   25   26 1
    48   25   53 1
    49   25   54 1
    50   26   55 1
    51   26   56 1
    52   27   28 2
    53   27   29 1
    54   29   30 1
    55   30   31 1
    56   30   32 1
    57   30   57 1
    58   31   58 1
    59   31   59 1
    60   31   60 1
    61   32   61 1
    62   32   62 1
    63   32   63 1
    64   33   34 2
    65   33   35 1
@<TRIPOS>MOLECULE
ZINC03976469
   34    36     0     0     0
SMALL
USER_CHARGES
2-[(4-phenoxyphenyl)sulfonylmethyl]thiirane
@<TRIPOS>ATOM
      1 C1          2.3874    0.0150    0.0652 C.ar      1 <0>        -0.1154
      2 C2          1.9491    0.6675    1.2027 C.ar      1 <0>        -0.1028
      3 C3          0.7485    1.3505    1.1893 C.ar      1 <0>        -0.1375
      4 C4         -0.0179    1.3815    0.0330 C.ar      1 <0>         0.0740
      5 C5          0.4243    0.7258   -1.1072 C.ar      1 <0>        -0.1174
      6 C6          1.6257    0.0443   -1.0884 C.ar      1 <0>        -0.1018
      7 O1         -1.2020    2.0479    0.0189 O.3       1 <0>        -0.2491
      8 C7         -1.1733    3.4019    0.1307 C.ar      1 <0>         0.1797
      9 C8          0.0408    4.0735    0.1325 C.ar      1 <0>        -0.2154
     10 C9          0.0669    5.4504    0.2415 C.ar      1 <0>         0.0178
     11 C10        -1.1150    6.1583    0.3592 C.ar      1 <0>        -0.6956
     12 C11        -2.3260    5.4909    0.3629 C.ar      1 <0>         0.0149
     13 C12        -2.3579    4.1147    0.2489 C.ar      1 <0>        -0.1644
     14 S1         -1.0779    7.9139    0.5042 S.o2      1 <0>         2.5032
     15 O2          0.1332    8.3045   -0.1283 O.2       1 <0>        -0.9256
     16 O3         -2.3326    8.3463   -0.0037 O.2       1 <0>        -0.9282
     17 C13        -0.9823    8.2325    2.2875 C.3       1 <0>        -0.5909
     18 C14        -0.9442    9.7419    2.5346 C.3       1 <0>        -0.0466
     19 H1         -1.5627   10.3375    1.8631 H         1 <0>         0.1505
     20 C15        -0.8627   10.2027    3.9912 C.3       1 <0>        -0.0550
     21 S2          0.6513   10.4530    3.0239 S.3       1 <0>        -0.3243
     22 H2          3.3266   -0.5181    0.0776 H         1 <0>         0.1314
     23 H3          2.5461    0.6434    2.1024 H         1 <0>         0.1329
     24 H4          0.4067    1.8603    2.0780 H         1 <0>         0.1311
     25 H5         -0.1704    0.7481   -2.0084 H         1 <0>         0.1347
     26 H6          1.9703   -0.4662   -1.9756 H         1 <0>         0.1349
     27 H7          0.9645    3.5207    0.0447 H         1 <0>         0.1413
     28 H8          1.0115    5.9740    0.2392 H         1 <0>         0.1471
     29 H9         -3.2477    6.0463    0.4547 H         1 <0>         0.1532
     30 H10        -3.3041    3.5939    0.2515 H         1 <0>         0.1461
     31 H11        -1.8559    7.8056    2.7801 H         1 <0>         0.1578
     32 H12        -0.0784    7.7754    2.6903 H         1 <0>         0.1502
     33 H13        -1.4299   11.0943    4.2586 H         1 <0>         0.1363
     34 H14        -0.8374    9.4243    4.7538 H         1 <0>         0.1327
@<TRIPOS>BOND
     1    1    6 ar
     2    1    2 ar
     3    1   22 1
     4    2    3 ar
     5    2   23 1
     6    3    4 ar
     7    3   24 1
     8    4    5 ar
     9    4    7 1
    10    5    6 ar
    11    5   25 1
    12    6   26 1
    13    7    8 1
    14    8   13 ar
    15    8    9 ar
    16    9   10 ar
    17    9   27 1
    18   10   11 ar
    19   10   28 1
    20   11   12 ar
    21   11   14 1
    22   12   13 ar
    23   12   29 1
    24   13   30 1
    25   14   15 2
    26   14   16 2
    27   14   17 1
    28   17   18 1
    29   17   31 1
    30   17   32 1
    31   18   19 1
    32   18   21 1
    33   18   20 1
    34   20   21 1
    35   20   33 1
    36   20   34 1
@<TRIPOS>MOLECULE
ZINC13916763
   34    36     0     0     0
SMALL
USER_CHARGES
(2S)-2-[(4-phenoxyphenyl)sulfonylmethyl]thiirane
@<TRIPOS>ATOM
      1 C1         -1.7381    0.6038    8.4285 C.ar      1 <0>        -0.1466
      2 C2         -2.7010    1.5936    8.4992 C.ar      1 <0>        -0.0819
      3 C3         -3.0000    2.3491    7.3821 C.ar      1 <0>        -0.1403
      4 C4         -2.3328    2.1144    6.1884 C.ar      1 <0>         0.1153
      5 C5         -1.3703    1.1173    6.1188 C.ar      1 <0>        -0.1949
      6 C6         -1.0717    0.3679    7.2401 C.ar      1 <0>        -0.0807
      7 O1         -2.6254    2.8559    5.0879 O.3       1 <0>        -0.2594
      8 C7         -2.0410    2.5092    3.9112 C.ar      1 <0>         0.1493
      9 C8         -2.3775    1.3129    3.2939 C.ar      1 <0>        -0.1612
     10 C9         -1.7822    0.9631    2.0975 C.ar      1 <0>        -0.0041
     11 C10        -0.8521    1.8040    1.5148 C.ar      1 <0>        -0.6684
     12 C11        -0.5111    2.9943    2.1304 C.ar      1 <0>        -0.0034
     13 C12        -1.1070    3.3511    3.3245 C.ar      1 <0>        -0.1430
     14 S1         -0.0947    1.3548   -0.0114 S.o2      1 <0>         2.5013
     15 O2         -0.1502   -0.0649   -0.0397 O.2       1 <0>        -0.9229
     16 O3          1.1551    2.0309   -0.0088 O.2       1 <0>        -0.9251
     17 C13        -1.1774    2.0481   -1.2911 C.3       1 <0>        -0.5896
     18 C14        -0.6113    1.7158   -2.6731 C.3       1 <0>        -0.0462
     19 H1          0.4754    1.6487   -2.7251 H         1 <0>         0.1494
     20 C15        -1.3231    2.3323   -3.8789 C.3       1 <0>        -0.0548
     21 S2         -1.5549    0.5436   -3.6860 S.3       1 <0>        -0.3231
     22 H2         -1.5057    0.0142    9.3030 H         1 <0>         0.1283
     23 H3         -3.2200    1.7759    9.4286 H         1 <0>         0.1342
     24 H4         -3.7528    3.1216    7.4378 H         1 <0>         0.1346
     25 H5         -0.8524    0.9299    5.1898 H         1 <0>         0.1287
     26 H6         -0.3202   -0.4060    7.1874 H         1 <0>         0.1291
     27 H7         -3.1039    0.6557    3.7487 H         1 <0>         0.1429
     28 H8         -2.0437    0.0321    1.6167 H         1 <0>         0.1513
     29 H9          0.2189    3.6472    1.6754 H         1 <0>         0.1541
     30 H10        -0.8434    4.2828    3.8029 H         1 <0>         0.1464
     31 H11        -2.1749    1.6194   -1.1944 H         1 <0>         0.1520
     32 H12        -1.2339    3.1301   -1.1721 H         1 <0>         0.1585
     33 H13        -2.1851    2.9663   -3.6713 H         1 <0>         0.1332
     34 H14        -0.6951    2.6615   -4.7067 H         1 <0>         0.1369
@<TRIPOS>BOND
     1    1    6 ar
     2    1    2 ar
     3    1   22 1
     4    2    3 ar
     5    2   23 1
     6    3    4 ar
     7    3   24 1
     8    4    5 ar
     9    4    7 1
    10    5    6 ar
    11    5   25 1
    12    6   26 1
    13    7    8 1
    14    8   13 ar
    15    8    9 ar
    16    9   10 ar
    17    9   27 1
    18   10   11 ar
    19   10   28 1
    20   11   12 ar
    21   11   14 1
    22   12   13 ar
    23   12   29 1
    24   13   30 1
    25   14   15 2
    26   14   16 2
    27   14   17 1
    28   17   18 1
    29   17   31 1
    30   17   32 1
    31   18   19 1
    32   18   21 1
    33   18   20 1
    34   20   21 1
    35   20   33 1
    36   20   34 1
@<TRIPOS>MOLECULE
ZINC40953882
   48    50     0     0     0
SMALL
USER_CHARGES

@<TRIPOS>ATOM
      1 C1         -0.4958    0.5810    0.2352 C.3       1 <0>        -0.1421
      2 C2         -0.4575   -0.9369    0.4239 C.3       1 <0>        -0.0807
      3 C3          0.1786   -1.5878   -0.8059 C.3       1 <0>        -0.1426
      4 C4          0.3698   -1.2757    1.6656 C.3       1 <0>         0.0748
      5 H1          0.4716   -2.3576    1.7502 H         1 <0>         0.0814
      6 C5          1.7357   -0.6504    1.5451 C.2       1 <0>         0.4900
      7 O1          1.9309    0.4746    1.9724 O.co2     1 <0>        -0.6794
      8 O2          2.6455   -1.2697    1.0204 O.co2     1 <0>        -0.6901
      9 N1         -0.3028   -0.7538    2.8578 N.pl3     1 <0>        -1.0827
     10 S1         -0.2280   -1.5917    4.2842 S.o2      1 <0>         2.7006
     11 O3         -0.9444   -0.8259    5.2432 O.2       1 <0>        -0.9702
     12 O4         -0.5624   -2.9392    3.9817 O.2       1 <0>        -0.9616
     13 C6          1.4571   -1.5944    4.7991 C.ar      1 <0>        -0.6298
     14 C7          2.2998   -2.6139    4.3852 C.ar      1 <0>        -0.0271
     15 C8          3.6203   -2.6246    4.7825 C.ar      1 <0>        -0.0735
     16 C9          4.1028   -1.6082    5.6000 C.ar      1 <0>        -0.0717
     17 C10         5.4189   -1.3112    6.1975 C.ar      1 <0>        -0.1044
     18 C11         6.6586   -1.9402    6.1621 C.ar      1 <0>        -0.0542
     19 C12         7.7266   -1.3897    6.8508 C.ar      1 <0>         0.1300
     20 C13         7.5555   -0.2130    7.5735 C.ar      1 <0>        -0.0989
     21 C14         6.3285    0.4134    7.6117 C.ar      1 <0>        -0.0955
     22 C15         5.2467   -0.1260    6.9254 C.ar      1 <0>         0.0839
     23 O5          3.9615    0.2739    6.7962 O.3       1 <0>        -0.1942
     24 C16         3.2532   -0.5757    6.0203 C.ar      1 <0>         0.0629
     25 C17         1.9266   -0.5791    5.6054 C.ar      1 <0>         0.0054
     26 N2          8.9791   -2.0179    6.8203 N.am      1 <0>        -0.6456
     27 C18         9.3744   -2.6795    5.7147 C.2       1 <0>         0.6424
     28 O6          8.6890   -2.6507    4.7117 O.2       1 <0>        -0.5427
     29 O7         10.5289   -3.3725    5.7214 O.3       1 <0>        -0.3639
     30 C19        10.8861   -4.0498    4.5149 C.3       1 <0>         0.0523
     31 H2          0.5194    0.9572    0.1092 H         1 <0>         0.0714
     32 H3         -1.0852    0.8224   -0.6494 H         1 <0>         0.0420
     33 H4         -0.9490    1.0447    1.1114 H         1 <0>         0.0491
     34 H5         -1.4727   -1.3131    0.5500 H         1 <0>         0.0634
     35 H6          1.1938   -1.2115   -0.9320 H         1 <0>         0.0720
     36 H7          0.2059   -2.6691   -0.6715 H         1 <0>         0.0512
     37 H8         -0.4108   -1.3464   -1.6905 H         1 <0>         0.0458
     38 H9         -0.7919    0.0826    2.8117 H         1 <0>         0.4149
     39 H10         1.9214   -3.4017    3.7507 H         1 <0>         0.1471
     40 H11         4.2770   -3.4192    4.4604 H         1 <0>         0.1370
     41 H12         6.7879   -2.8536    5.6005 H         1 <0>         0.1442
     42 H13         8.3911    0.2128    8.1091 H         1 <0>         0.1436
     43 H14         6.2073    1.3261    8.1762 H         1 <0>         0.1437
     44 H15         1.2617    0.2125    5.9179 H         1 <0>         0.1498
     45 H16         9.5614   -1.9765    7.5949 H         1 <0>         0.4183
     46 H17        10.1115   -4.7737    4.2616 H         1 <0>         0.0641
     47 H18        10.9843   -3.3250    3.7068 H         1 <0>         0.0642
     48 H19        11.8349   -4.5674    4.6560 H         1 <0>         0.1054
@<TRIPOS>BOND
     1    1    2 1
     2    1   31 1
     3    1   32 1
     4    1   33 1
     5    2    3 1
     6    2    4 1
     7    2   34 1
     8    3   35 1
     9    3   36 1
    10    3   37 1
    11    4    5 1
    12    4    6 1
    13    4    9 1
    14    6    7 2
    15    6    8 1
    16    9   10 1
    17    9   38 1
    18   10   11 2
    19   10   12 2
    20   10   13 1
    21   13   25 ar
    22   13   14 ar
    23   14   15 ar
    24   14   39 1
    25   15   16 ar
    26   15   40 1
    27   16   24 ar
    28   16   17 1
    29   17   22 ar
    30   17   18 ar
    31   18   19 ar
    32   18   41 1
    33   19   20 ar
    34   19   26 1
    35   20   21 ar
    36   20   42 1
    37   21   22 ar
    38   21   43 1
    39   22   23 1
    40   23   24 1
    41   24   25 ar
    42   25   44 1
    43   26   27 am
    44   26   45 1
    45   27   28 2
    46   27   29 1
    47   29   30 1
    48   30   46 1
    49   30   47 1
    50   30   48 1
@<TRIPOS>MOLECULE
ZINC43014500
   49    52     0     0     0
SMALL
USER_CHARGES

@<TRIPOS>ATOM
      1 C1         -0.0187    1.5258    0.0104 C.3       1 <0>        -0.1420
      2 C2          0.0021   -0.0041    0.0020 C.3       1 <0>        -0.0807
      3 C3          0.7421   -0.5109    1.2415 C.3       1 <0>        -0.1427
      4 C4         -1.4333   -0.5336    0.0129 C.3       1 <0>         0.0748
      5 H1         -1.4190   -1.6203    0.0965 H         1 <0>         0.0817
      6 C5         -2.1755    0.0508    1.1870 C.2       1 <0>         0.4901
      7 O1         -2.7808    1.1019    1.0636 O.co2     1 <0>        -0.6798
      8 O2         -2.1706   -0.5275    2.2604 O.co2     1 <0>        -0.6901
      9 N1         -2.1054   -0.1483   -1.2305 N.pl3     1 <0>        -1.0826
     10 S1         -3.2090   -1.1686   -1.9257 S.o2      1 <0>         2.7004
     11 O3         -3.6969   -0.5094   -3.0862 O.2       1 <0>        -0.9702
     12 O4         -2.5998   -2.4514   -1.9777 O.2       1 <0>        -0.9611
     13 C6         -4.5687   -1.3016   -0.8130 C.ar      1 <0>        -0.6285
     14 C7         -4.5656   -2.2885    0.1600 C.ar      1 <0>        -0.0276
     15 C8         -5.6249   -2.4004    1.0358 C.ar      1 <0>        -0.0717
     16 C9         -6.6962   -1.5189    0.9385 C.ar      1 <0>        -0.0741
     17 C10        -7.9577   -1.3527    1.6856 C.ar      1 <0>        -0.0929
     18 C11        -8.5367   -2.0171    2.7613 C.ar      1 <0>        -0.0886
     19 C12        -9.7678   -1.6023    3.2412 C.ar      1 <0>         0.1553
     20 C13       -10.4186   -0.5255    2.6471 C.ar      1 <0>        -0.1135
     21 C14        -9.8487    0.1356    1.5806 C.ar      1 <0>        -0.0865
     22 C15        -8.6134   -0.2681    1.0873 C.ar      1 <0>         0.0743
     23 O5         -7.8440    0.1932    0.0756 O.3       1 <0>        -0.1943
     24 C16        -6.7025   -0.5197   -0.0444 C.ar      1 <0>         0.0644
     25 C17        -5.6234   -0.4192   -0.9148 C.ar      1 <0>         0.0042
     26 N2        -10.3580   -2.2671    4.3247 N.am      1 <0>        -0.5709
     27 C18       -11.6613   -1.9446    4.9386 C.3       1 <0>         0.0581
     28 C19       -11.9440   -3.2062    5.7883 C.3       1 <0>         0.0395
     29 O6        -10.6173   -3.7239    6.0076 O.3       1 <0>        -0.3199
     30 C20        -9.8409   -3.3181    4.9885 C.2       1 <0>         0.6417
     31 O7         -8.7834   -3.8420    4.6987 O.2       1 <0>        -0.4900
     32 H2          1.0039    1.9031    0.0027 H         1 <0>         0.0419
     33 H3         -0.5459    1.8868   -0.8726 H         1 <0>         0.0491
     34 H4         -0.5289    1.8773    0.9072 H         1 <0>         0.0713
     35 H5          0.5123   -0.3556   -0.8948 H         1 <0>         0.0634
     36 H6          0.2319   -0.1594    2.1383 H         1 <0>         0.0719
     37 H7          0.7568   -1.6008    1.2356 H         1 <0>         0.0514
     38 H8          1.7647   -0.1336    1.2338 H         1 <0>         0.0458
     39 H9         -1.9040    0.7045   -1.6466 H         1 <0>         0.4149
     40 H10        -3.7320   -2.9715    0.2322 H         1 <0>         0.1476
     41 H11        -5.6227   -3.1697    1.7938 H         1 <0>         0.1388
     42 H12        -8.0290   -2.8528    3.2199 H         1 <0>         0.1624
     43 H13       -11.3785   -0.2053    3.0246 H         1 <0>         0.1406
     44 H14       -10.3632    0.9697    1.1267 H         1 <0>         0.1438
     45 H15        -5.6130    0.3484   -1.6745 H         1 <0>         0.1498
     46 H16       -11.5841   -1.0601    5.5710 H         1 <0>         0.0997
     47 H17       -12.4276   -1.8113    4.1750 H         1 <0>         0.1076
     48 H18       -12.4193   -2.9410    6.7327 H         1 <0>         0.1260
     49 H19       -12.5537   -3.9200    5.2343 H         1 <0>         0.0973
@<TRIPOS>BOND
     1    1    2 1
     2    1   32 1
     3    1   33 1
     4    1   34 1
     5    2    3 1
     6    2    4 1
     7    2   35 1
     8    3   36 1
     9    3   37 1
    10    3   38 1
    11    4    5 1
    12    4    6 1
    13    4    9 1
    14    6    7 2
    15    6    8 1
    16    9   10 1
    17    9   39 1
    18   10   11 2
    19   10   12 2
    20   10   13 1
    21   13   25 ar
    22   13   14 ar
    23   14   15 ar
    24   14   40 1
    25   15   16 ar
    26   15   41 1
    27   16   24 ar
    28   16   17 1
    29   17   22 ar
    30   17   18 ar
    31   18   19 ar
    32   18   42 1
    33   19   20 ar
    34   19   26 1
    35   20   21 ar
    36   20   43 1
    37   21   22 ar
    38   21   44 1
    39   22   23 1
    40   23   24 1
    41   24   25 ar
    42   25   45 1
    43   26   30 am
    44   26   27 1
    45   27   28 1
    46   27   46 1
    47   27   47 1
    48   28   29 1
    49   28   48 1
    50   28   49 1
    51   29   30 1
    52   30   31 2
@<TRIPOS>MOLECULE
ZINC00580328
   49    51     0     0     0
SMALL
USER_CHARGES

@<TRIPOS>ATOM
      1 C1         -0.0029    1.3711   -0.0350 C.3       1 <0>        -0.1551
      2 C2          0.0599   -0.1492    0.1253 C.3       1 <0>        -0.0205
      3 C3         -1.3580   -0.7082    0.2895 C.3       1 <0>         0.1574
      4 H1         -1.3146   -1.7952    0.3563 H         1 <0>         0.1168
      5 N1         -1.9569   -0.1678    1.5108 N.pl3     1 <0>        -0.9918
      6 C4         -1.4145   -0.5101    2.8265 C.3       1 <0>         0.1160
      7 C5         -0.0034    0.0725    2.9646 C.3       1 <0>        -0.1077
      8 S1          1.0250   -0.5670    1.6084 S.3       1 <0>        -0.2262
      9 S2         -3.2637    0.8436    1.4027 S.o2      1 <0>         2.6638
     10 O1         -3.2544    1.6460    2.5755 O.2       1 <0>        -0.9406
     11 O2         -3.2374    1.4031    0.0968 O.2       1 <0>        -0.9070
     12 C6         -4.7087   -0.1609    1.4913 C.ar      1 <0>        -0.6812
     13 C7         -5.3754   -0.5145    0.3327 C.ar      1 <0>        -0.0242
     14 C8         -6.5084   -1.3019    0.3993 C.ar      1 <0>        -0.1440
     15 C9         -6.9773   -1.7380    1.6303 C.ar      1 <0>         0.1424
     16 C10        -6.3064   -1.3817    2.7914 C.ar      1 <0>        -0.1508
     17 C11        -5.1706   -0.5988    2.7188 C.ar      1 <0>        -0.0009
     18 O3         -8.0919   -2.5123    1.6986 O.3       1 <0>        -0.2546
     19 C12        -9.2474   -1.9310    2.1098 C.ar      1 <0>         0.1604
     20 C13       -10.3960   -2.6917    2.3154 C.ar      1 <0>        -0.1954
     21 C14       -11.5508   -2.0633    2.7336 C.ar      1 <0>         0.1366
     22 N2        -11.5753   -0.7598    2.9382 N.ar      1 <0>        -0.5003
     23 C15       -10.5082   -0.0056    2.7544 C.ar      1 <0>         0.1393
     24 C16        -9.3135   -0.5593    2.3425 C.ar      1 <0>        -0.2494
     25 C17        -2.1953   -0.3110   -0.8989 C.2       1 <0>         0.5107
     26 O4         -1.8928    0.6627   -1.5556 O.2       1 <0>        -0.4421
     27 N3         -3.2804   -1.0378   -1.2319 N.am      1 <0>        -0.6056
     28 O5         -4.0671   -0.6646   -2.3485 O.3       1 <0>        -0.3002
     29 C18         0.7201   -0.7686   -1.1082 C.3       1 <0>        -0.1346
     30 H2          0.9974    1.7898    0.0758 H         1 <0>         0.0685
     31 H3         -0.3921    1.6165   -1.0231 H         1 <0>         0.1121
     32 H4         -0.6587    1.7901    0.7282 H         1 <0>         0.0417
     33 H5         -2.0566   -0.0950    3.6034 H         1 <0>         0.1078
     34 H6         -1.3719   -1.5942    2.9312 H         1 <0>         0.0967
     35 H7         -0.0494    1.1600    2.9073 H         1 <0>         0.0943
     36 H8          0.4245   -0.2280    3.9210 H         1 <0>         0.1249
     37 H9         -5.0102   -0.1745   -0.6251 H         1 <0>         0.1711
     38 H10        -7.0290   -1.5776   -0.5059 H         1 <0>         0.1463
     39 H11        -6.6695   -1.7195    3.7507 H         1 <0>         0.1444
     40 H12        -4.6455   -0.3248    3.6219 H         1 <0>         0.1468
     41 H13       -10.3827   -3.7588    2.1494 H         1 <0>         0.1473
     42 H14       -12.4461   -2.6453    2.8951 H         1 <0>         0.1686
     43 H15       -10.5698    1.0579    2.9325 H         1 <0>         0.1629
     44 H16        -8.4426    0.0630    2.1984 H         1 <0>         0.1388
     45 H17        -3.5223   -1.8166   -0.7066 H         1 <0>         0.4038
     46 H18        -4.8235   -1.2455   -2.5085 H         1 <0>         0.3858
     47 H19         1.7303   -0.3739   -1.2164 H         1 <0>         0.0779
     48 H20         0.7637   -1.8515   -0.9917 H         1 <0>         0.0674
     49 H21         0.1366   -0.5218   -1.9951 H         1 <0>         0.0819
@<TRIPOS>BOND
     1    1    2 1
     2    1   30 1
     3    1   31 1
     4    1   32 1
     5    2    8 1
     6    2    3 1
     7    2   29 1
     8    3    4 1
     9    3    5 1
    10    3   25 1
    11    5    6 1
    12    5    9 1
    13    6    7 1
    14    6   33 1
    15    6   34 1
    16    7    8 1
    17    7   35 1
    18    7   36 1
    19    9   10 2
    20    9   11 2
    21    9   12 1
    22   12   17 ar
    23   12   13 ar
    24   13   14 ar
    25   13   37 1
    26   14   15 ar
    27   14   38 1
    28   15   16 ar
    29   15   18 1
    30   16   17 ar
    31   16   39 1
    32   17   40 1
    33   18   19 1
    34   19   24 ar
    35   19   20 ar
    36   20   21 ar
    37   20   41 1
    38   21   22 ar
    39   21   42 1
    40   22   23 ar
    41   23   24 ar
    42   23   43 1
    43   24   44 1
    44   25   26 2
    45   25   27 am
    46   27   28 1
    47   27   45 1
    48   28   46 1
    49   29   47 1
    50   29   48 1
    51   29   49 1
@<TRIPOS>MOLECULE
ZINC00580328
   50    52     0     0     0
SMALL
USER_CHARGES

@<TRIPOS>ATOM
      1 C1         -0.0029    1.3711   -0.0350 C.3       1 <0>        -0.1559
      2 C2          0.0599   -0.1492    0.1253 C.3       1 <0>        -0.0229
      3 C3         -1.3580   -0.7082    0.2895 C.3       1 <0>         0.1575
      4 H1         -1.3146   -1.7952    0.3563 H         1 <0>         0.1190
      5 N1         -1.9569   -0.1678    1.5108 N.pl3     1 <0>        -0.9895
      6 C4         -1.4145   -0.5101    2.8265 C.3       1 <0>         0.1158
      7 C5         -0.0034    0.0725    2.9646 C.3       1 <0>        -0.1109
      8 S1          1.0250   -0.5670    1.6084 S.3       1 <0>        -0.2176
      9 S2         -3.2637    0.8436    1.4027 S.o2      1 <0>         2.6595
     10 O1         -3.2544    1.6460    2.5755 O.2       1 <0>        -0.9343
     11 O2         -3.2374    1.4031    0.0968 O.2       1 <0>        -0.9002
     12 C6         -4.7087   -0.1609    1.4913 C.ar      1 <0>        -0.6647
     13 C7         -5.3754   -0.5145    0.3327 C.ar      1 <0>        -0.0213
     14 C8         -6.5084   -1.3019    0.3993 C.ar      1 <0>        -0.1296
     15 C9         -6.9773   -1.7380    1.6303 C.ar      1 <0>         0.0976
     16 C10        -6.3064   -1.3817    2.7914 C.ar      1 <0>        -0.1433
     17 C11        -5.1706   -0.5988    2.7188 C.ar      1 <0>         0.0014
     18 O3         -8.0919   -2.5123    1.6986 O.3       1 <0>        -0.2172
     19 C12        -9.2474   -1.9310    2.1098 C.ar      1 <0>         0.2458
     20 C13       -10.3960   -2.6917    2.3154 C.ar      1 <0>        -0.1546
     21 C14       -11.5508   -2.0633    2.7336 C.ar      1 <0>         0.1685
     22 N2        -11.5753   -0.7598    2.9382 N.ar      1 <0>        -0.4682
     23 C15       -10.5083   -0.0055    2.7539 C.ar      1 <0>         0.1749
     24 C16        -9.3135   -0.5593    2.3425 C.ar      1 <0>        -0.2149
     25 C17        -2.1953   -0.3110   -0.8989 C.2       1 <0>         0.5084
     26 O4         -1.8928    0.6627   -1.5556 O.2       1 <0>        -0.4349
     27 N3         -3.2804   -1.0378   -1.2319 N.am      1 <0>        -0.6093
     28 O5         -4.0671   -0.6646   -2.3485 O.3       1 <0>        -0.2988
     29 C18         0.7201   -0.7686   -1.1082 C.3       1 <0>        -0.1360
     30 H2          0.9974    1.7898    0.0758 H         1 <0>         0.0714
     31 H3         -0.3921    1.6165   -1.0231 H         1 <0>         0.1118
     32 H4         -0.6587    1.7901    0.7282 H         1 <0>         0.0405
     33 H5         -2.0566   -0.0950    3.6034 H         1 <0>         0.1071
     34 H6         -1.3719   -1.5942    2.9312 H         1 <0>         0.0981
     35 H7         -0.0494    1.1600    2.9073 H         1 <0>         0.0952
     36 H8          0.4245   -0.2280    3.9210 H         1 <0>         0.1270
     37 H9         -5.0102   -0.1745   -0.6251 H         1 <0>         0.1791
     38 H10        -7.0290   -1.5776   -0.5059 H         1 <0>         0.1529
     39 H11        -6.6695   -1.7195    3.7507 H         1 <0>         0.1492
     40 H12        -4.6455   -0.3248    3.6219 H         1 <0>         0.1552
     41 H13       -10.3827   -3.7588    2.1494 H         1 <0>         0.1957
     42 H14       -12.4461   -2.6453    2.8951 H         1 <0>         0.2201
     43 H15       -10.5700    1.0580    2.9318 H         1 <0>         0.2154
     44 H16        -8.4426    0.0630    2.1984 H         1 <0>         0.1847
     45 H17        -3.5223   -1.8166   -0.7066 H         1 <0>         0.4019
     46 H18        -4.8235   -1.2455   -2.5085 H         1 <0>         0.3840
     47 H19         1.7303   -0.3739   -1.2164 H         1 <0>         0.0804
     48 H20         0.7637   -1.8515   -0.9917 H         1 <0>         0.0684
     49 H21         0.1366   -0.5218   -1.9951 H         1 <0>         0.0819
     50 H22       -12.4011   -0.3444    3.2320 H         1 <0>         0.4557
@<TRIPOS>BOND
     1    1    2 1
     2    1   30 1
     3    1   31 1
     4    1   32 1
     5    2    8 1
     6    2    3 1
     7    2   29 1
     8    3    4 1
     9    3    5 1
    10    3   25 1
    11    5    6 1
    12    5    9 1
    13    6    7 1
    14    6   33 1
    15    6   34 1
    16    7    8 1
    17    7   35 1
    18    7   36 1
    19    9   10 2
    20    9   11 2
    21    9   12 1
    22   12   17 ar
    23   12   13 ar
    24   13   14 ar
    25   13   37 1
    26   14   15 ar
    27   14   38 1
    28   15   16 ar
    29   15   18 1
    30   16   17 ar
    31   16   39 1
    32   17   40 1
    33   18   19 1
    34   19   24 ar
    35   19   20 ar
    36   20   21 ar
    37   20   41 1
    38   21   22 ar
    39   21   42 1
    40   22   23 ar
    41   22   50 1
    42   23   24 ar
    43   23   43 1
    44   24   44 1
    45   25   26 2
    46   25   27 am
    47   27   28 1
    48   27   45 1
    49   28   46 1
    50   29   47 1
    51   29   48 1
    52   29   49 1
