@<TRIPOS>MOLECULE
ZINC01544157
   52    51     0     0     0
SMALL
USER_CHARGES
(2R)-N-[(1S)-2,2-dimethyl-1-(methylcarbamoyl)propyl]-2-[(1S)-1-hydroxy-2-(hydroxyamino)-2-oxo-ethyl]-4-methyl-pentanamide
@<TRIPOS>ATOM
      1 C1          3.0091    4.5674    0.8752 C.3       1 <0>        -0.1725
      2 C2          2.8370    3.3040    1.7207 C.3       1 <0>        -0.1114
      3 C3          3.7850    3.3601    2.9204 C.3       1 <0>        -0.1515
      4 C4          1.3922    3.2147    2.2162 C.3       1 <0>        -0.1277
      5 C5          0.4588    2.9800    1.0268 C.3       1 <0>        -0.1436
      6 H1         -0.5517    2.7917    1.3896 H         1 <0>         0.1129
      7 C6          0.9468    1.7708    0.2264 C.3       1 <0>         0.1266
      8 H2          1.9895    1.9182   -0.0550 H         1 <0>         0.1368
      9 C7          0.8250    0.5278    1.0698 C.2       1 <0>         0.4947
     10 O1         -0.0196   -0.3023    0.8080 O.2       1 <0>        -0.5059
     11 N1          1.6547    0.3386    2.1149 N.am      1 <0>        -0.5951
     12 O2          1.6054   -0.8719    2.8479 O.3       1 <0>        -0.3178
     13 O3          0.1511    1.6269   -0.9518 O.3       1 <0>        -0.5050
     14 C8          0.4558    4.2000    0.1421 C.2       1 <0>         0.5376
     15 O4          0.7344    4.0970   -1.0337 O.2       1 <0>        -0.5056
     16 N2          0.1435    5.4054    0.6577 N.am      1 <0>        -0.7140
     17 C9          0.0346    6.5722   -0.2215 C.3       1 <0>         0.1387
     18 H3          0.7694    6.4932   -1.0227 H         1 <0>         0.1119
     19 C10         0.2914    7.8262    0.5738 C.2       1 <0>         0.5166
     20 O5          0.1388    7.8231    1.7769 O.2       1 <0>        -0.5316
     21 N3          0.6907    8.9512   -0.0520 N.am      1 <0>        -0.7302
     22 C11         1.0400   10.1397    0.7300 C.3       1 <0>         0.0849
     23 C12        -1.3712    6.6284   -0.8226 C.3       1 <0>        -0.0724
     24 C13        -2.3961    6.8315    0.2951 C.3       1 <0>        -0.1441
     25 C14        -1.4571    7.7931   -1.8111 C.3       1 <0>        -0.1546
     26 C15        -1.6664    5.3168   -1.5531 C.3       1 <0>        -0.1327
     27 H4          2.5718    5.4175    1.3989 H         1 <0>         0.0600
     28 H5          4.0704    4.7508    0.7077 H         1 <0>         0.0593
     29 H6          2.5076    4.4342   -0.0834 H         1 <0>         0.0774
     30 H7          3.0684    2.4275    1.1155 H         1 <0>         0.0727
     31 H8          3.6624    2.4600    3.5228 H         1 <0>         0.0526
     32 H9          4.8143    3.4237    2.5674 H         1 <0>         0.0633
     33 H10         3.5536    4.2366    3.5256 H         1 <0>         0.0627
     34 H11         1.1203    4.1460    2.7131 H         1 <0>         0.0885
     35 H12         1.2997    2.3871    2.9195 H         1 <0>         0.0814
     36 H13         2.2857    1.0316    2.3649 H         1 <0>         0.4083
     37 H14         2.2374   -0.9154    3.5784 H         1 <0>         0.3884
     38 H15        -0.7903    1.4920   -0.7766 H         1 <0>         0.3809
     39 H16        -0.0092    5.5005    1.6109 H         1 <0>         0.4088
     40 H17         0.7467    8.9738   -1.0201 H         1 <0>         0.4052
     41 H18         0.1766   10.4562    1.3153 H         1 <0>         0.0629
     42 H19         1.8665    9.9037    1.4002 H         1 <0>         0.0614
     43 H20         1.3367   10.9436    0.0563 H         1 <0>         0.0787
     44 H21        -2.1858    7.7659    0.8155 H         1 <0>         0.0563
     45 H22        -3.3976    6.8716   -0.1331 H         1 <0>         0.0602
     46 H23        -2.3349    6.0018    0.9993 H         1 <0>         0.0579
     47 H24        -0.7527    7.6300   -2.6268 H         1 <0>         0.0633
     48 H25        -2.4688    7.8559   -2.2117 H         1 <0>         0.0678
     49 H26        -1.2108    8.7232   -1.2989 H         1 <0>         0.0593
     50 H27        -1.6053    4.4871   -0.8489 H         1 <0>         0.0527
     51 H28        -2.6680    5.3569   -1.9813 H         1 <0>         0.0548
     52 H29        -0.9363    5.1721   -2.3494 H         1 <0>         0.0702
@<TRIPOS>BOND
     1    1    2 1
     2    1   27 1
     3    1   28 1
     4    1   29 1
     5    2    3 1
     6    2    4 1
     7    2   30 1
     8    3   31 1
     9    3   32 1
    10    3   33 1
    11    4    5 1
    12    4   34 1
    13    4   35 1
    14    5    6 1
    15    5    7 1
    16    5   14 1
    17    7    8 1
    18    7    9 1
    19    7   13 1
    20    9   10 2
    21    9   11 am
    22   11   12 1
    23   11   36 1
    24   12   37 1
    25   13   38 1
    26   14   15 2
    27   14   16 am
    28   16   17 1
    29   16   39 1
    30   17   18 1
    31   17   19 1
    32   17   23 1
    33   19   20 2
    34   19   21 am
    35   21   22 1
    36   21   40 1
    37   22   41 1
    38   22   42 1
    39   22   43 1
    40   23   24 1
    41   23   25 1
    42   23   26 1
    43   24   44 1
    44   24   45 1
    45   24   46 1
    46   25   47 1
    47   25   48 1
    48   25   49 1
    49   26   50 1
    50   26   51 1
    51   26   52 1
@<TRIPOS>MOLECULE
ZINC27079413
   52    51     0     0     0
SMALL
USER_CHARGES
(2R)-N-[(1R)-2,2-dimethyl-1-(methylcarbamoyl)propyl]-2-[(1S)-1-hydroxy-2-(hydroxyamino)-2-oxo-ethyl]-4-methyl-pentanamide
@<TRIPOS>ATOM
      1 C1          2.3780   -0.2951   -1.3458 C.3       1 <0>        -0.1494
      2 C2          1.1159   -1.1242   -1.5916 C.3       1 <0>        -0.1207
      3 C3          1.1613   -1.7164   -3.0016 C.3       1 <0>        -0.1713
      4 C4          1.0413   -2.2563   -0.5651 C.3       1 <0>        -0.1281
      5 C5         -0.3905   -2.7914   -0.4990 C.3       1 <0>        -0.0961
      6 H1         -0.5487   -3.3198    0.4527 H         1 <0>         0.1133
      7 C6         -0.6330   -3.7454   -1.6703 C.3       1 <0>         0.1246
      8 H2         -0.4451   -3.2573   -2.6380 H         1 <0>         0.1008
      9 C7          0.2421   -4.9626   -1.5162 C.2       1 <0>         0.4890
     10 O1         -0.2224   -5.9911   -1.0719 O.2       1 <0>        -0.5099
     11 N1          1.5408   -4.9083   -1.8721 N.am      1 <0>        -0.5972
     12 O2          2.3876   -6.0177   -1.6327 O.3       1 <0>        -0.3525
     13 O3         -2.0053   -4.1439   -1.6838 O.3       1 <0>        -0.5474
     14 C8         -1.3608   -1.6411   -0.5789 C.2       1 <0>         0.5327
     15 O4         -2.2680   -1.6677   -1.3835 O.2       1 <0>        -0.5096
     16 N2         -1.2206   -0.5827    0.2437 N.am      1 <0>        -0.7291
     17 C9         -2.2380    0.4712    0.2614 C.3       1 <0>         0.1408
     18 H3         -3.1982    0.0098   -0.0129 H         1 <0>         0.1105
     19 C10        -2.3304    1.0570    1.6468 C.2       1 <0>         0.5168
     20 O5         -1.4133    0.9150    2.4276 O.2       1 <0>        -0.5378
     21 N3         -3.4322    1.7386    2.0181 N.am      1 <0>        -0.7413
     22 C11        -3.4700    2.4196    3.3147 C.3       1 <0>         0.0866
     23 C12        -1.8523    1.5691   -0.7319 C.3       1 <0>        -0.0667
     24 C13        -0.4271    2.0432   -0.4400 C.3       1 <0>        -0.1495
     25 C14        -1.9241    1.0162   -2.1567 C.3       1 <0>        -0.1371
     26 C15        -2.8198    2.7461   -0.5923 C.3       1 <0>        -0.1570
     27 H4          2.3453    0.1307   -0.3321 H         1 <0>         0.0597
     28 H5          2.4315    0.5188   -2.0838 H         1 <0>         0.0593
     29 H6          3.2645   -0.9387   -1.4448 H         1 <0>         0.0566
     30 H7          0.2294   -0.4805   -1.4926 H         1 <0>         0.0958
     31 H8          0.2539   -2.3125   -3.1783 H         1 <0>         0.0712
     32 H9          2.0479   -2.3600   -3.1006 H         1 <0>         0.0524
     33 H10         1.2148   -0.9024   -3.7396 H         1 <0>         0.0686
     34 H11         1.7223   -3.0671   -0.8633 H         1 <0>         0.0831
     35 H12         1.3361   -1.8748    0.4236 H         1 <0>         0.0875
     36 H13         1.9430   -4.0021   -2.3486 H         1 <0>         0.4194
     37 H14         3.4476   -5.9733   -1.9232 H         1 <0>         0.4177
     38 H15        -2.3702   -4.8334   -2.4593 H         1 <0>         0.4149
     39 H16        -0.3422   -0.5103    0.9018 H         1 <0>         0.4297
     40 H17        -4.3031    1.7836    1.3476 H         1 <0>         0.4261
     41 H18        -4.4430    2.9173    3.4392 H         1 <0>         0.0776
     42 H19        -2.6663    3.1694    3.3586 H         1 <0>         0.0589
     43 H20        -3.3291    1.6834    4.1198 H         1 <0>         0.0598
     44 H21        -0.1498    2.8326   -1.1542 H         1 <0>         0.0583
     45 H22         0.2686    1.1970   -0.5403 H         1 <0>         0.0651
     46 H23        -0.3755    2.4408    0.5843 H         1 <0>         0.0567
     47 H24        -1.6468    1.8057   -2.8707 H         1 <0>         0.0527
     48 H25        -2.9487    0.6754   -2.3665 H         1 <0>         0.0623
     49 H26        -1.2284    0.1701   -2.2571 H         1 <0>         0.0631
     50 H27        -2.5424    3.5354   -1.3065 H         1 <0>         0.0644
     51 H28        -2.7681    3.1437    0.4320 H         1 <0>         0.0650
     52 H29        -3.8444    2.4053   -0.8021 H         1 <0>         0.0600
@<TRIPOS>BOND
     1    1    2 1
     2    1   27 1
     3    1   28 1
     4    1   29 1
     5    2    3 1
     6    2    4 1
     7    2   30 1
     8    3   31 1
     9    3   32 1
    10    3   33 1
    11    4    5 1
    12    4   34 1
    13    4   35 1
    14    5    6 1
    15    5    7 1
    16    5   14 1
    17    7    8 1
    18    7    9 1
    19    7   13 1
    20    9   10 2
    21    9   11 am
    22   11   12 1
    23   11   36 1
    24   12   37 1
    25   13   38 1
    26   14   15 2
    27   14   16 am
    28   16   17 1
    29   16   39 1
    30   17   18 1
    31   17   19 1
    32   17   23 1
    33   19   20 2
    34   19   21 am
    35   21   22 1
    36   21   40 1
    37   22   41 1
    38   22   42 1
    39   22   43 1
    40   23   24 1
    41   23   25 1
    42   23   26 1
    43   24   44 1
    44   24   45 1
    45   24   46 1
    46   25   47 1
    47   25   48 1
    48   25   49 1
    49   26   50 1
    50   26   51 1
    51   26   52 1
@<TRIPOS>MOLECULE
ZINC03924338
   84    86     0     0     0
SMALL
USER_CHARGES
N-[2,2-dimethyl-1-(1-phenylethylcarbamoyl)propyl]-2-(hydroxycarbamoylmethyl)-5-(3-methyl-4-phenyl-phenyl)-pentanamide
@<TRIPOS>ATOM
      1 C1         -7.5706    2.3330   -5.1220 C.3       1 <0>        -0.1160
      2 C2         -6.6629    3.0383   -4.1475 C.ar      1 <0>        -0.0684
      3 C3         -6.3363    2.4383   -2.9480 C.ar      1 <0>        -0.1175
      4 C4         -5.5042    3.0850   -2.0524 C.ar      1 <0>        -0.0693
      5 C5         -4.9984    4.3376   -2.3508 C.ar      1 <0>        -0.1193
      6 C6         -5.3137    4.9442   -3.5495 C.ar      1 <0>        -0.0997
      7 C7         -6.1521    4.2974   -4.4554 C.ar      1 <0>        -0.0596
      8 C8         -6.5000    4.9476   -5.7432 C.ar      1 <0>        -0.0408
      9 C9         -5.4924    5.3660   -6.6099 C.ar      1 <0>        -0.1081
     10 C10        -5.8218    5.9658   -7.8085 C.ar      1 <0>        -0.1190
     11 C11        -7.1490    6.1615   -8.1452 C.ar      1 <0>        -0.1204
     12 C12        -8.1532    5.7528   -7.2862 C.ar      1 <0>        -0.1195
     13 C13        -7.8353    5.1471   -6.0874 C.ar      1 <0>        -0.1058
     14 C14        -5.1521    2.4253   -0.7440 C.3       1 <0>        -0.0781
     15 C15        -3.8860    1.5847   -0.9211 C.3       1 <0>        -0.1134
     16 C16        -3.5285    0.9150    0.4072 C.3       1 <0>        -0.1019
     17 C17        -2.1991    0.1717    0.2621 C.3       1 <0>        -0.0904
     18 H1         -2.2512   -0.5024   -0.5929 H         1 <0>         0.1120
     19 C18        -1.9251   -0.6360    1.5324 C.3       1 <0>        -0.1235
     20 C19        -2.9523   -1.7309    1.6629 C.2       1 <0>         0.5262
     21 O1         -3.7422   -1.9315    0.7647 O.2       1 <0>        -0.5091
     22 N1         -2.9932   -2.4872    2.7777 N.am      1 <0>        -0.5975
     23 O2         -3.9584   -3.5160    2.9003 O.3       1 <0>        -0.3169
     24 C20        -1.0876    1.1670    0.0501 C.2       1 <0>         0.5234
     25 O3         -1.3345    2.3540    0.0183 O.2       1 <0>        -0.5164
     26 N2          0.1807    0.7381   -0.1040 N.am      1 <0>        -0.7143
     27 C21         1.2604    1.7054   -0.3161 C.3       1 <0>         0.1381
     28 H2          0.8875    2.5425   -0.9063 H         1 <0>         0.1088
     29 C22         2.3949    1.0388   -1.0507 C.2       1 <0>         0.5198
     30 O4          2.5547   -0.1600   -0.9600 O.2       1 <0>        -0.5300
     31 N3          3.2320    1.7748   -1.8083 N.am      1 <0>        -0.7198
     32 C23         4.2665    1.1154   -2.6090 C.3       1 <0>         0.1851
     33 H3          3.8871    0.1631   -2.9796 H         1 <0>         0.0971
     34 C24         5.5029    0.8692   -1.7421 C.3       1 <0>        -0.1582
     35 C25         4.6373    1.9961   -3.7743 C.ar      1 <0>        -0.0954
     36 C26         4.7396    3.3639   -3.6019 C.ar      1 <0>        -0.1154
     37 C27         5.0840    4.1713   -4.6697 C.ar      1 <0>        -0.1145
     38 C28         5.3172    3.6119   -5.9122 C.ar      1 <0>        -0.1169
     39 C29         5.2098    2.2447   -6.0858 C.ar      1 <0>        -0.1141
     40 C30         4.8696    1.4369   -5.0169 C.ar      1 <0>        -0.1069
     41 C31         1.7595    2.2173    1.0366 C.3       1 <0>        -0.0702
     42 C32         2.3545    1.0549    1.8338 C.3       1 <0>        -0.1434
     43 C33         2.8326    3.2848    0.8134 C.3       1 <0>        -0.1531
     44 C34         0.5905    2.8242    1.8151 C.3       1 <0>        -0.1316
     45 H4         -8.5953    2.6748   -4.9768 H         1 <0>         0.0703
     46 H5         -7.2539    2.5565   -6.1407 H         1 <0>         0.0683
     47 H6         -7.5190    1.2573   -4.9533 H         1 <0>         0.0654
     48 H7         -6.7317    1.4623   -2.7083 H         1 <0>         0.1226
     49 H8         -4.3526    4.8400   -1.6459 H         1 <0>         0.1231
     50 H9         -4.9150    5.9203   -3.7832 H         1 <0>         0.1213
     51 H10        -4.4557    5.2174   -6.3461 H         1 <0>         0.1219
     52 H11        -5.0416    6.2868   -8.4829 H         1 <0>         0.1230
     53 H12        -7.4022    6.6347   -9.0824 H         1 <0>         0.1218
     54 H13        -9.1879    5.9083   -7.5538 H         1 <0>         0.1232
     55 H14        -8.6202    4.8281   -5.4176 H         1 <0>         0.1224
     56 H15        -5.9738    1.7825   -0.4285 H         1 <0>         0.0694
     57 H16        -4.9776    3.1899    0.0130 H         1 <0>         0.0723
     58 H17        -3.0643    2.2275   -1.2367 H         1 <0>         0.0791
     59 H18        -4.0605    0.8201   -1.6781 H         1 <0>         0.0585
     60 H19        -4.3121    0.2081    0.6802 H         1 <0>         0.0809
     61 H20        -3.4374    1.6742    1.1840 H         1 <0>         0.0701
     62 H21        -0.9297   -1.0765    1.4752 H         1 <0>         0.1048
     63 H22        -1.9822    0.0212    2.4001 H         1 <0>         0.1057
     64 H23        -2.3614   -2.3267    3.4961 H         1 <0>         0.4084
     65 H24        -3.9098   -4.0036    3.7340 H         1 <0>         0.3888
     66 H25         0.3782   -0.2112   -0.0785 H         1 <0>         0.4089
     67 H26         3.1495    2.7412   -1.8234 H         1 <0>         0.4020
     68 H27         5.8822    1.8215   -1.3715 H         1 <0>         0.0597
     69 H28         5.2347    0.2322   -0.8993 H         1 <0>         0.0670
     70 H29         6.2725    0.3786   -2.3379 H         1 <0>         0.0690
     71 H30         4.5537    3.8013   -2.6321 H         1 <0>         0.1194
     72 H31         5.1682    5.2394   -4.5340 H         1 <0>         0.1248
     73 H32         5.5837    4.2430   -6.7471 H         1 <0>         0.1240
     74 H33         5.3920    1.8077   -7.0565 H         1 <0>         0.1254
     75 H34         4.7857    0.3687   -5.1526 H         1 <0>         0.1247
     76 H35         3.1873    0.6225    1.2792 H         1 <0>         0.0586
     77 H36         2.7101    1.4196    2.7975 H         1 <0>         0.0589
     78 H37         1.5900    0.2944    1.9928 H         1 <0>         0.0573
     79 H38         2.4380    4.0667    0.1647 H         1 <0>         0.0605
     80 H39         3.1190    3.7180    1.7718 H         1 <0>         0.0677
     81 H40         3.7055    2.8301    0.3449 H         1 <0>         0.0592
     82 H41        -0.1740    2.0637    1.9740 H         1 <0>         0.0543
     83 H42         0.9461    3.1889    2.7787 H         1 <0>         0.0525
     84 H43         0.1667    3.6523    1.2471 H         1 <0>         0.0688
@<TRIPOS>BOND
     1    1    2 1
     2    1   45 1
     3    1   46 1
     4    1   47 1
     5    2    7 ar
     6    2    3 ar
     7    3    4 ar
     8    3   48 1
     9    4    5 ar
    10    4   14 1
    11    5    6 ar
    12    5   49 1
    13    6    7 ar
    14    6   50 1
    15    7    8 1
    16    8   13 ar
    17    8    9 ar
    18    9   10 ar
    19    9   51 1
    20   10   11 ar
    21   10   52 1
    22   11   12 ar
    23   11   53 1
    24   12   13 ar
    25   12   54 1
    26   13   55 1
    27   14   15 1
    28   14   56 1
    29   14   57 1
    30   15   16 1
    31   15   58 1
    32   15   59 1
    33   16   17 1
    34   16   60 1
    35   16   61 1
    36   17   18 1
    37   17   19 1
    38   17   24 1
    39   19   20 1
    40   19   62 1
    41   19   63 1
    42   20   21 2
    43   20   22 am
    44   22   23 1
    45   22   64 1
    46   23   65 1
    47   24   25 2
    48   24   26 am
    49   26   27 1
    50   26   66 1
    51   27   28 1
    52   27   29 1
    53   27   41 1
    54   29   30 2
    55   29   31 am
    56   31   32 1
    57   31   67 1
    58   32   33 1
    59   32   34 1
    60   32   35 1
    61   34   68 1
    62   34   69 1
    63   34   70 1
    64   35   40 ar
    65   35   36 ar
    66   36   37 ar
    67   36   71 1
    68   37   38 ar
    69   37   72 1
    70   38   39 ar
    71   38   73 1
    72   39   40 ar
    73   39   74 1
    74   40   75 1
    75   41   42 1
    76   41   43 1
    77   41   44 1
    78   42   76 1
    79   42   77 1
    80   42   78 1
    81   43   79 1
    82   43   80 1
    83   43   81 1
    84   44   82 1
    85   44   83 1
    86   44   84 1
@<TRIPOS>MOLECULE
ZINC05052128
   25    25     0     0     0
SMALL
USER_CHARGES

@<TRIPOS>ATOM
      1 C1         -2.1938    1.4701    0.6085 C.3       1 <0>        -0.1737
      2 C2         -2.1691   -0.0367    0.6077 C.2       1 <0>         0.5115
      3 O1         -3.0611   -0.6581    1.1455 O.2       1 <0>        -0.5173
      4 N1         -1.1558   -0.6938    0.0094 N.am      1 <0>        -0.6795
      5 C3         -1.0812   -2.0886    0.0915 C.ar      1 <0>         0.2024
      6 C4          0.1549   -2.7155    0.1777 C.ar      1 <0>        -0.1684
      7 C5          0.2252   -4.0924    0.2586 C.ar      1 <0>        -0.0006
      8 C6         -0.9337   -4.8468    0.2538 C.ar      1 <0>        -0.6919
      9 C7         -2.1662   -4.2257    0.1675 C.ar      1 <0>         0.0087
     10 C8         -2.2435   -2.8487    0.0926 C.ar      1 <0>        -0.1452
     11 S1         -0.8398   -6.6033    0.3571 S.o2      1 <0>         2.7219
     12 O2         -2.0382   -7.1084   -0.2156 O.2       1 <0>        -0.9390
     13 O3          0.4469   -6.9700   -0.1215 O.2       1 <0>        -0.9395
     14 N2         -0.8785   -7.0020    1.9639 N.pl3     1 <0>        -0.9897
     15 O4         -2.0366   -6.7320    2.7327 O.3       1 <0>        -0.2975
     16 H1         -3.0822    1.8186    1.1352 H         1 <0>         0.1000
     17 H2         -1.3026    1.8478    1.1098 H         1 <0>         0.0944
     18 H3         -2.2144    1.8337   -0.4188 H         1 <0>         0.0947
     19 H4         -0.4782   -0.1997   -0.4782 H         1 <0>         0.4169
     20 H5          1.0605   -2.1269    0.1812 H         1 <0>         0.1376
     21 H6          1.1863   -4.5806    0.3253 H         1 <0>         0.1455
     22 H7         -3.0695   -4.8176    0.1637 H         1 <0>         0.1464
     23 H8         -3.2065   -2.3639    0.0305 H         1 <0>         0.1495
     24 H9         -0.1078   -7.4204    2.3785 H         1 <0>         0.4176
     25 H10        -1.9649   -6.9998    3.6591 H         1 <0>         0.3954
@<TRIPOS>BOND
     1    1    2 1
     2    1   16 1
     3    1   17 1
     4    1   18 1
     5    2    3 2
     6    2    4 am
     7    4    5 1
     8    4   19 1
     9    5   10 ar
    10    5    6 ar
    11    6    7 ar
    12    6   20 1
    13    7    8 ar
    14    7   21 1
    15    8    9 ar
    16    8   11 1
    17    9   10 ar
    18    9   22 1
    19   10   23 1
    20   11   12 2
    21   11   13 2
    22   11   14 1
    23   14   15 1
    24   14   24 1
    25   15   25 1
@<TRIPOS>MOLECULE
ZINC03917708
   68    72     0     0     0
SMALL
USER_CHARGES
(7S,9S)-9-acetyl-7-[(2R,4S,5S,6S)-4-amino-5-hydroxy-6-methyl-tetrahydropyran-2-yl]oxy-6,9,11-trihydroxy-4-methoxy-8,10-dihydro-7H-tetracene-5,12-dione
@<TRIPOS>ATOM
      1 C1          0.5068    0.1108    7.2486 C.3       1 <0>        -0.1580
      2 C2          0.1820   -0.2855    5.8069 C.3       1 <0>         0.0593
      3 H1          1.1051   -0.3501    5.2309 H         1 <0>         0.0886
      4 C3         -0.5219   -1.6450    5.7974 C.3       1 <0>         0.0554
      5 H2          0.1475   -2.4046    6.2011 H         1 <0>         0.0933
      6 C4         -0.8974   -2.0068    4.3571 C.3       1 <0>         0.0406
      7 H3          0.0074   -2.1093    3.7579 H         1 <0>         0.1612
      8 C5         -1.7743   -0.8940    3.7749 C.3       1 <0>        -0.1575
      9 C6         -1.0220    0.4365    3.8625 C.3       1 <0>         0.2507
     10 H4         -1.6579    1.2389    3.4886 H         1 <0>         0.1277
     11 O1         -0.6758    0.6977    5.2241 O.3       1 <0>        -0.3644
     12 O2          0.1674    0.3642    3.0738 O.3       1 <0>        -0.3835
     13 C7          0.7904    1.6297    2.8442 C.3       1 <0>         0.1536
     14 H5          0.0421    2.4182    2.9246 H         1 <0>         0.0868
     15 C8          1.8741    1.8552    3.8961 C.3       1 <0>        -0.1224
     16 C9          2.6697    3.1070    3.5074 C.3       1 <0>         0.0962
     17 C10         3.4894    2.7870    2.2595 C.3       1 <0>        -0.1007
     18 C11         2.6158    2.1852    1.1889 C.ar      1 <0>        -0.0372
     19 C12         1.3806    1.6513    1.4576 C.ar      1 <0>        -0.0832
     20 C13         0.6184    1.0900    0.4246 C.ar      1 <0>         0.1748
     21 C14         1.0959    1.0825   -0.8842 C.ar      1 <0>        -0.1393
     22 C15         2.3601    1.6401   -1.1623 C.ar      1 <0>        -0.1262
     23 C16         3.1101    2.1862   -0.1221 C.ar      1 <0>         0.1585
     24 O3          4.3281    2.7233   -0.3812 O.3       1 <0>        -0.4705
     25 C17         2.8787    1.6410   -2.5409 C.2       1 <0>         0.4335
     26 O4          3.9688    2.1228   -2.7815 O.2       1 <0>        -0.4027
     27 C18         2.0712    1.0550   -3.6311 C.ar      1 <0>        -0.0823
     28 C19         2.5523    1.0509   -4.9363 C.ar      1 <0>        -0.1038
     29 C20         1.7910    0.5011   -5.9546 C.ar      1 <0>        -0.0521
     30 C21         0.5526   -0.0464   -5.6876 C.ar      1 <0>        -0.1900
     31 C22         0.0520   -0.0533   -4.3894 C.ar      1 <0>         0.1799
     32 C23         0.8095    0.4981   -3.3514 C.ar      1 <0>        -0.1651
     33 C24         0.2913    0.4978   -1.9714 C.2       1 <0>         0.4376
     34 O5         -0.7991    0.0159   -1.7305 O.2       1 <0>        -0.4063
     35 O6         -1.1650   -0.5929   -4.1318 O.3       1 <0>        -0.2855
     36 C25        -1.8813   -1.1375   -5.2419 C.3       1 <0>         0.0181
     37 O7         -0.5969    0.5546    0.7000 O.3       1 <0>        -0.4652
     38 C26         1.7213    4.2410    3.2149 C.2       1 <0>         0.3230
     39 O8          1.3723    4.4587    2.0795 O.2       1 <0>        -0.4292
     40 C27         1.2083    5.1033    4.3394 C.3       1 <0>        -0.1965
     41 O9          3.5438    3.4741    4.5766 O.3       1 <0>        -0.5332
     42 O10        -1.7048   -1.5759    6.5963 O.3       1 <0>        -0.5648
     43 H6          1.1603   -0.6397    7.6933 H         1 <0>         0.0807
     44 H7          1.0079    1.0788    7.2552 H         1 <0>         0.0836
     45 H8         -0.4165    0.1758    7.8243 H         1 <0>         0.0712
     46 H9         -2.7018   -0.8261    4.3433 H         1 <0>         0.1197
     47 H10        -2.0005   -1.1165    2.7321 H         1 <0>         0.1118
     48 H11         2.5395    0.9925    3.9288 H         1 <0>         0.0958
     49 H12         1.4131    2.0015    4.8729 H         1 <0>         0.0997
     50 H13         4.2777    2.0804    2.5190 H         1 <0>         0.1102
     51 H14         3.9400    3.7047    1.8815 H         1 <0>         0.0940
     52 H15         4.3046    3.6655   -0.5975 H         1 <0>         0.4017
     53 H16         3.5201    1.4770   -5.1559 H         1 <0>         0.1477
     54 H17         2.1696    0.5013   -6.9661 H         1 <0>         0.1447
     55 H18        -0.0310   -0.4717   -6.4906 H         1 <0>         0.1451
     56 H19        -1.2960   -1.9378   -5.6947 H         1 <0>         0.0608
     57 H20        -2.8362   -1.5354   -4.8983 H         1 <0>         0.1074
     58 H21        -2.0582   -0.3547   -5.9795 H         1 <0>         0.0618
     59 H22        -0.5820   -0.4016    0.8436 H         1 <0>         0.3888
     60 H23         1.5947    4.7862    5.2055 H         1 <0>         0.0820
     61 H24         1.5033    6.1384    4.1671 H         1 <0>         0.0984
     62 H25         0.1211    5.0375    4.3808 H         1 <0>         0.0949
     63 H26         4.0898    4.2500    4.3895 H         1 <0>         0.3905
     64 H27        -1.9051   -3.5300    3.4071 H         1 <0>         0.4392
     65 H28        -1.1063   -4.0097    4.7847 H         1 <0>         0.4381
     66 H29        -1.5413   -1.3506    7.5224 H         1 <0>         0.4084
     67 N1         -1.6602   -3.2675    4.3604 N.4       1 <0>        -0.6408
     68 H30        -2.5215   -3.1394    4.9044 H         1 <0>         0.4454
@<TRIPOS>BOND
     1    1    2 1
     2    1   43 1
     3    1   44 1
     4    1   45 1
     5    2    3 1
     6    2   11 1
     7    2    4 1
     8    4    5 1
     9    4    6 1
    10    4   42 1
    11    6    7 1
    12    6    8 1
    13    6   67 1
    14    8    9 1
    15    8   46 1
    16    8   47 1
    17    9   10 1
    18    9   11 1
    19    9   12 1
    20   12   13 1
    21   13   14 1
    22   13   19 1
    23   13   15 1
    24   15   16 1
    25   15   48 1
    26   15   49 1
    27   16   17 1
    28   16   38 1
    29   16   41 1
    30   17   18 1
    31   17   50 1
    32   17   51 1
    33   18   23 ar
    34   18   19 ar
    35   19   20 ar
    36   20   21 ar
    37   20   37 1
    38   21   33 1
    39   21   22 ar
    40   22   23 ar
    41   22   25 1
    42   23   24 1
    43   24   52 1
    44   25   26 2
    45   25   27 1
    46   27   32 ar
    47   27   28 ar
    48   28   29 ar
    49   28   53 1
    50   29   30 ar
    51   29   54 1
    52   30   31 ar
    53   30   55 1
    54   31   32 ar
    55   31   35 1
    56   32   33 1
    57   33   34 2
    58   35   36 1
    59   36   56 1
    60   36   57 1
    61   36   58 1
    62   37   59 1
    63   38   39 2
    64   38   40 1
    65   40   60 1
    66   40   61 1
    67   40   62 1
    68   41   63 1
    69   42   66 1
    70   64   67 1
    71   65   67 1
    72   67   68 1
@<TRIPOS>MOLECULE
ZINC03918087
   69    73     0     0     0
SMALL
USER_CHARGES
(7S,9S)-7-[(2R,4S,5S,6S)-4-amino-5-hydroxy-6-methyl-tetrahydropyran-2-yl]oxy-6,9,11-trihydroxy-9-(2-hydroxyacetyl)-4-methoxy-8,10-dihydro-7H-tetracene-5,12-dione
@<TRIPOS>ATOM
      1 C1          0.5150    0.0942    7.2444 C.3       1 <0>        -0.1580
      2 C2          0.1900   -0.3014    5.8026 C.3       1 <0>         0.0587
      3 H1          1.1127   -0.3614    5.2254 H         1 <0>         0.0888
      4 C3         -0.5085   -1.6636    5.7921 C.3       1 <0>         0.0555
      5 H2          0.1643   -2.4212    6.1939 H         1 <0>         0.0935
      6 C4         -0.8843   -2.0248    4.3517 C.3       1 <0>         0.0407
      7 H3          0.0209   -2.1235    3.7526 H         1 <0>         0.1613
      8 C5         -1.7663   -0.9147    3.7721 C.3       1 <0>        -0.1574
      9 C6         -1.0192    0.4186    3.8607 C.3       1 <0>         0.2505
     10 H4         -1.6586    1.2192    3.4888 H         1 <0>         0.1282
     11 O1         -0.6723    0.6792    5.2222 O.3       1 <0>        -0.3651
     12 O2          0.1696    0.3521    3.0704 O.3       1 <0>        -0.3828
     13 C7          0.7875    1.6202    2.8423 C.3       1 <0>         0.1526
     14 H5          0.0364    2.4057    2.9245 H         1 <0>         0.0878
     15 C8          1.8713    1.8482    3.8936 C.3       1 <0>        -0.1239
     16 C9          2.6612    3.1042    3.5067 C.3       1 <0>         0.1037
     17 C10         3.4811    2.7902    2.2574 C.3       1 <0>        -0.0998
     18 C11         2.6090    2.1869    1.1864 C.ar      1 <0>        -0.0396
     19 C12         1.3765    1.6468    1.4552 C.ar      1 <0>        -0.0831
     20 C13         0.6155    1.0847    0.4217 C.ar      1 <0>         0.1754
     21 C14         1.0919    1.0819   -0.8875 C.ar      1 <0>        -0.1384
     22 C15         2.3535    1.6455   -1.1656 C.ar      1 <0>        -0.1258
     23 C16         3.1021    2.1926   -0.1251 C.ar      1 <0>         0.1594
     24 O3          4.3175    2.7354   -0.3842 O.3       1 <0>        -0.4706
     25 C17         2.8707    1.6513   -2.5448 C.2       1 <0>         0.4337
     26 O4          3.9582    2.1389   -2.7855 O.2       1 <0>        -0.4026
     27 C18         2.0646    1.0643   -3.6354 C.ar      1 <0>        -0.0823
     28 C19         2.5444    1.0651   -4.9411 C.ar      1 <0>        -0.1037
     29 C20         1.7841    0.5148   -5.9600 C.ar      1 <0>        -0.0521
     30 C21         0.5481   -0.0381   -5.6929 C.ar      1 <0>        -0.1899
     31 C22         0.0493   -0.0508   -4.3941 C.ar      1 <0>         0.1799
     32 C23         0.8055    0.5015   -3.3556 C.ar      1 <0>        -0.1650
     33 C24         0.2887    0.4960   -1.9751 C.2       1 <0>         0.4376
     34 O5         -0.7994    0.0089   -1.7342 O.2       1 <0>        -0.4060
     35 O6         -1.1652   -0.5961   -4.1364 O.3       1 <0>        -0.2855
     36 C25        -1.8803   -1.1413   -5.2470 C.3       1 <0>         0.0181
     37 O7         -0.5973    0.5440    0.6972 O.3       1 <0>        -0.4647
     38 C26         1.7077    4.2347    3.2174 C.2       1 <0>         0.3173
     39 O8          1.3555    4.4523    2.0830 O.2       1 <0>        -0.3991
     40 C27         1.1935    5.0937    4.3439 C.3       1 <0>         0.0415
     41 O9          0.3120    6.0889    3.8199 O.3       1 <0>        -0.5563
     42 O10         3.5348    3.4728    4.5758 O.3       1 <0>        -0.5342
     43 O11        -1.6907   -1.6002    6.5925 O.3       1 <0>        -0.5647
     44 H6         -0.4077    0.1538    7.8216 H         1 <0>         0.0713
     45 H7          1.1728   -0.6538    7.6870 H         1 <0>         0.0811
     46 H8          1.0115    1.0646    7.2518 H         1 <0>         0.0831
     47 H9         -2.6934   -0.8513    4.3418 H         1 <0>         0.1199
     48 H10        -1.9930   -1.1367    2.7293 H         1 <0>         0.1121
     49 H11         2.5404    0.9883    3.9239 H         1 <0>         0.0986
     50 H12         1.4112    1.9903    4.8714 H         1 <0>         0.0994
     51 H13         4.2726    2.0865    2.5147 H         1 <0>         0.1131
     52 H14         3.9280    3.7102    1.8805 H         1 <0>         0.0957
     53 H15         4.2898    3.6779   -0.5986 H         1 <0>         0.4022
     54 H16         3.5102    1.4955   -5.1607 H         1 <0>         0.1477
     55 H17         2.1617    0.5187   -6.9718 H         1 <0>         0.1448
     56 H18        -0.0349   -0.4635   -6.4964 H         1 <0>         0.1451
     57 H19        -2.8331   -1.5440   -4.9033 H         1 <0>         0.1073
     58 H20        -2.0613   -0.3577   -5.9827 H         1 <0>         0.0618
     59 H21        -1.2921   -1.9382   -5.7021 H         1 <0>         0.0608
     60 H22        -0.5786   -0.4124    0.8386 H         1 <0>         0.3887
     61 H23         0.6995    4.5228    4.9997 H         1 <0>         0.0740
     62 H24         2.0325    5.5781    4.8435 H         1 <0>         0.0863
     63 H25        -0.0576    6.6794    4.4906 H         1 <0>         0.3912
     64 H26         4.0772    4.2515    4.3898 H         1 <0>         0.3917
     65 H27        -1.8810   -3.5544    3.4001 H         1 <0>         0.4393
     66 H28        -1.0879   -4.0276    4.7832 H         1 <0>         0.4381
     67 H29        -1.5275   -1.3709    7.5176 H         1 <0>         0.4083
     68 N1         -1.6423   -3.2885    4.3540 N.4       1 <0>        -0.6408
     69 H30        -2.5070   -3.1624    4.8930 H         1 <0>         0.4454
@<TRIPOS>BOND
     1    1    2 1
     2    1   44 1
     3    1   45 1
     4    1   46 1
     5    2    3 1
     6    2   11 1
     7    2    4 1
     8    4    5 1
     9    4    6 1
    10    4   43 1
    11    6    7 1
    12    6    8 1
    13    6   68 1
    14    8    9 1
    15    8   47 1
    16    8   48 1
    17    9   10 1
    18    9   11 1
    19    9   12 1
    20   12   13 1
    21   13   14 1
    22   13   19 1
    23   13   15 1
    24   15   16 1
    25   15   49 1
    26   15   50 1
    27   16   17 1
    28   16   38 1
    29   16   42 1
    30   17   18 1
    31   17   51 1
    32   17   52 1
    33   18   23 ar
    34   18   19 ar
    35   19   20 ar
    36   20   21 ar
    37   20   37 1
    38   21   33 1
    39   21   22 ar
    40   22   23 ar
    41   22   25 1
    42   23   24 1
    43   24   53 1
    44   25   26 2
    45   25   27 1
    46   27   32 ar
    47   27   28 ar
    48   28   29 ar
    49   28   54 1
    50   29   30 ar
    51   29   55 1
    52   30   31 ar
    53   30   56 1
    54   31   32 ar
    55   31   35 1
    56   32   33 1
    57   33   34 2
    58   35   36 1
    59   36   57 1
    60   36   58 1
    61   36   59 1
    62   37   60 1
    63   38   39 2
    64   38   40 1
    65   40   41 1
    66   40   61 1
    67   40   62 1
    68   41   63 1
    69   42   64 1
    70   43   67 1
    71   65   68 1
    72   66   68 1
    73   68   69 1
@<TRIPOS>MOLECULE
ZINC15449300
   69    73     0     0     0
SMALL
USER_CHARGES
(7S,9S)-7-[(2S,4S,5S,6S)-4-amino-5-hydroxy-6-methyl-tetrahydropyran-2-yl]oxy-6,9,11-trihydroxy-9-(2-hydroxyacetyl)-4-methoxy-8,10-dihydro-7H-tetracene-5,12-dione
@<TRIPOS>ATOM
      1 C1         -1.9293   -2.2582   -4.4934 C.3       1 <0>        -0.1592
      2 C2         -2.4406   -1.0478   -3.7095 C.3       1 <0>         0.0724
      3 H1         -1.9870   -0.1395   -4.1063 H         1 <0>         0.0790
      4 C3         -3.9630   -0.9587   -3.8436 C.3       1 <0>         0.0515
      5 H2         -4.2282   -0.8049   -4.8896 H         1 <0>         0.0957
      6 C4         -4.4733    0.2191   -3.0078 C.3       1 <0>         0.0431
      7 H3         -4.0602    1.1493   -3.3980 H         1 <0>         0.1559
      8 C5         -4.0278    0.0305   -1.5544 C.3       1 <0>        -0.1676
      9 C6         -2.5029   -0.0968   -1.5087 C.3       1 <0>         0.2630
     10 H4         -2.0499    0.8239   -1.8765 H         1 <0>         0.0635
     11 O1         -2.0927   -1.1913   -2.3309 O.3       1 <0>        -0.3765
     12 O2         -2.0841   -0.3291   -0.1623 O.3       1 <0>        -0.3186
     13 C7         -0.6720   -0.2292    0.0326 C.3       1 <0>         0.1415
     14 H5         -0.1599   -0.5912   -0.8589 H         1 <0>         0.0882
     15 C8         -0.2989    1.2326    0.2685 C.3       1 <0>        -0.1297
     16 C9          1.1748    1.2924    0.6878 C.3       1 <0>         0.1047
     17 C10         1.3000    0.6955    2.0876 C.3       1 <0>        -0.0989
     18 C11         0.6367   -0.6565    2.1505 C.ar      1 <0>        -0.0405
     19 C12        -0.2724   -1.0772    1.2128 C.ar      1 <0>        -0.0880
     20 C13        -0.8680   -2.3402    1.3293 C.ar      1 <0>         0.1834
     21 C14        -0.5429   -3.1813    2.3913 C.ar      1 <0>        -0.1372
     22 C15         0.3939   -2.7509    3.3525 C.ar      1 <0>        -0.1247
     23 C16         0.9761   -1.4912    3.2234 C.ar      1 <0>         0.1549
     24 O3          1.8788   -1.0701    4.1436 O.3       1 <0>        -0.4698
     25 C17         0.7490   -3.6283    4.4810 C.2       1 <0>         0.4347
     26 O4          1.5567   -3.2572    5.3106 O.2       1 <0>        -0.4044
     27 C18         0.1224   -4.9612    4.6021 C.ar      1 <0>        -0.0828
     28 C19         0.4525   -5.7977    5.6633 C.ar      1 <0>        -0.1043
     29 C20        -0.1368   -7.0466    5.7716 C.ar      1 <0>        -0.0540
     30 C21        -1.0540   -7.4733    4.8327 C.ar      1 <0>        -0.1901
     31 C22        -1.3993   -6.6527    3.7634 C.ar      1 <0>         0.1787
     32 C23        -0.8124   -5.3894    3.6413 C.ar      1 <0>        -0.1622
     33 C24        -1.1688   -4.5097    2.5134 C.2       1 <0>         0.4351
     34 O5         -1.9781   -4.8800    1.6845 O.2       1 <0>        -0.3987
     35 O6         -2.3014   -7.0761    2.8438 O.3       1 <0>        -0.2848
     36 C25        -2.8591   -8.3780    3.0337 C.3       1 <0>         0.0185
     37 O7         -1.7683   -2.7474    0.4004 O.3       1 <0>        -0.4539
     38 C26         2.0110    0.4962   -0.2806 C.2       1 <0>         0.3170
     39 O8          2.3022   -0.6482   -0.0279 O.2       1 <0>        -0.3970
     40 C27         2.4839    1.1280   -1.5644 C.3       1 <0>         0.0415
     41 O9          3.2526    0.1796   -2.3072 O.3       1 <0>        -0.5554
     42 O10         1.6166    2.6513    0.7024 O.3       1 <0>        -0.5345
     43 O11        -4.5556   -2.1713   -3.3740 O.3       1 <0>        -0.5585
     44 H6         -2.2987   -3.1733   -4.0305 H         1 <0>         0.0769
     45 H7         -2.2857   -2.2018   -5.5220 H         1 <0>         0.0820
     46 H8         -0.8393   -2.2617   -4.4862 H         1 <0>         0.0828
     47 H9         -4.4811   -0.8740   -1.1489 H         1 <0>         0.1209
     48 H10        -4.3393    0.8917   -0.9632 H         1 <0>         0.1087
     49 H11        -0.4428    1.8013   -0.6502 H         1 <0>         0.0888
     50 H12        -0.9231    1.6480    1.0597 H         1 <0>         0.1057
     51 H13         0.8243    1.3626    2.8065 H         1 <0>         0.1138
     52 H14         2.3553    0.5899    2.3394 H         1 <0>         0.0956
     53 H15         2.7938   -1.2990    3.9304 H         1 <0>         0.3996
     54 H16         1.1687   -5.4730    6.4036 H         1 <0>         0.1471
     55 H17         0.1238   -7.6920    6.5974 H         1 <0>         0.1439
     56 H18        -1.5061   -8.4494    4.9285 H         1 <0>         0.1444
     57 H19        -3.5639   -8.5921    2.2303 H         1 <0>         0.1069
     58 H20        -2.0609   -9.1202    3.0242 H         1 <0>         0.0608
     59 H21        -3.3780   -8.4148    3.9916 H         1 <0>         0.0606
     60 H22        -1.3705   -3.1599   -0.3785 H         1 <0>         0.3918
     61 H23         1.6935    1.4139   -2.1061 H         1 <0>         0.0705
     62 H24         3.1013    1.9968   -1.3359 H         1 <0>         0.0874
     63 H25         3.5902    0.5188   -3.1475 H         1 <0>         0.3901
     64 H26         2.5422    2.7612    0.9598 H         1 <0>         0.3916
     65 H27        -6.3003    1.0375   -2.5273 H         1 <0>         0.4398
     66 H28        -6.2589    0.3207   -4.0274 H         1 <0>         0.4394
     67 H29        -4.2727   -2.9600   -3.8568 H         1 <0>         0.4094
     68 N1         -5.9457    0.2456   -3.0610 N.4       1 <0>        -0.6379
     69 H30        -6.3137   -0.6231   -2.6560 H         1 <0>         0.4484
@<TRIPOS>BOND
     1    1    2 1
     2    1   44 1
     3    1   45 1
     4    1   46 1
     5    2    3 1
     6    2   11 1
     7    2    4 1
     8    4    5 1
     9    4    6 1
    10    4   43 1
    11    6    7 1
    12    6    8 1
    13    6   68 1
    14    8    9 1
    15    8   47 1
    16    8   48 1
    17    9   10 1
    18    9   11 1
    19    9   12 1
    20   12   13 1
    21   13   14 1
    22   13   19 1
    23   13   15 1
    24   15   16 1
    25   15   49 1
    26   15   50 1
    27   16   17 1
    28   16   38 1
    29   16   42 1
    30   17   18 1
    31   17   51 1
    32   17   52 1
    33   18   23 ar
    34   18   19 ar
    35   19   20 ar
    36   20   21 ar
    37   20   37 1
    38   21   33 1
    39   21   22 ar
    40   22   23 ar
    41   22   25 1
    42   23   24 1
    43   24   53 1
    44   25   26 2
    45   25   27 1
    46   27   32 ar
    47   27   28 ar
    48   28   29 ar
    49   28   54 1
    50   29   30 ar
    51   29   55 1
    52   30   31 ar
    53   30   56 1
    54   31   32 ar
    55   31   35 1
    56   32   33 1
    57   33   34 2
    58   35   36 1
    59   36   57 1
    60   36   58 1
    61   36   59 1
    62   37   60 1
    63   38   39 2
    64   38   40 1
    65   40   41 1
    66   40   61 1
    67   40   62 1
    68   41   63 1
    69   42   64 1
    70   43   67 1
    71   65   68 1
    72   66   68 1
    73   68   69 1
@<TRIPOS>MOLECULE
ZINC13831240
   54    55     0     0     0
SMALL
USER_CHARGES

@<TRIPOS>ATOM
      1 C1          1.6084    1.4471   -0.3501 C.3       1 <0>        -0.1491
      2 C2          1.3061    0.0344    0.1538 C.3       1 <0>        -0.0899
      3 C3          1.6377   -0.0572    1.6446 C.3       1 <0>        -0.1615
      4 C4         -0.1769   -0.2764   -0.0588 C.3       1 <0>         0.1448
      5 H1         -0.7815    0.4342    0.5048 H         1 <0>         0.1278
      6 C5         -0.4704   -1.6753    0.4185 C.2       1 <0>         0.5128
      7 O1         -0.3600   -2.6119   -0.3440 O.2       1 <0>        -0.4950
      8 N1         -0.8555   -1.8856    1.6929 N.am      1 <0>        -0.5916
      9 O2         -1.0372   -3.2068    2.1687 O.3       1 <0>        -0.3150
     10 N2         -0.4988   -0.1691   -1.4840 N.pl3     1 <0>        -0.8509
     11 O3          0.2740   -0.8727   -2.4394 O.3       1 <0>        -0.0949
     12 C6         -0.2971   -2.1180   -2.8457 C.3       1 <0>         0.0570
     13 C7         -0.6610   -2.0519   -4.3303 C.3       1 <0>        -0.1792
     14 C8          0.7159   -3.2419   -2.6184 C.3       1 <0>        -0.1501
     15 S1         -1.7666    0.7751   -1.9776 S.o2      1 <0>         2.6873
     16 O4         -2.1981    0.2545   -3.2275 O.2       1 <0>        -0.9296
     17 O5         -2.6385    0.8998   -0.8625 O.2       1 <0>        -0.9419
     18 C9         -1.1243    2.3844   -2.2971 C.ar      1 <0>        -0.6741
     19 C10        -1.0799    3.3227   -1.2818 C.ar      1 <0>        -0.0145
     20 C11        -0.5777    4.5847   -1.5264 C.ar      1 <0>        -0.1336
     21 C12        -0.1150    4.9129   -2.7991 C.ar      1 <0>         0.0227
     22 C13        -0.1621    3.9639   -3.8182 C.ar      1 <0>        -0.1334
     23 C14        -0.6610    2.7030   -3.5609 C.ar      1 <0>        -0.0031
     24 C15         0.4256    6.2684   -3.0683 C.ar      1 <0>        -0.0668
     25 C16         0.4776    7.2158   -2.0478 C.ar      1 <0>        -0.1006
     26 C17         0.9817    8.4749   -2.3037 C.ar      1 <0>        -0.1196
     27 C18         1.4345    8.7971   -3.5703 C.ar      1 <0>        -0.1077
     28 C19         1.3848    7.8607   -4.5871 C.ar      1 <0>        -0.1191
     29 C20         0.8883    6.5966   -4.3409 C.ar      1 <0>        -0.1003
     30 H2          2.6649    1.6685   -0.1986 H         1 <0>         0.0659
     31 H3          1.3722    1.5124   -1.4121 H         1 <0>         0.0667
     32 H4          1.0036    2.1668    0.2016 H         1 <0>         0.0556
     33 H5          1.9109   -0.6853   -0.3979 H         1 <0>         0.0953
     34 H6          1.0694    0.6961    2.1902 H         1 <0>         0.0619
     35 H7          1.3760   -1.0484    2.0148 H         1 <0>         0.0608
     36 H8          2.7039    0.1155    1.7909 H         1 <0>         0.0710
     37 H9         -1.0082   -1.1319    2.2840 H         1 <0>         0.4083
     38 H10        -1.3137   -3.2570    3.0940 H         1 <0>         0.3892
     39 H11        -1.1951   -2.3143   -2.2598 H         1 <0>         0.0884
     40 H12        -0.9718   -3.0391   -4.6724 H         1 <0>         0.0678
     41 H13        -1.4776   -1.3442   -4.4730 H         1 <0>         0.0852
     42 H14         0.2070   -1.7255   -4.9030 H         1 <0>         0.0601
     43 H15         0.9752   -3.2889   -1.5607 H         1 <0>         0.0819
     44 H16         0.2803   -4.1918   -2.9283 H         1 <0>         0.0627
     45 H17         1.6139   -3.0456   -3.2042 H         1 <0>         0.0511
     46 H18        -1.4392    3.0673   -0.2958 H         1 <0>         0.1407
     47 H19        -0.5439    5.3167   -0.7330 H         1 <0>         0.1371
     48 H20         0.1950    4.2131   -4.8065 H         1 <0>         0.1373
     49 H21        -0.6936    1.9651   -4.3488 H         1 <0>         0.1448
     50 H22         0.1237    6.9655   -1.0587 H         1 <0>         0.1279
     51 H23         1.0225    9.2100   -1.5135 H         1 <0>         0.1276
     52 H24         1.8279    9.7837   -3.7662 H         1 <0>         0.1261
     53 H25         1.7393    8.1177   -5.5744 H         1 <0>         0.1277
     54 H26         0.8541    5.8648   -5.1344 H         1 <0>         0.1282
@<TRIPOS>BOND
     1    1    2 1
     2    1   30 1
     3    1   31 1
     4    1   32 1
     5    2    3 1
     6    2    4 1
     7    2   33 1
     8    3   34 1
     9    3   35 1
    10    3   36 1
    11    4    5 1
    12    4    6 1
    13    4   10 1
    14    6    7 2
    15    6    8 am
    16    8    9 1
    17    8   37 1
    18    9   38 1
    19   10   11 1
    20   10   15 1
    21   11   12 1
    22   12   13 1
    23   12   14 1
    24   12   39 1
    25   13   40 1
    26   13   41 1
    27   13   42 1
    28   14   43 1
    29   14   44 1
    30   14   45 1
    31   15   16 2
    32   15   17 2
    33   15   18 1
    34   18   23 ar
    35   18   19 ar
    36   19   20 ar
    37   19   46 1
    38   20   21 ar
    39   20   47 1
    40   21   22 ar
    41   21   24 1
    42   22   23 ar
    43   22   48 1
    44   23   49 1
    45   24   29 ar
    46   24   25 ar
    47   25   26 ar
    48   25   50 1
    49   26   27 ar
    50   26   51 1
    51   27   28 ar
    52   27   52 1
    53   28   29 ar
    54   28   53 1
    55   29   54 1
@<TRIPOS>MOLECULE
ZINC03818628
   45    46     0     0     0
SMALL
USER_CHARGES

@<TRIPOS>ATOM
      1 C1          2.6021   -2.0659    1.0178 C.3       1 <0>        -0.1558
      2 C2          2.1237   -0.7034    1.5234 C.3       1 <0>         0.0227
      3 C3          3.0258    0.3957    0.9583 C.3       1 <0>        -0.1646
      4 O1          0.7783   -0.4821    1.0958 O.3       1 <0>        -0.0944
      5 N1         -0.1653   -0.4599    2.1514 N.pl3     1 <0>        -0.8427
      6 C4         -0.9067   -1.6753    2.4967 C.3       1 <0>         0.0952
      7 C5         -0.1403   -2.4533    3.5352 C.2       1 <0>         0.4931
      8 O2          0.9208   -2.0339    3.9462 O.2       1 <0>        -0.5008
      9 N2         -0.6340   -3.6152    4.0070 N.am      1 <0>        -0.5914
     10 O3          0.0862   -4.3463    4.9827 O.3       1 <0>        -0.3153
     11 S1         -0.4306    0.9399    2.9954 S.o2      1 <0>         2.6901
     12 O4         -0.1309    2.0107    2.1107 O.2       1 <0>        -0.9261
     13 O5         -1.6983    0.8019    3.6225 O.2       1 <0>        -0.9379
     14 C6          0.7659    1.0040    4.2873 C.ar      1 <0>        -0.6759
     15 C7          0.4812    0.4421    5.5187 C.ar      1 <0>         0.0080
     16 C8          1.4148    0.4895    6.5342 C.ar      1 <0>        -0.1282
     17 C9          2.6459    1.1048    6.3170 C.ar      1 <0>         0.0214
     18 C10         2.9274    1.6693    5.0746 C.ar      1 <0>        -0.1336
     19 C11         1.9886    1.6112    4.0645 C.ar      1 <0>        -0.0153
     20 C12         3.6534    1.1593    7.4051 C.ar      1 <0>        -0.0633
     21 C13         3.3739    0.5902    8.6459 C.ar      1 <0>        -0.1010
     22 C14         4.3149    0.6433    9.6542 C.ar      1 <0>        -0.1194
     23 C15         5.5332    1.2605    9.4350 C.ar      1 <0>        -0.1096
     24 C16         5.8157    1.8275    8.2054 C.ar      1 <0>        -0.1194
     25 C17         4.8845    1.7747    7.1880 C.ar      1 <0>        -0.1016
     26 H1          2.4780   -2.1160   -0.0640 H         1 <0>         0.0640
     27 H2          3.6544   -2.1978    1.2693 H         1 <0>         0.0698
     28 H3          2.0146   -2.8546    1.4878 H         1 <0>         0.0564
     29 H4          2.1666   -0.6845    2.6124 H         1 <0>         0.1051
     30 H5          2.9829    0.3767   -0.1306 H         1 <0>         0.0703
     31 H6          2.6850    1.3663    1.3186 H         1 <0>         0.0666
     32 H7          4.0520    0.2269    1.2845 H         1 <0>         0.0761
     33 H8         -1.8845   -1.4037    2.8946 H         1 <0>         0.1437
     34 H9         -1.0350   -2.2885    1.6047 H         1 <0>         0.1359
     35 H10        -1.4827   -3.9507    3.6782 H         1 <0>         0.4108
     36 H11        -0.3469   -5.1654    5.2594 H         1 <0>         0.3896
     37 H12        -0.4735   -0.0343    5.6860 H         1 <0>         0.1339
     38 H13         1.1913    0.0507    7.4954 H         1 <0>         0.1333
     39 H14         3.8799    2.1478    4.9010 H         1 <0>         0.1354
     40 H15         2.2075    2.0442    3.0996 H         1 <0>         0.1403
     41 H16         2.4227    0.1087    8.8184 H         1 <0>         0.1271
     42 H17         4.0993    0.2025   10.6164 H         1 <0>         0.1270
     43 H18         6.2664    1.3001   10.2269 H         1 <0>         0.1256
     44 H19         6.7684    2.3084    8.0397 H         1 <0>         0.1272
     45 H20         5.1078    2.2138    6.2269 H         1 <0>         0.1276
@<TRIPOS>BOND
     1    1    2 1
     2    1   26 1
     3    1   27 1
     4    1   28 1
     5    2    3 1
     6    2    4 1
     7    2   29 1
     8    3   30 1
     9    3   31 1
    10    3   32 1
    11    4    5 1
    12    5    6 1
    13    5   11 1
    14    6    7 1
    15    6   33 1
    16    6   34 1
    17    7    8 2
    18    7    9 am
    19    9   10 1
    20    9   35 1
    21   10   36 1
    22   11   12 2
    23   11   13 2
    24   11   14 1
    25   14   19 ar
    26   14   15 ar
    27   15   16 ar
    28   15   37 1
    29   16   17 ar
    30   16   38 1
    31   17   18 ar
    32   17   20 1
    33   18   19 ar
    34   18   39 1
    35   19   40 1
    36   20   25 ar
    37   20   21 ar
    38   21   22 ar
    39   21   41 1
    40   22   23 ar
    41   22   42 1
    42   23   24 ar
    43   23   43 1
    44   24   25 ar
    45   24   44 1
    46   25   45 1
@<TRIPOS>MOLECULE
ZINC03780014
   56    57     0     0     0
SMALL
USER_CHARGES

@<TRIPOS>ATOM
      1 C1         -4.9014   -2.7959   -0.2874 C.3       1 <0>        -0.1475
      2 C2         -3.5376   -2.8042   -0.9809 C.3       1 <0>        -0.0930
      3 C3         -3.1945   -1.3884   -1.4484 C.3       1 <0>        -0.1554
      4 C4         -2.4693   -3.2902    0.0006 C.3       1 <0>        -0.1061
      5 C5         -1.1289   -3.4171   -0.7262 C.3       1 <0>        -0.1051
      6 H1         -0.8997   -2.4792   -1.2321 H         1 <0>         0.1276
      7 C6         -1.2122   -4.5451   -1.7565 C.3       1 <0>        -0.1172
      8 C7         -1.5195   -3.9649   -3.1129 C.2       1 <0>         0.5263
      9 O1         -1.2277   -2.8140   -3.3604 O.2       1 <0>        -0.5111
     10 N1         -2.1186   -4.7249   -4.0510 N.am      1 <0>        -0.5983
     11 O2         -2.4073   -4.1798   -5.3255 O.3       1 <0>        -0.3184
     12 C8         -0.0436   -3.7277    0.2721 C.2       1 <0>         0.5307
     13 O3          0.4797   -4.8218    0.2782 O.2       1 <0>        -0.5430
     14 N2          0.3456   -2.7896    1.1581 N.am      1 <0>        -0.6970
     15 C9          1.4614   -3.0597    2.0683 C.3       1 <0>         0.1359
     16 H2          2.1702   -3.7318    1.5846 H         1 <0>         0.1120
     17 C10         2.1624   -1.7460    2.4196 C.3       1 <0>        -0.0434
     18 C11         2.7912   -1.1648    1.1795 C.2       1 <0>        -0.1770
     19 C12         4.0613   -1.3280    0.7767 C.2       1 <0>         0.0630
     20 N3          4.2699   -0.6520   -0.3945 N.pl3     1 <0>        -0.5937
     21 H3          5.1101   -0.6216   -0.8783 H         1 <0>         0.4168
     22 C13         3.1096   -0.0211   -0.7839 C.ar      1 <0>         0.0948
     23 C14         2.1307   -0.3199    0.1817 C.ar      1 <0>        -0.0926
     24 C15         0.8375    0.1869    0.0425 C.ar      1 <0>        -0.0773
     25 C16         0.5277    0.9690   -1.0346 C.ar      1 <0>        -0.1349
     26 C17         1.4886    1.2632   -1.9919 C.ar      1 <0>        -0.0949
     27 C18         2.7736    0.7811   -1.8692 C.ar      1 <0>        -0.1271
     28 C19         0.9385   -3.7024    3.3271 C.2       1 <0>         0.5025
     29 O4         -0.2172   -3.5389    3.6565 O.2       1 <0>        -0.5287
     30 N4          1.7552   -4.4590    4.0868 N.am      1 <0>        -0.7323
     31 C20         1.2469   -5.0838    5.3105 C.3       1 <0>         0.0869
     32 H4         -5.6625   -2.4497   -0.9866 H         1 <0>         0.0552
     33 H5         -5.1458   -3.8046    0.0457 H         1 <0>         0.0533
     34 H6         -4.8674   -2.1275    0.5729 H         1 <0>         0.0568
     35 H7         -3.5716   -3.4727   -1.8412 H         1 <0>         0.0647
     36 H8         -3.2493   -0.7032   -0.6024 H         1 <0>         0.0525
     37 H9         -2.1857   -1.3764   -1.8609 H         1 <0>         0.0736
     38 H10        -3.9042   -1.0768   -2.2148 H         1 <0>         0.0517
     39 H11        -2.3735   -2.5744    0.8171 H         1 <0>         0.0747
     40 H12        -2.7588   -4.2617    0.4012 H         1 <0>         0.0715
     41 H13        -0.2596   -5.0735   -1.7946 H         1 <0>         0.1205
     42 H14        -2.0020   -5.2401   -1.4712 H         1 <0>         0.0973
     43 H15        -2.3519   -5.6454   -3.8530 H         1 <0>         0.4079
     44 H16        -2.8369   -4.7999   -5.9305 H         1 <0>         0.3870
     45 H17        -0.1130   -1.9356    1.1932 H         1 <0>         0.4054
     46 H18         1.4341   -1.0418    2.8219 H         1 <0>         0.0844
     47 H19         2.9354   -1.9346    3.1647 H         1 <0>         0.0914
     48 H20         4.8080   -1.9070    1.2999 H         1 <0>         0.1699
     49 H21         0.0845   -0.0385    0.7831 H         1 <0>         0.1149
     50 H22        -0.4730    1.3609   -1.1419 H         1 <0>         0.1230
     51 H23         1.2283    1.8821   -2.8378 H         1 <0>         0.1250
     52 H24         3.5139    1.0147   -2.6201 H         1 <0>         0.1186
     53 H25         2.6795   -4.5898    3.8233 H         1 <0>         0.4024
     54 H26         2.0457   -5.6518    5.7873 H         1 <0>         0.0763
     55 H27         0.8932   -4.3111    5.9931 H         1 <0>         0.0605
     56 H28         0.4236   -5.7533    5.0616 H         1 <0>         0.0594
@<TRIPOS>BOND
     1    1    2 1
     2    1   32 1
     3    1   33 1
     4    1   34 1
     5    2    3 1
     6    2    4 1
     7    2   35 1
     8    3   36 1
     9    3   37 1
    10    3   38 1
    11    4    5 1
    12    4   39 1
    13    4   40 1
    14    5    6 1
    15    5    7 1
    16    5   12 1
    17    7    8 1
    18    7   41 1
    19    7   42 1
    20    8    9 2
    21    8   10 am
    22   10   11 1
    23   10   43 1
    24   11   44 1
    25   12   13 2
    26   12   14 am
    27   14   15 1
    28   14   45 1
    29   15   16 1
    30   15   17 1
    31   15   28 1
    32   17   18 1
    33   17   46 1
    34   17   47 1
    35   18   23 1
    36   18   19 2
    37   19   20 1
    38   19   48 1
    39   20   21 1
    40   20   22 1
    41   22   27 ar
    42   22   23 ar
    43   23   24 ar
    44   24   25 ar
    45   24   49 1
    46   25   26 ar
    47   25   50 1
    48   26   27 ar
    49   26   51 1
    50   27   52 1
    51   28   29 2
    52   28   30 am
    53   30   31 1
    54   30   53 1
    55   31   54 1
    56   31   55 1
    57   31   56 1
@<TRIPOS>MOLECULE
ZINC34801833
   79    81     0     0     0
SMALL
USER_CHARGES

@<TRIPOS>ATOM
      1 C1          0.8360   -1.2830   -2.3872 C.3       1 <0>        -0.1477
      2 C2          0.3647   -1.0920   -0.9442 C.3       1 <0>        -0.1318
      3 C3          1.1800   -1.9962   -0.0176 C.3       1 <0>        -0.1149
      4 C4          0.7087   -1.8053    1.4255 C.3       1 <0>        -0.0735
      5 H1         -0.3657   -1.9797    1.4829 H         1 <0>         0.1081
      6 C5          1.4359   -2.7976    2.3350 C.3       1 <0>        -0.1038
      7 H2          1.0332   -2.7269    3.3454 H         1 <0>         0.0969
      8 C6          1.2344   -4.2183    1.8040 C.3       1 <0>        -0.1058
      9 C7          1.8505   -5.2206    2.7822 C.3       1 <0>        -0.1134
     10 C8          1.1005   -5.1599    4.1144 C.3       1 <0>        -0.1555
     11 C9          1.7441   -6.6318    2.2008 C.3       1 <0>        -0.1422
     12 C10         2.9075   -2.4737    2.3570 C.2       1 <0>         0.5184
     13 O1          3.3836   -1.7575    1.5017 O.2       1 <0>        -0.5075
     14 N1          3.6946   -2.9797    3.3270 N.am      1 <0>        -0.7104
     15 C11         5.1039   -2.5875    3.4058 C.3       1 <0>         0.1312
     16 H3          5.2115   -1.5455    3.1046 H         1 <0>         0.1113
     17 C12         5.6069   -2.7627    4.8408 C.3       1 <0>        -0.1212
     18 C13         6.7891   -1.8497    5.1112 C.3       1 <0>        -0.1192
     19 C14         8.0328   -2.2063    4.3177 C.3       1 <0>        -0.1427
     20 C15         7.8143   -1.9637    2.8231 C.3       1 <0>         0.1049
     21 N2          7.2015   -3.1661    2.2354 N.am      1 <0>        -0.5999
     22 C16         5.9292   -3.4690    2.4921 C.2       1 <0>         0.5106
     23 O2          5.4323   -4.4578    1.9957 O.2       1 <0>        -0.5284
     24 C17         7.9937   -4.0322    1.3587 C.3       1 <0>         0.1526
     25 C18         8.6793   -5.0904    2.1840 C.ar      1 <0>        -0.0914
     26 C19         9.9366   -4.8511    2.7079 C.ar      1 <0>        -0.1040
     27 C20        10.5681   -5.8196    3.4658 C.ar      1 <0>        -0.1068
     28 C21         9.9444   -7.0297    3.7014 C.ar      1 <0>        -0.1190
     29 C22         8.6831   -7.2723    3.1770 C.ar      1 <0>         0.0824
     30 C23         8.0490   -6.2962    2.4213 C.ar      1 <0>        -0.1068
     31 O3          8.0675   -8.4617    3.4072 O.3       1 <0>        -0.2594
     32 C24         8.0287   -9.3665    2.3942 C.ar      1 <0>         0.1223
     33 C25         8.7067   -9.1138    1.2103 C.ar      1 <0>        -0.1928
     34 C26         8.6656  -10.0353    0.1820 C.ar      1 <0>        -0.0819
     35 C27         7.9493  -11.2085    0.3316 C.ar      1 <0>        -0.1524
     36 C28         7.2724  -11.4626    1.5102 C.ar      1 <0>        -0.0825
     37 C29         7.3157  -10.5474    2.5441 C.ar      1 <0>        -0.1462
     38 C30         1.0138   -0.3985    1.8715 C.2       1 <0>         0.5295
     39 O4          1.5228    0.3857    1.0990 O.2       1 <0>        -0.4899
     40 N3          0.7208   -0.0118    3.1290 N.am      1 <0>        -0.6048
     41 O5          0.9087    1.3371    3.5168 O.3       1 <0>        -0.3187
     42 H4          0.6968   -2.3236   -2.6802 H         1 <0>         0.0492
     43 H5          0.2551   -0.6388   -3.0474 H         1 <0>         0.0512
     44 H6          1.8917   -1.0226   -2.4621 H         1 <0>         0.0543
     45 H7          0.5039   -0.0514   -0.6512 H         1 <0>         0.0801
     46 H8         -0.6911   -1.3525   -0.8693 H         1 <0>         0.0508
     47 H9          1.0408   -3.0368   -0.3106 H         1 <0>         0.0699
     48 H10         2.2358   -1.7358   -0.0925 H         1 <0>         0.1047
     49 H11         0.1681   -4.4198    1.7008 H         1 <0>         0.0815
     50 H12         1.7181   -4.3149    0.8320 H         1 <0>         0.0800
     51 H13         2.8994   -4.9724    2.9441 H         1 <0>         0.0857
     52 H14         1.1763   -4.1545    4.5285 H         1 <0>         0.0506
     53 H15         0.0515   -5.4081    3.9524 H         1 <0>         0.0607
     54 H16         1.5394   -5.8740    4.8112 H         1 <0>         0.0587
     55 H17         2.2784   -6.6750    1.2517 H         1 <0>         0.0559
     56 H18         2.1830   -7.3459    2.8977 H         1 <0>         0.0552
     57 H19         0.6952   -6.8800    2.0389 H         1 <0>         0.0540
     58 H20         3.3279   -3.6035    3.9729 H         1 <0>         0.4040
     59 H21         4.8018   -2.5224    5.5352 H         1 <0>         0.0833
     60 H22         5.9118   -3.7984    4.9903 H         1 <0>         0.0732
     61 H23         6.5019   -0.8270    4.8670 H         1 <0>         0.0682
     62 H24         7.0289   -1.8964    6.1735 H         1 <0>         0.0739
     63 H25         8.8657   -1.5934    4.6623 H         1 <0>         0.0807
     64 H26         8.2717   -3.2575    4.4790 H         1 <0>         0.0743
     65 H27         7.1509   -1.1101    2.6843 H         1 <0>         0.0800
     66 H28         8.7718   -1.7681    2.3405 H         1 <0>         0.0894
     67 H29         7.3381   -4.5082    0.6295 H         1 <0>         0.0949
     68 H30         8.7428   -3.4351    0.8386 H         1 <0>         0.0903
     69 H31        10.4261   -3.9061    2.5243 H         1 <0>         0.1270
     70 H32        11.5499   -5.6302    3.8738 H         1 <0>         0.1321
     71 H33        10.4384   -7.7862    4.2930 H         1 <0>         0.1312
     72 H34         7.0653   -6.4810    2.0154 H         1 <0>         0.1354
     73 H35         9.2658   -8.1973    1.0926 H         1 <0>         0.1266
     74 H36         9.1932   -9.8390   -0.7397 H         1 <0>         0.1258
     75 H37         7.9182  -11.9274   -0.4737 H         1 <0>         0.1255
     76 H38         6.7133  -12.3795    1.6244 H         1 <0>         0.1313
     77 H39         6.7908  -10.7485    3.4662 H         1 <0>         0.1315
     78 H40         0.3812   -0.6574    3.7683 H         1 <0>         0.4013
     79 H41         0.6715    1.5186    4.4365 H         1 <0>         0.3841
@<TRIPOS>BOND
     1    1    2 1
     2    1   42 1
     3    1   43 1
     4    1   44 1
     5    2    3 1
     6    2   45 1
     7    2   46 1
     8    3    4 1
     9    3   47 1
    10    3   48 1
    11    4    5 1
    12    4    6 1
    13    4   38 1
    14    6    7 1
    15    6    8 1
    16    6   12 1
    17    8    9 1
    18    8   49 1
    19    8   50 1
    20    9   10 1
    21    9   11 1
    22    9   51 1
    23   10   52 1
    24   10   53 1
    25   10   54 1
    26   11   55 1
    27   11   56 1
    28   11   57 1
    29   12   13 2
    30   12   14 am
    31   14   15 1
    32   14   58 1
    33   15   16 1
    34   15   22 1
    35   15   17 1
    36   17   18 1
    37   17   59 1
    38   17   60 1
    39   18   19 1
    40   18   61 1
    41   18   62 1
    42   19   20 1
    43   19   63 1
    44   19   64 1
    45   20   21 1
    46   20   65 1
    47   20   66 1
    48   21   22 am
    49   21   24 1
    50   22   23 2
    51   24   25 1
    52   24   67 1
    53   24   68 1
    54   25   30 ar
    55   25   26 ar
    56   26   27 ar
    57   26   69 1
    58   27   28 ar
    59   27   70 1
    60   28   29 ar
    61   28   71 1
    62   29   30 ar
    63   29   31 1
    64   30   72 1
    65   31   32 1
    66   32   37 ar
    67   32   33 ar
    68   33   34 ar
    69   33   73 1
    70   34   35 ar
    71   34   74 1
    72   35   36 ar
    73   35   75 1
    74   36   37 ar
    75   36   76 1
    76   37   77 1
    77   38   39 2
    78   38   40 am
    79   40   41 1
    80   40   78 1
    81   41   79 1
@<TRIPOS>MOLECULE
ZINC28640034
   49    50     0     0     0
SMALL
USER_CHARGES

@<TRIPOS>ATOM
      1 C1          0.0802    1.7020    0.0022 C.3       1 <0>        -0.1407
      2 C2          0.2270    0.2073   -0.2894 C.3       1 <0>        -0.0962
      3 C3          0.9985   -0.4613    0.8501 C.3       1 <0>        -0.4312
      4 H1          0.4075   -0.4156    1.7649 H         1 <0>         0.1044
      5 P1          1.3241   -2.2035    0.4234 P.3       1 <0>         2.2344
      6 O1          2.4286   -2.7624    1.3480 O.2       1 <0>        -1.0693
      7 O2          0.0314   -3.0292    0.6080 O.3       1 <0>        -1.0844
      8 O3          1.8079   -2.2993   -1.1092 O.3       1 <0>        -0.9010
      9 N1          2.2699    0.2372    1.0548 N.pl3     1 <0>        -1.0882
     10 S1          2.6610    0.8229    2.5535 S.o2      1 <0>         2.6928
     11 O4          3.9346    1.4406    2.4286 O.2       1 <0>        -0.9763
     12 O5          1.5183    1.5224    3.0271 O.2       1 <0>        -0.9702
     13 C4          2.8771   -0.5662    3.6157 C.ar      1 <0>        -0.6542
     14 C5          1.8060   -1.0561    4.3394 C.ar      1 <0>        -0.0108
     15 C6          1.9755   -2.1460    5.1727 C.ar      1 <0>        -0.1320
     16 C7          3.2160   -2.7462    5.2820 C.ar      1 <0>        -0.0252
     17 C8          4.2868   -2.2568    4.5576 C.ar      1 <0>        -0.1294
     18 C9          4.1163   -1.1696    3.7210 C.ar      1 <0>         0.0130
     19 C10         3.4010   -3.9337    6.1912 C.3       1 <0>        -0.0747
     20 C11         3.1311   -5.2211    5.4099 C.3       1 <0>        -0.0808
     21 C12         3.3161   -6.4086    6.3191 C.ar      1 <0>        -0.0722
     22 C13         4.5579   -7.0053    6.4327 C.ar      1 <0>        -0.1176
     23 C14         4.7276   -8.0946    7.2667 C.ar      1 <0>        -0.1207
     24 C15         3.6557   -8.5869    7.9875 C.ar      1 <0>        -0.1311
     25 C16         2.4142   -7.9897    7.8746 C.ar      1 <0>        -0.1200
     26 C17         2.2454   -6.8977    7.0438 C.ar      1 <0>        -0.1171
     27 C18        -1.1599   -0.4279   -0.4078 C.3       1 <0>        -0.1641
     28 H2          1.0682    2.1545    0.0866 H         1 <0>         0.0466
     29 H3         -0.4695    2.1784   -0.8096 H         1 <0>         0.0478
     30 H4         -0.4628    1.8381    0.9375 H         1 <0>         0.0572
     31 H5          0.7700    0.0712   -1.2247 H         1 <0>         0.0754
     32 H6          1.9996   -3.1995   -1.4056 H         1 <0>         0.4108
     33 H7          2.8827    0.3565    0.3124 H         1 <0>         0.4134
     34 H8          0.8369   -0.5872    4.2540 H         1 <0>         0.1275
     35 H9          1.1389   -2.5283    5.7387 H         1 <0>         0.1246
     36 H10         5.2561   -2.7255    4.6432 H         1 <0>         0.1241
     37 H11         4.9521   -0.7896    3.1522 H         1 <0>         0.1298
     38 H12         4.4232   -3.9458    6.5696 H         1 <0>         0.0732
     39 H13         2.7050   -3.8632    7.0271 H         1 <0>         0.0730
     40 H14         2.1089   -5.2090    5.0316 H         1 <0>         0.0828
     41 H15         3.8271   -5.2916    4.5740 H         1 <0>         0.0824
     42 H16         5.3954   -6.6207    5.8696 H         1 <0>         0.1220
     43 H17         5.6976   -8.5612    7.3549 H         1 <0>         0.1185
     44 H18         3.7882   -9.4384    8.6385 H         1 <0>         0.1170
     45 H19         1.5766   -8.3745    8.4374 H         1 <0>         0.1189
     46 H20         1.2763   -6.4288    6.9585 H         1 <0>         0.1227
     47 H21        -1.7004    0.0314   -1.2355 H         1 <0>         0.0518
     48 H22        -1.0553   -1.4973   -0.5910 H         1 <0>         0.0879
     49 H23        -1.7120   -0.2702    0.5187 H         1 <0>         0.0550
@<TRIPOS>BOND
     1    1    2 1
     2    1   28 1
     3    1   29 1
     4    1   30 1
     5    2    3 1
     6    2   27 1
     7    2   31 1
     8    3    4 1
     9    3    5 1
    10    3    9 1
    11    5    6 2
    12    5    7 1
    13    5    8 1
    14    8   32 1
    15    9   10 1
    16    9   33 1
    17   10   11 2
    18   10   12 2
    19   10   13 1
    20   13   18 ar
    21   13   14 ar
    22   14   15 ar
    23   14   34 1
    24   15   16 ar
    25   15   35 1
    26   16   17 ar
    27   16   19 1
    28   17   18 ar
    29   17   36 1
    30   18   37 1
    31   19   20 1
    32   19   38 1
    33   19   39 1
    34   20   21 1
    35   20   40 1
    36   20   41 1
    37   21   26 ar
    38   21   22 ar
    39   22   23 ar
    40   22   42 1
    41   23   24 ar
    42   23   43 1
    43   24   25 ar
    44   24   44 1
    45   25   26 ar
    46   25   45 1
    47   26   46 1
    48   27   47 1
    49   27   48 1
    50   27   49 1
@<TRIPOS>MOLECULE
ZINC28640034
   48    49     0     0     0
SMALL
USER_CHARGES

@<TRIPOS>ATOM
      1 C1          1.3052    1.7703    0.4699 C.3       1 <0>        -0.1810
      2 C2          1.4427    0.2677    0.2163 C.3       1 <0>        -0.0800
      3 C3          0.6668   -0.5032    1.2861 C.3       1 <0>        -0.4271
      4 H1          1.0685   -0.2626    2.2704 H         1 <0>         0.0589
      5 P1         -1.0933   -0.0338    1.2168 P.3       1 <0>         2.2026
      6 O1         -1.2338    1.5055    1.4726 O.2       1 <0>        -1.1566
      7 O2         -1.6717   -0.3832   -0.1966 O.3       1 <0>        -1.1544
      8 O3         -1.8872   -0.8202    2.3149 O.3       1 <0>        -1.1704
      9 N1          0.7985   -1.9419    1.0432 N.pl3     1 <0>        -1.0607
     10 S1          1.9680   -2.8109    1.8302 S.o2      1 <0>         2.6814
     11 O4          1.7984   -4.1666    1.4400 O.2       1 <0>        -0.9884
     12 O5          3.1902   -2.1110    1.6413 O.2       1 <0>        -0.9778
     13 C4          1.6044   -2.7333    3.5525 C.ar      1 <0>        -0.6610
     14 C5          2.2114   -1.7769    4.3448 C.ar      1 <0>        -0.0172
     15 C6          1.9261   -1.7160    5.6960 C.ar      1 <0>        -0.1412
     16 C7          1.0334   -2.6113    6.2549 C.ar      1 <0>        -0.0400
     17 C8          0.4257   -3.5672    5.4625 C.ar      1 <0>        -0.1358
     18 C9          0.7077   -3.6253    4.1105 C.ar      1 <0>         0.0001
     19 C10         0.7231   -2.5456    7.7281 C.3       1 <0>        -0.0699
     20 C11        -0.4659   -1.6105    7.9577 C.3       1 <0>        -0.0867
     21 C12        -0.7762   -1.5448    9.4309 C.ar      1 <0>        -0.0687
     22 C13        -1.6646   -2.4437    9.9909 C.ar      1 <0>        -0.1163
     23 C14        -1.9492   -2.3835   11.3423 C.ar      1 <0>        -0.1206
     24 C15        -1.3451   -1.4246   12.1338 C.ar      1 <0>        -0.1327
     25 C16        -0.4560   -0.5263   11.5740 C.ar      1 <0>        -0.1209
     26 C17        -0.1681   -0.5892   10.2234 C.ar      1 <0>        -0.1171
     27 C18         0.8789   -0.0699   -1.1654 C.3       1 <0>        -0.1778
     28 H2          1.7069    2.0109    1.4542 H         1 <0>         0.0306
     29 H3          1.8580    2.3195   -0.2922 H         1 <0>         0.0243
     30 H4          0.2528    2.0510    0.4285 H         1 <0>         0.1341
     31 H5          2.4952   -0.0129    0.2577 H         1 <0>         0.0321
     32 H6          0.2006   -2.3855    0.4214 H         1 <0>         0.4180
     33 H7          2.9089   -1.0774    3.9081 H         1 <0>         0.1343
     34 H8          2.4009   -0.9692    6.3150 H         1 <0>         0.1256
     35 H9         -0.2715   -4.2669    5.8992 H         1 <0>         0.1279
     36 H10         0.2301   -4.3697    3.4907 H         1 <0>         0.1372
     37 H11         0.4766   -3.5430    8.0923 H         1 <0>         0.0736
     38 H12         1.5923   -2.1670    8.2660 H         1 <0>         0.0724
     39 H13        -0.2194   -0.6132    7.5935 H         1 <0>         0.0819
     40 H14        -1.3351   -1.9892    7.4199 H         1 <0>         0.0846
     41 H15        -2.1366   -3.1929    9.3725 H         1 <0>         0.1235
     42 H16        -2.6439   -3.0853   11.7797 H         1 <0>         0.1184
     43 H17        -1.5680   -1.3771   13.1895 H         1 <0>         0.1160
     44 H18         0.0157    0.2231   12.1923 H         1 <0>         0.1180
     45 H19         0.5293    0.1102    9.7867 H         1 <0>         0.1224
     46 H20        -0.1735    0.2107   -1.2068 H         1 <0>         0.1323
     47 H21         1.4317    0.4793   -1.9275 H         1 <0>         0.0193
     48 H22         0.9768   -1.1404   -1.3461 H         1 <0>         0.0328
@<TRIPOS>BOND
     1    1    2 1
     2    1   28 1
     3    1   29 1
     4    1   30 1
     5    2    3 1
     6    2   27 1
     7    2   31 1
     8    3    4 1
     9    3    5 1
    10    3    9 1
    11    5    6 2
    12    5    7 1
    13    5    8 1
    14    9   10 1
    15    9   32 1
    16   10   11 2
    17   10   12 2
    18   10   13 1
    19   13   18 ar
    20   13   14 ar
    21   14   15 ar
    22   14   33 1
    23   15   16 ar
    24   15   34 1
    25   16   17 ar
    26   16   19 1
    27   17   18 ar
    28   17   35 1
    29   18   36 1
    30   19   20 1
    31   19   37 1
    32   19   38 1
    33   20   21 1
    34   20   39 1
    35   20   40 1
    36   21   26 ar
    37   21   22 ar
    38   22   23 ar
    39   22   41 1
    40   23   24 ar
    41   23   42 1
    42   24   25 ar
    43   24   43 1
    44   25   26 ar
    45   25   44 1
    46   26   45 1
    47   27   46 1
    48   27   47 1
    49   27   48 1
@<TRIPOS>MOLECULE
ZINC00538656
   46    48     0     0     0
SMALL
USER_CHARGES
4-[4-(4-chlorophenyl)phenyl]-4-oxo-2-(phenylsulfanylmethyl)butanoic acid
@<TRIPOS>ATOM
      1 C1          1.1201   -0.4538   -7.4017 C.ar      1 <0>        -0.1478
      2 C2         -0.0171    0.2963   -7.6403 C.ar      1 <0>        -0.1014
      3 C3         -0.6896    0.8871   -6.5889 C.ar      1 <0>        -0.1105
      4 C4         -0.2223    0.7275   -5.2899 C.ar      1 <0>        -0.0980
      5 C5          0.9243   -0.0218   -5.0546 C.ar      1 <0>        -0.1474
      6 C6          1.5879   -0.6151   -6.1102 C.ar      1 <0>        -0.1005
      7 S1         -1.0772    1.4794   -3.9451 S.3       1 <0>        -0.0149
      8 C7         -0.1114    0.9981   -2.4870 C.3       1 <0>        -0.0921
      9 C8         -0.7527    1.5927   -1.2315 C.3       1 <0>        -0.1170
     10 H1         -1.7985    1.2898   -1.1795 H         1 <0>         0.0844
     11 C9         -0.0127    1.0858    0.0080 C.3       1 <0>        -0.1288
     12 C10        -0.7181    1.5718    1.2479 C.2       1 <0>         0.3986
     13 O1         -1.7145    2.2562    1.1498 O.2       1 <0>        -0.4246
     14 C11        -0.1984    1.2164    2.5760 C.ar      1 <0>        -0.1404
     15 C12         0.9485    0.4217    2.6905 C.ar      1 <0>        -0.0740
     16 C13         1.4347    0.0964    3.9303 C.ar      1 <0>        -0.1194
     17 C14         0.7808    0.5475    5.0780 C.ar      1 <0>        -0.0362
     18 C15        -0.3664    1.3347    4.9664 C.ar      1 <0>        -0.1182
     19 C16        -0.8529    1.6674    3.7287 C.ar      1 <0>        -0.0627
     20 C17         1.3051    0.1895    6.4173 C.ar      1 <0>        -0.0353
     21 C18         0.6576    0.6427    7.5662 C.ar      1 <0>        -0.0980
     22 C19         1.1465    0.3018    8.8104 C.ar      1 <0>        -0.1072
     23 C20         2.2846   -0.4792    8.9196 C.ar      1 <0>        -0.0369
     24 C21         2.9347   -0.9271    7.7819 C.ar      1 <0>        -0.1075
     25 C22         2.4509   -0.5968    6.5329 C.ar      1 <0>        -0.0981
     26 Cl1         2.8991   -0.8980   10.4883 Cl        1 <0>        -0.0729
     27 C23        -0.6673    3.0962   -1.2877 C.2       1 <0>         0.4712
     28 O2         -0.0754    3.7004   -0.4249 O.co2     1 <0>        -0.6348
     29 H2          1.6439   -0.9150   -8.2259 H         1 <0>         0.1162
     30 H3         -0.3797    0.4199   -8.6500 H         1 <0>         0.1203
     31 H4         -1.5776    1.4727   -6.7759 H         1 <0>         0.1244
     32 H5          1.2929   -0.1442   -4.0469 H         1 <0>         0.1184
     33 H6          2.4760   -1.2019   -5.9277 H         1 <0>         0.1172
     34 H7          0.9076    1.3722   -2.5864 H         1 <0>         0.0804
     35 H8         -0.0932   -0.0887   -2.4058 H         1 <0>         0.0761
     36 H9          0.0008    0.0859    0.0024 H         1 <0>         0.0782
     37 H10         1.0099    1.4631    0.0003 H         1 <0>         0.0999
     38 H11         1.4522    0.0687    1.8028 H         1 <0>         0.1352
     39 H12         2.3217   -0.5133    4.0192 H         1 <0>         0.1297
     40 H13        -0.8709    1.6823    5.8558 H         1 <0>         0.1294
     41 H14        -1.7406    2.2765    3.6428 H         1 <0>         0.1369
     42 H15        -0.2274    1.2559    7.4821 H         1 <0>         0.1373
     43 H16         0.6434    0.6489    9.7008 H         1 <0>         0.1354
     44 H17         3.8223   -1.5357    7.8726 H         1 <0>         0.1354
     45 H18         2.9589   -0.9463    5.6462 H         1 <0>         0.1374
     46 O3         -1.2489    3.7642   -2.2963 O.co2     1 <0>        -0.7375
@<TRIPOS>BOND
     1    1    6 ar
     2    1    2 ar
     3    1   29 1
     4    2    3 ar
     5    2   30 1
     6    3    4 ar
     7    3   31 1
     8    4    5 ar
     9    4    7 1
    10    5    6 ar
    11    5   32 1
    12    6   33 1
    13    7    8 1
    14    8    9 1
    15    8   34 1
    16    8   35 1
    17    9   10 1
    18    9   11 1
    19    9   27 1
    20   11   12 1
    21   11   36 1
    22   11   37 1
    23   12   13 2
    24   12   14 1
    25   14   19 ar
    26   14   15 ar
    27   15   16 ar
    28   15   38 1
    29   16   17 ar
    30   16   39 1
    31   17   18 ar
    32   17   20 1
    33   18   19 ar
    34   18   40 1
    35   19   41 1
    36   20   25 ar
    37   20   21 ar
    38   21   22 ar
    39   21   42 1
    40   22   23 ar
    41   22   43 1
    42   23   24 ar
    43   23   26 1
    44   24   25 ar
    45   24   44 1
    46   25   45 1
    47   27   28 2
    48   27   46 1
@<TRIPOS>MOLECULE
ZINC29134634
   28    28     0     0     0
SMALL
USER_CHARGES
[(1R,2S)-2-aminocyclohexyl]carbamoylphosphonic acid
@<TRIPOS>ATOM
      1 C1          3.2145   -2.5972   -2.2728 C.3       1 <0>        -0.1090
      2 C2          3.0956   -2.0966   -0.8319 C.3       1 <0>        -0.1335
      3 C3          1.8012   -2.6277   -0.2127 C.3       1 <0>        -0.1221
      4 C4          0.6049   -2.1293   -1.0260 C.3       1 <0>         0.0996
      5 H1         -0.3390   -2.4687   -0.5745 H         1 <0>         0.0901
      6 C5          0.7238   -2.6299   -2.4670 C.3       1 <0>         0.0387
      7 H2          0.7042   -3.7293   -2.4968 H         1 <0>         0.1307
      8 C6          2.0182   -2.0988   -3.0861 C.3       1 <0>        -0.1432
      9 N1         -0.4248   -2.1514   -3.2479 N.4       1 <0>        -0.6857
     10 N2          0.5851   -0.6645   -1.0180 N.am      1 <0>        -0.7501
     11 C7          0.0021   -0.0041    0.0020 C.2       1 <0>         0.0163
     12 O1         -0.5061   -0.6224    0.9132 O.2       1 <0>        -0.5540
     13 P1         -0.0225    1.8097    0.0120 P.3       1 <0>         2.1324
     14 O2          1.3660    2.3220    0.0015 O.2       1 <0>        -1.1128
     15 O3         -0.8012    2.3431   -1.2923 O.3       1 <0>        -1.1524
     16 O4         -0.7761    2.3290    1.3366 O.3       1 <0>        -1.1410
     17 H3          3.2293   -3.6971   -2.2789 H         1 <0>         0.0655
     18 H4          4.1452   -2.2155   -2.7180 H         1 <0>         0.0807
     19 H5          3.9557   -2.4548   -0.2472 H         1 <0>         0.0705
     20 H6          3.0806   -0.9967   -0.8259 H         1 <0>         0.0856
     21 H7          1.8162   -3.7276   -0.2189 H         1 <0>         0.0622
     22 H8          1.7158   -2.2680    0.8233 H         1 <0>         0.0812
     23 H9          2.0033   -0.9989   -3.0799 H         1 <0>         0.0940
     24 H10         2.1037   -2.4585   -4.1221 H         1 <0>         0.0837
     25 H11        -0.3393   -2.5113   -4.2838 H         1 <0>         0.4447
     26 H12        -0.4396   -1.0515   -3.2418 H         1 <0>         0.4644
     27 H13         1.0460   -0.1037   -1.8445 H         1 <0>         0.4099
     28 H14        -1.3554   -2.5331   -2.8027 H         1 <0>         0.4536
@<TRIPOS>BOND
     1    1    8 1
     2    1    2 1
     3    1   17 1
     4    1   18 1
     5    2    3 1
     6    2   19 1
     7    2   20 1
     8    3    4 1
     9    3   21 1
    10    3   22 1
    11    4    5 1
    12    4    6 1
    13    4   10 1
    14    6    7 1
    15    6    8 1
    16    6    9 1
    17    8   23 1
    18    8   24 1
    19    9   25 1
    20    9   26 1
    21    9   28 1
    22   10   11 am
    23   10   27 1
    24   11   12 2
    25   11   13 1
    26   13   14 2
    27   13   15 1
    28   13   16 1
@<TRIPOS>MOLECULE
ZINC03789788
   63    64     0     0     0
SMALL
USER_CHARGES
2-[1-(hydroxycarbamoyl)-2-(2-thienylsulfanyl)ethyl]-4-methyl-N-[1-(methylcarbamoyl)-2-phenyl-ethyl]-pentanamide
@<TRIPOS>ATOM
      1 C1          3.1221    2.9557    1.7202 C.3       1 <0>        -0.1431
      2 C2          2.5102    1.7687    0.9736 C.3       1 <0>        -0.1379
      3 C3          2.7420    0.4870    1.7763 C.3       1 <0>        -0.1394
      4 C4          1.0073    1.9961    0.7987 C.3       1 <0>        -0.1065
      5 C5          0.4069    0.8410   -0.0051 C.3       1 <0>        -0.0885
      6 H1          0.8505   -0.0991    0.3229 H         1 <0>         0.1149
      7 C6          0.6967    1.0500   -1.4928 C.3       1 <0>        -0.0588
      8 H2          0.1623    1.9316   -1.8467 H         1 <0>         0.1151
      9 C7          0.2335   -0.1774   -2.2801 C.3       1 <0>        -0.1124
     10 S1          0.4407    0.1297   -4.0558 S.3       1 <0>        -0.0144
     11 C8         -0.1286   -1.3552   -4.8145 C.2       1 <0>        -0.1714
     12 C9         -0.1962   -1.6718   -6.1386 C.2       1 <0>        -0.1349
     13 C10        -0.6846   -2.9141   -6.5020 C.2       1 <0>        -0.1423
     14 C11        -1.0794   -3.7751   -5.5344 C.2       1 <0>        -0.1732
     15 S2         -0.7596   -2.8391   -4.0484 S.3       1 <0>         0.0560
     16 C12         2.1774    1.2461   -1.6934 C.2       1 <0>         0.5371
     17 O1          2.9647    0.4671   -1.1991 O.2       1 <0>        -0.4942
     18 N1          2.6267    2.2870   -2.4221 N.am      1 <0>        -0.5886
     19 O2          4.0180    2.4712   -2.6105 O.3       1 <0>        -0.3117
     20 C13        -1.0833    0.7970    0.2150 C.2       1 <0>         0.5303
     21 O3         -1.8280    1.3539   -0.5637 O.2       1 <0>        -0.5294
     22 N2         -1.5885    0.1389    1.2771 N.am      1 <0>        -0.7016
     23 C14        -3.0392    0.0187    1.4421 C.3       1 <0>         0.1370
     24 H3         -3.5070   -0.1037    0.4652 H         1 <0>         0.1156
     25 C15        -3.3542   -1.1982    2.3144 C.3       1 <0>        -0.0835
     26 C16        -2.9289   -2.4537    1.5975 C.ar      1 <0>        -0.0870
     27 C17        -3.8193   -3.1126    0.7704 C.ar      1 <0>        -0.1132
     28 C18        -3.4277   -4.2617    0.1091 C.ar      1 <0>        -0.1147
     29 C19        -2.1491   -4.7576    0.2830 C.ar      1 <0>        -0.1168
     30 C20        -1.2605   -4.1016    1.1142 C.ar      1 <0>        -0.1145
     31 C21        -1.6504   -2.9497    1.7715 C.ar      1 <0>        -0.1117
     32 C22        -3.5745    1.2627    2.1031 C.2       1 <0>         0.5023
     33 O4         -2.8083    2.1045    2.5217 O.2       1 <0>        -0.5232
     34 N3         -4.9046    1.4397    2.2291 N.am      1 <0>        -0.7333
     35 C23        -5.4250    2.6490    2.8717 C.3       1 <0>         0.0870
     36 H4          2.6525    3.0503    2.6993 H         1 <0>         0.0504
     37 H5          4.1928    2.7937    1.8448 H         1 <0>         0.0547
     38 H6          2.9569    3.8689    1.1484 H         1 <0>         0.0490
     39 H7          2.9797    1.6742   -0.0055 H         1 <0>         0.1157
     40 H8          2.1362    0.5109    2.6821 H         1 <0>         0.0464
     41 H9          2.4595   -0.3757    1.1729 H         1 <0>         0.0583
     42 H10         3.7956    0.4125    2.0457 H         1 <0>         0.0537
     43 H11         0.8410    2.9333    0.2676 H         1 <0>         0.0699
     44 H12         0.5307    2.0437    1.7778 H         1 <0>         0.0792
     45 H13         0.8298   -1.0421   -1.9888 H         1 <0>         0.1037
     46 H14        -0.8173   -0.3716   -2.0651 H         1 <0>         0.1097
     47 H15         0.1259   -0.9660   -6.8900 H         1 <0>         0.1365
     48 H16        -0.7498   -3.1935   -7.5431 H         1 <0>         0.1390
     49 H17        -1.4800   -4.7730   -5.6354 H         1 <0>         0.1882
     50 H18         1.9971    2.9101   -2.8174 H         1 <0>         0.4091
     51 H19         4.2434    3.2439   -3.1465 H         1 <0>         0.3897
     52 H20        -0.9916   -0.2550    1.9324 H         1 <0>         0.4059
     53 H21        -2.8146   -1.1182    3.2581 H         1 <0>         0.0879
     54 H22        -4.4256   -1.2370    2.5106 H         1 <0>         0.0954
     55 H23        -4.8196   -2.7277    0.6380 H         1 <0>         0.1221
     56 H24        -4.1221   -4.7744   -0.5400 H         1 <0>         0.1223
     57 H25        -1.8446   -5.6577   -0.2302 H         1 <0>         0.1213
     58 H26        -0.2617   -4.4892    1.2504 H         1 <0>         0.1233
     59 H27        -0.9562   -2.4373    2.4211 H         1 <0>         0.1193
     60 H28        -5.5174    0.7664    1.8943 H         1 <0>         0.4018
     61 H29        -6.5144    2.6151    2.8818 H         1 <0>         0.0772
     62 H30        -5.0537    2.7052    3.8950 H         1 <0>         0.0606
     63 H31        -5.0940    3.5267    2.3165 H         1 <0>         0.0603
@<TRIPOS>BOND
     1    1    2 1
     2    1   36 1
     3    1   37 1
     4    1   38 1
     5    2    3 1
     6    2    4 1
     7    2   39 1
     8    3   40 1
     9    3   41 1
    10    3   42 1
    11    4    5 1
    12    4   43 1
    13    4   44 1
    14    5    6 1
    15    5    7 1
    16    5   20 1
    17    7    8 1
    18    7    9 1
    19    7   16 1
    20    9   10 1
    21    9   45 1
    22    9   46 1
    23   10   11 1
    24   11   15 1
    25   11   12 2
    26   12   13 1
    27   12   47 1
    28   13   14 2
    29   13   48 1
    30   14   15 1
    31   14   49 1
    32   16   17 2
    33   16   18 am
    34   18   19 1
    35   18   50 1
    36   19   51 1
    37   20   21 2
    38   20   22 am
    39   22   23 1
    40   22   52 1
    41   23   24 1
    42   23   25 1
    43   23   32 1
    44   25   26 1
    45   25   53 1
    46   25   54 1
    47   26   31 ar
    48   26   27 ar
    49   27   28 ar
    50   27   55 1
    51   28   29 ar
    52   28   56 1
    53   29   30 ar
    54   29   57 1
    55   30   31 ar
    56   30   58 1
    57   31   59 1
    58   32   33 2
    59   32   34 am
    60   34   35 1
    61   34   60 1
    62   35   61 1
    63   35   62 1
    64   35   63 1
@<TRIPOS>MOLECULE
ZINC29339315
   32    33     0     0     0
SMALL
USER_CHARGES
3-[4-(4-cyanophenyl)phenoxy]propanoic acid
@<TRIPOS>ATOM
      1 C1          4.8801    1.1176   -0.0391 C.ar      1 <0>        -0.0619
      2 C2          3.6771    1.7860   -0.0240 C.ar      1 <0>        -0.1240
      3 C3          2.4799    1.0691   -0.0164 C.ar      1 <0>         0.0134
      4 C4          2.5008   -0.3261   -0.0189 C.ar      1 <0>        -0.1234
      5 C5          3.7024   -0.9969   -0.0402 C.ar      1 <0>        -0.0610
      6 C6          4.9023   -0.2800   -0.0473 C.ar      1 <0>        -0.0471
      7 C7          6.1533   -0.9767   -0.0626 C.1       1 <0>         0.2579
      8 N1          7.1457   -1.5294   -0.0747 N.1       1 <0>        -0.4254
      9 C8          1.1851    1.7902    0.0004 C.ar      1 <0>        -0.1184
     10 C9         -0.0126    1.0758    0.0080 C.ar      1 <0>        -0.0562
     11 C10        -1.2153    1.7496    0.0173 C.ar      1 <0>        -0.2105
     12 C11        -1.2350    3.1381    0.0313 C.ar      1 <0>         0.1569
     13 C12        -0.0442    3.8524    0.0233 C.ar      1 <0>        -0.1609
     14 C13         1.1619    3.1847    0.0081 C.ar      1 <0>        -0.0617
     15 O1         -2.4217    3.7990    0.0462 O.3       1 <0>        -0.3168
     16 C14        -3.6080    3.0023    0.0537 C.3       1 <0>         0.0745
     17 C15        -4.8355    3.9154    0.0703 C.3       1 <0>        -0.1582
     18 C16        -6.0865    3.0752    0.0783 C.2       1 <0>         0.4674
     19 O2         -6.0047    1.8697    0.0714 O.co2     1 <0>        -0.6403
     20 O3         -7.2917    3.6660    0.0930 O.co2     1 <0>        -0.7631
     21 H1          5.8065    1.6727   -0.0450 H         1 <0>         0.1325
     22 H2          3.6596    2.8659   -0.0176 H         1 <0>         0.1363
     23 H3          1.5736   -0.8798   -0.0085 H         1 <0>         0.1369
     24 H4          3.7182   -2.0768   -0.0465 H         1 <0>         0.1329
     25 H5          0.0021   -0.0041    0.0020 H         1 <0>         0.1285
     26 H6         -2.1432    1.1970    0.0183 H         1 <0>         0.1387
     27 H7         -0.0628    4.9322    0.0293 H         1 <0>         0.1331
     28 H8          2.0877    3.7408    0.0019 H         1 <0>         0.1309
     29 H9         -3.6320    2.3720   -0.8475 H         1 <0>         0.0674
     30 H10        -3.6146    2.3628    0.9487 H         1 <0>         0.0675
     31 H11        -4.8114    4.5458    0.9714 H         1 <0>         0.0770
     32 H12        -4.8290    4.5548   -0.8247 H         1 <0>         0.0770
@<TRIPOS>BOND
     1    1    6 ar
     2    1    2 ar
     3    1   21 1
     4    2    3 ar
     5    2   22 1
     6    3    4 ar
     7    3    9 1
     8    4    5 ar
     9    4   23 1
    10    5    6 ar
    11    5   24 1
    12    6    7 1
    13    7    8 3
    14    9   14 ar
    15    9   10 ar
    16   10   11 ar
    17   10   25 1
    18   11   12 ar
    19   11   26 1
    20   12   13 ar
    21   12   15 1
    22   13   14 ar
    23   13   27 1
    24   14   28 1
    25   15   16 1
    26   16   17 1
    27   16   29 1
    28   16   30 1
    29   17   18 1
    30   17   31 1
    31   17   32 1
    32   18   19 2
    33   18   20 1
@<TRIPOS>MOLECULE
ZINC02149995
   45    48     0     0     0
SMALL
USER_CHARGES

@<TRIPOS>ATOM
      1 C1         -0.0164    1.3567    0.0095 C.ar      1 <0>        -0.1036
      2 C2          1.1686    2.0905    0.0021 C.ar      1 <0>        -0.1286
      3 C3          2.3785    1.4675   -0.0131 C.ar      1 <0>        -0.0914
      4 C4          2.4375    0.0634   -0.0211 C.ar      1 <0>        -0.0723
      5 C5          3.6681   -0.6153   -0.0364 C.ar      1 <0>         0.0135
      6 C6          3.6865   -1.9761   -0.0434 C.ar      1 <0>        -0.6567
      7 C7          2.5015   -2.7098   -0.0357 C.ar      1 <0>        -0.0328
      8 C8          1.2917   -2.0868   -0.0209 C.ar      1 <0>        -0.1183
      9 C9          1.2327   -0.6827   -0.0133 C.ar      1 <0>        -0.0060
     10 C10         0.0021   -0.0041    0.0020 C.ar      1 <0>        -0.1106
     11 S1          5.2315   -2.8230   -0.0631 S.o2      1 <0>         2.6871
     12 O1          4.9835   -4.1075   -0.6179 O.2       1 <0>        -0.9450
     13 O2          6.1807   -1.9234   -0.6189 O.2       1 <0>        -0.9772
     14 N1          5.6766   -3.0663    1.5133 N.pl3     1 <0>        -1.0785
     15 C11         4.8732   -3.9368    2.3753 C.3       1 <0>         0.0975
     16 H1          3.8497   -3.9731    2.0023 H         1 <0>         0.0751
     17 C12         4.8766   -3.3851    3.8024 C.3       1 <0>        -0.0391
     18 C13         4.1807   -2.0486    3.8259 C.2       1 <0>        -0.1453
     19 C14         4.7637   -0.8430    3.7330 C.2       1 <0>         0.0384
     20 N2          3.8139    0.1403    3.7916 N.pl3     1 <0>        -0.5972
     21 H2          3.9939    1.0923    3.7446 H         1 <0>         0.4099
     22 C15         2.5648   -0.4228    3.9271 C.ar      1 <0>         0.1031
     23 C16         2.7390   -1.8189    3.9482 C.ar      1 <0>        -0.0973
     24 C17         1.6300   -2.6574    4.0720 C.ar      1 <0>        -0.0629
     25 C18         0.3784   -2.1172    4.1686 C.ar      1 <0>        -0.1530
     26 C19         0.2008   -0.7409    4.1442 C.ar      1 <0>        -0.0997
     27 C20         1.2824    0.1054    4.0320 C.ar      1 <0>        -0.1333
     28 C21         5.4586   -5.3254    2.3723 C.2       1 <0>         0.4912
     29 O3          6.6571   -5.4814    2.2119 O.co2     1 <0>        -0.6828
     30 O4          4.7337   -6.2929    2.5302 O.co2     1 <0>        -0.6925
     31 H3         -0.9633    1.8757    0.0259 H         1 <0>         0.1214
     32 H4          1.1260    3.1696    0.0083 H         1 <0>         0.1208
     33 H5          3.2884    2.0491   -0.0194 H         1 <0>         0.1253
     34 H6          4.5943   -0.0599   -0.0428 H         1 <0>         0.1379
     35 H7          2.5441   -3.7890   -0.0419 H         1 <0>         0.1404
     36 H8          0.3816   -2.6684   -0.0154 H         1 <0>         0.1320
     37 H9         -0.9241   -0.5595    0.0082 H         1 <0>         0.1273
     38 H10         6.4692   -2.6324    1.8660 H         1 <0>         0.4121
     39 H11         4.3540   -4.0785    4.4613 H         1 <0>         0.0827
     40 H12         5.9050   -3.2652    4.1432 H         1 <0>         0.0758
     41 H13         5.8252   -0.6742    3.6279 H         1 <0>         0.1660
     42 H14         1.7605   -3.7294    4.0910 H         1 <0>         0.1235
     43 H15        -0.4794   -2.7664    4.2644 H         1 <0>         0.1168
     44 H16        -0.7946   -0.3290    4.2208 H         1 <0>         0.1162
     45 H17         1.1338    1.1749    4.0127 H         1 <0>         0.1099
@<TRIPOS>BOND
     1    1   10 ar
     2    1    2 ar
     3    1   31 1
     4    2    3 ar
     5    2   32 1
     6    3    4 ar
     7    3   33 1
     8    4    9 ar
     9    4    5 ar
    10    5    6 ar
    11    5   34 1
    12    6    7 ar
    13    6   11 1
    14    7    8 ar
    15    7   35 1
    16    8    9 ar
    17    8   36 1
    18    9   10 ar
    19   10   37 1
    20   11   12 2
    21   11   13 2
    22   11   14 1
    23   14   15 1
    24   14   38 1
    25   15   16 1
    26   15   17 1
    27   15   28 1
    28   17   18 1
    29   17   39 1
    30   17   40 1
    31   18   23 1
    32   18   19 2
    33   19   20 1
    34   19   41 1
    35   20   21 1
    36   20   22 1
    37   22   27 ar
    38   22   23 ar
    39   23   24 ar
    40   24   25 ar
    41   24   42 1
    42   25   26 ar
    43   25   43 1
    44   26   27 ar
    45   26   44 1
    46   27   45 1
    47   28   29 2
    48   28   30 1
@<TRIPOS>MOLECULE
ZINC01542895
   46    46     0     0     0
SMALL
USER_CHARGES

@<TRIPOS>ATOM
      1 C1         -1.4921   -0.2802   -0.1168 C.3       1 <0>        -0.1480
      2 C2          0.0168   -0.0902    0.0502 C.3       1 <0>        -0.0946
      3 C3          0.4965   -0.8703    1.2758 C.3       1 <0>        -0.1503
      4 C4          0.7370   -0.6066   -1.1970 C.3       1 <0>        -0.1084
      5 C5          2.2304   -0.2918   -1.0907 C.3       1 <0>         0.0678
      6 H1          2.6270   -0.7186   -0.1695 H         1 <0>         0.0947
      7 C6          2.9543   -0.8853   -2.2717 C.2       1 <0>         0.4976
      8 O1          3.4188   -0.1561   -3.1314 O.co2     1 <0>        -0.7136
      9 O2          3.0754   -2.0947   -2.3676 O.co2     1 <0>        -0.6706
     10 N1          2.4237    1.1604   -1.0789 N.am      1 <0>        -0.6768
     11 C7          3.5233    1.6892   -0.5064 C.2       1 <0>         0.4501
     12 O3          4.3528    0.9629   -0.0011 O.2       1 <0>        -0.5167
     13 C8          3.7222    3.1829   -0.4943 C.3       1 <0>         0.0771
     14 H2          2.8536    3.6614   -0.0419 H         1 <0>         0.1637
     15 C9          3.8924    3.6865   -1.9290 C.3       1 <0>         0.0050
     16 H3          2.9682    3.5231   -2.4834 H         1 <0>         0.1563
     17 C10         4.2180    5.1813   -1.9096 C.3       1 <0>        -0.0899
     18 C11         4.2645    5.7037   -3.3224 C.ar      1 <0>        -0.1239
     19 C12         5.4532    5.6842   -4.0277 C.ar      1 <0>        -0.1395
     20 C13         5.4959    6.1633   -5.3236 C.ar      1 <0>        -0.1080
     21 C14         4.3497    6.6615   -5.9144 C.ar      1 <0>        -0.1065
     22 C15         3.1608    6.6802   -5.2094 C.ar      1 <0>        -0.1069
     23 C16         3.1172    6.1971   -3.9150 C.ar      1 <0>        -0.1039
     24 N2          4.9886    2.9549   -2.5779 N.4       1 <0>        -0.6381
     25 O4          4.8906    3.5018    0.2642 O.3       1 <0>        -0.5140
     26 H4         -1.8485    0.3439   -0.9363 H         1 <0>         0.0522
     27 H5         -1.7043   -1.3262   -0.3379 H         1 <0>         0.0571
     28 H6         -1.9986    0.0063    0.8049 H         1 <0>         0.0532
     29 H7          0.2370    0.9689    0.1845 H         1 <0>         0.0619
     30 H8          0.2764   -1.9293    1.1415 H         1 <0>         0.0580
     31 H9          1.5715   -0.7349    1.3948 H         1 <0>         0.0554
     32 H10        -0.0165   -0.5023    2.1644 H         1 <0>         0.0512
     33 H11         0.5977   -1.6848   -1.2767 H         1 <0>         0.0865
     34 H12         0.3253   -0.1207   -2.0817 H         1 <0>         0.0633
     35 H13         1.7603    1.7412   -1.4830 H         1 <0>         0.3944
     36 H14         3.4484    5.7136   -1.3505 H         1 <0>         0.1229
     37 H15         5.1859    5.3362   -1.4329 H         1 <0>         0.1051
     38 H16         6.3487    5.2949   -3.5661 H         1 <0>         0.1226
     39 H17         6.4247    6.1488   -5.8744 H         1 <0>         0.1304
     40 H18         4.3832    7.0365   -6.9267 H         1 <0>         0.1298
     41 H19         2.2654    7.0697   -5.6709 H         1 <0>         0.1308
     42 H20         2.1875    6.2082   -3.3654 H         1 <0>         0.1303
     43 H21         4.7738    1.9691   -2.5907 H         1 <0>         0.4538
     44 H22         5.1008    3.2870   -3.5240 H         1 <0>         0.4364
     45 H23         5.7035    3.1085   -0.0817 H         1 <0>         0.3783
     46 H24         5.8440    3.1062   -2.0647 H         1 <0>         0.4236
@<TRIPOS>BOND
     1    1    2 1
     2    1   26 1
     3    1   27 1
     4    1   28 1
     5    2    3 1
     6    2    4 1
     7    2   29 1
     8    3   30 1
     9    3   31 1
    10    3   32 1
    11    4    5 1
    12    4   33 1
    13    4   34 1
    14    5    6 1
    15    5    7 1
    16    5   10 1
    17    7    8 2
    18    7    9 1
    19   10   11 am
    20   10   35 1
    21   11   12 2
    22   11   13 1
    23   13   14 1
    24   13   15 1
    25   13   25 1
    26   15   16 1
    27   15   17 1
    28   15   24 1
    29   17   18 1
    30   17   36 1
    31   17   37 1
    32   18   23 ar
    33   18   19 ar
    34   19   20 ar
    35   19   38 1
    36   20   21 ar
    37   20   39 1
    38   21   22 ar
    39   21   40 1
    40   22   23 ar
    41   22   41 1
    42   23   42 1
    43   24   43 1
    44   24   44 1
    45   24   46 1
    46   25   45 1
@<TRIPOS>MOLECULE
ZINC01542895
   45    45     0     0     0
SMALL
USER_CHARGES

@<TRIPOS>ATOM
      1 C1          0.6528   -0.2592    1.3564 C.3       1 <0>        -0.1445
      2 C2          0.0386   -0.0894   -0.0345 C.3       1 <0>        -0.0966
      3 C3          0.8796   -0.8522   -1.0600 C.3       1 <0>        -0.1471
      4 C4         -1.3882   -0.6419   -0.0329 C.3       1 <0>        -0.1047
      5 C5         -2.0504   -0.3483   -1.3805 C.3       1 <0>         0.0724
      6 H1         -1.4402   -0.7627   -2.1831 H         1 <0>         0.0844
      7 C6         -3.4197   -0.9765   -1.4149 C.2       1 <0>         0.4903
      8 O1         -4.4145   -0.2719   -1.3899 O.co2     1 <0>        -0.6843
      9 O2         -3.5329   -2.1893   -1.4677 O.co2     1 <0>        -0.6968
     10 N1         -2.1732    1.1006   -1.5589 N.am      1 <0>        -0.6848
     11 C7         -2.2403    1.6236   -2.7993 C.2       1 <0>         0.4808
     12 O3         -2.1991    0.8947   -3.7678 O.2       1 <0>        -0.5425
     13 C8         -2.3666    3.1140   -2.9828 C.3       1 <0>         0.0531
     14 H2         -1.5529    3.6150   -2.4584 H         1 <0>         0.1189
     15 C9         -3.7065    3.5861   -2.4146 C.3       1 <0>         0.0778
     16 H3         -3.7206    3.4261   -1.3365 H         1 <0>         0.0933
     17 C10        -3.8900    5.0758   -2.7116 C.3       1 <0>        -0.0675
     18 C11        -5.1496    5.5690   -2.0473 C.ar      1 <0>        -0.0627
     19 C12        -6.3538    5.5169   -2.7241 C.ar      1 <0>        -0.0897
     20 C13        -7.5092    5.9693   -2.1148 C.ar      1 <0>        -0.1228
     21 C14        -7.4604    6.4734   -0.8286 C.ar      1 <0>        -0.1293
     22 C15        -6.2564    6.5247   -0.1515 C.ar      1 <0>        -0.1239
     23 C16        -5.1017    6.0683   -0.7592 C.ar      1 <0>        -0.1216
     24 N2         -4.7978    2.8247   -3.0370 N.3       1 <0>        -0.8349
     25 O4         -2.3018    3.4298   -4.3750 O.3       1 <0>        -0.5371
     26 H4          1.6967    0.0535    1.3333 H         1 <0>         0.0492
     27 H5          0.1057    0.3539    2.0726 H         1 <0>         0.0514
     28 H6          0.5937   -1.3060    1.6544 H         1 <0>         0.0539
     29 H7          0.0183    0.9685   -0.2960 H         1 <0>         0.0646
     30 H8          0.8999   -1.9102   -0.7985 H         1 <0>         0.0544
     31 H9          0.4420   -0.7313   -2.0510 H         1 <0>         0.0576
     32 H10         1.8961   -0.4587   -1.0612 H         1 <0>         0.0469
     33 H11        -1.3606   -1.7191    0.1314 H         1 <0>         0.0795
     34 H12        -1.9606   -0.1674    0.7642 H         1 <0>         0.0604
     35 H13        -2.2061    1.6836   -0.7844 H         1 <0>         0.3898
     36 H14        -3.0347    5.6310   -2.3264 H         1 <0>         0.0744
     37 H15        -3.9648    5.2250   -3.7887 H         1 <0>         0.0776
     38 H16        -6.3919    5.1230   -3.7290 H         1 <0>         0.1198
     39 H17        -8.4499    5.9293   -2.6438 H         1 <0>         0.1166
     40 H18        -8.3630    6.8275   -0.3528 H         1 <0>         0.1149
     41 H19        -6.2182    6.9188    0.8533 H         1 <0>         0.1159
     42 H20        -4.1616    6.1049   -0.2288 H         1 <0>         0.1168
     43 H21        -4.8061    2.9566   -4.0373 H         1 <0>         0.3280
     44 H22        -2.9976    3.0171   -4.9047 H         1 <0>         0.3769
     45 H23        -4.7354    1.8455   -2.8019 H         1 <0>         0.3711
@<TRIPOS>BOND
     1    1    2 1
     2    1   26 1
     3    1   27 1
     4    1   28 1
     5    2    3 1
     6    2    4 1
     7    2   29 1
     8    3   30 1
     9    3   31 1
    10    3   32 1
    11    4    5 1
    12    4   33 1
    13    4   34 1
    14    5    6 1
    15    5    7 1
    16    5   10 1
    17    7    8 2
    18    7    9 1
    19   10   11 am
    20   10   35 1
    21   11   12 2
    22   11   13 1
    23   13   14 1
    24   13   15 1
    25   13   25 1
    26   15   16 1
    27   15   17 1
    28   15   24 1
    29   17   18 1
    30   17   36 1
    31   17   37 1
    32   18   23 ar
    33   18   19 ar
    34   19   20 ar
    35   19   38 1
    36   20   21 ar
    37   20   39 1
    38   21   22 ar
    39   21   40 1
    40   22   23 ar
    41   22   41 1
    42   23   42 1
    43   24   43 1
    44   24   45 1
    45   25   44 1
@<TRIPOS>MOLECULE
ZINC00578599
   41    42     0     0     0
SMALL
USER_CHARGES

@<TRIPOS>ATOM
      1 C1         -0.0187    1.5258    0.0104 C.3       1 <0>        -0.1455
      2 C2          0.0021   -0.0041    0.0020 C.3       1 <0>        -0.0797
      3 C3          0.7421   -0.5109    1.2415 C.3       1 <0>        -0.1453
      4 C4         -1.4333   -0.5336    0.0129 C.3       1 <0>         0.0800
      5 H1         -1.9435   -0.1821    0.9097 H         1 <0>         0.0809
      6 C5         -2.1622   -0.0344   -1.2080 C.2       1 <0>         0.4843
      7 O1         -2.4620   -0.8108   -2.0990 O.co2     1 <0>        -0.6780
      8 O2         -2.4521    1.1459   -1.3048 O.co2     1 <0>        -0.6890
      9 N1         -1.4134   -1.9985    0.0048 N.pl3     1 <0>        -1.0818
     10 S1         -2.5690   -2.8468    0.8339 S.o2      1 <0>         2.6971
     11 O3         -2.2983   -4.2242    0.6130 O.2       1 <0>        -0.9763
     12 O4         -2.6312   -2.2820    2.1364 O.2       1 <0>        -0.9696
     13 C6         -4.1170   -2.5080    0.0637 C.ar      1 <0>        -0.6484
     14 C7         -4.8801   -1.4368    0.4922 C.ar      1 <0>        -0.0083
     15 C8         -6.0936   -1.1670   -0.1073 C.ar      1 <0>        -0.1252
     16 C9         -6.5496   -1.9758   -1.1463 C.ar      1 <0>        -0.0035
     17 C10        -5.7766   -3.0533   -1.5743 C.ar      1 <0>        -0.1287
     18 C11        -4.5621   -3.3107   -0.9711 C.ar      1 <0>         0.0010
     19 C12        -7.8537   -1.6910   -1.7943 C.ar      1 <0>        -0.0368
     20 C13        -8.6240   -0.6103   -1.3697 C.ar      1 <0>        -0.0935
     21 C14        -9.8359   -0.3493   -1.9758 C.ar      1 <0>        -0.1081
     22 C15       -10.2870   -1.1593   -3.0039 C.ar      1 <0>        -0.0354
     23 C16        -9.5255   -2.2345   -3.4290 C.ar      1 <0>        -0.1089
     24 C17        -8.3093   -2.5000   -2.8334 C.ar      1 <0>        -0.0944
     25 Cl1       -11.8127   -0.8261   -3.7621 Cl        1 <0>        -0.0753
     26 H2          1.0039    1.9031    0.0027 H         1 <0>         0.0394
     27 H3         -0.5459    1.8868   -0.8726 H         1 <0>         0.0871
     28 H4         -0.5289    1.8773    0.9072 H         1 <0>         0.0484
     29 H5          0.5123   -0.3556   -0.8948 H         1 <0>         0.0671
     30 H6          0.7568   -1.6008    1.2356 H         1 <0>         0.0506
     31 H7          1.7647   -0.1336    1.2338 H         1 <0>         0.0485
     32 H8          0.2319   -0.1594    2.1383 H         1 <0>         0.0540
     33 H9         -0.7234   -2.4715   -0.4862 H         1 <0>         0.4129
     34 H10        -4.5257   -0.8106    1.2976 H         1 <0>         0.1363
     35 H11        -6.6890   -0.3309    0.2286 H         1 <0>         0.1302
     36 H12        -6.1252   -3.6833   -2.3792 H         1 <0>         0.1297
     37 H13        -3.9602   -4.1429   -1.3050 H         1 <0>         0.1373
     38 H14        -8.2733    0.0218   -0.5673 H         1 <0>         0.1384
     39 H15       -10.4337    0.4881   -1.6474 H         1 <0>         0.1356
     40 H16        -9.8817   -2.8638   -4.2312 H         1 <0>         0.1352
     41 H17        -7.7138   -3.3361   -3.1690 H         1 <0>         0.1378
@<TRIPOS>BOND
     1    1    2 1
     2    1   26 1
     3    1   27 1
     4    1   28 1
     5    2    3 1
     6    2    4 1
     7    2   29 1
     8    3   30 1
     9    3   31 1
    10    3   32 1
    11    4    5 1
    12    4    6 1
    13    4    9 1
    14    6    7 2
    15    6    8 1
    16    9   10 1
    17    9   33 1
    18   10   11 2
    19   10   12 2
    20   10   13 1
    21   13   18 ar
    22   13   14 ar
    23   14   15 ar
    24   14   34 1
    25   15   16 ar
    26   15   35 1
    27   16   17 ar
    28   16   19 1
    29   17   18 ar
    30   17   36 1
    31   18   37 1
    32   19   24 ar
    33   19   20 ar
    34   20   21 ar
    35   20   38 1
    36   21   22 ar
    37   21   39 1
    38   22   23 ar
    39   22   25 1
    40   23   24 ar
    41   23   40 1
    42   24   41 1
@<TRIPOS>MOLECULE
ZINC03870412
   51    54     0     0     0
SMALL
USER_CHARGES

@<TRIPOS>ATOM
      1 C1         -0.0167    1.3824    0.0096 C.ar      1 <0>        -0.1232
      2 C2          1.1697    2.0917    0.0021 C.ar      1 <0>        -0.0728
      3 C3          2.3792    1.4226   -0.0135 C.ar      1 <0>        -0.0978
      4 C4          2.4066    0.0362   -0.0217 C.ar      1 <0>         0.0943
      5 C5          1.2160   -0.6806   -0.0137 C.ar      1 <0>         0.0658
      6 C6          0.0021   -0.0041    0.0020 C.ar      1 <0>         0.0986
      7 O1         -1.1658   -0.7009    0.0099 O.3       1 <0>        -0.4875
      8 O2          1.2387   -2.0413   -0.0217 O.3       1 <0>        -0.4804
      9 O3          3.5971   -0.6212   -0.0380 O.3       1 <0>        -0.4833
     10 C7          1.1446    3.5984    0.0105 C.3       1 <0>         0.1463
     11 H1          0.2126    3.9475    0.4550 H         1 <0>         0.1098
     12 C8          1.2611    4.1251   -1.4256 C.3       1 <0>         0.0607
     13 H2          0.4684    3.6972   -2.0393 H         1 <0>         0.1110
     14 C9          1.1215    5.6490   -1.3913 C.3       1 <0>        -0.0887
     15 C10         2.0188    6.2172   -0.3211 C.ar      1 <0>        -0.1934
     16 C11         2.3348    7.5707   -0.3637 C.ar      1 <0>         0.1618
     17 C12         3.1535    8.1275    0.6048 C.ar      1 <0>        -0.1998
     18 C13         3.6597    7.3319    1.6220 C.ar      1 <0>         0.1590
     19 C14         3.3464    5.9836    1.6646 C.ar      1 <0>        -0.1810
     20 C15         2.5265    5.4225    0.6909 C.ar      1 <0>         0.1700
     21 O4          2.2521    4.0938    0.7639 O.3       1 <0>        -0.2919
     22 O5          4.4620    7.8746    2.5751 O.3       1 <0>        -0.4915
     23 O6          1.8385    8.3503   -1.3601 O.3       1 <0>        -0.4908
     24 O7          2.5347    3.7694   -1.9673 O.3       1 <0>        -0.3234
     25 C16         2.6005    3.5753   -3.2991 C.2       1 <0>         0.5152
     26 O8          1.6037    3.7045   -3.9818 O.2       1 <0>        -0.4949
     27 C17         3.8823    3.2060   -3.9281 C.ar      1 <0>        -0.1035
     28 C18         5.0283    3.0514   -3.1432 C.ar      1 <0>        -0.0764
     29 C19         6.2283    2.7053   -3.7353 C.ar      1 <0>         0.0874
     30 C20         6.2961    2.5111   -5.1125 C.ar      1 <0>         0.0957
     31 C21         5.1559    2.6649   -5.8970 C.ar      1 <0>         0.0871
     32 C22         3.9519    3.0043   -5.3093 C.ar      1 <0>        -0.0733
     33 O9          5.2258    2.4749   -7.2418 O.3       1 <0>        -0.4778
     34 O10         7.4772    2.1713   -5.6921 O.3       1 <0>        -0.4725
     35 O11         7.3439    2.5547   -2.9722 O.3       1 <0>        -0.4781
     36 H3         -0.9596    1.9089    0.0260 H         1 <0>         0.1412
     37 H4          3.3040    1.9803   -0.0197 H         1 <0>         0.1453
     38 H5         -1.5123   -0.8977   -0.8712 H         1 <0>         0.3973
     39 H6          1.2542   -2.4396    0.8593 H         1 <0>         0.3921
     40 H7          3.9506   -0.8164    0.8407 H         1 <0>         0.3917
     41 H8          1.4057    6.0611   -2.3595 H         1 <0>         0.0993
     42 H9          0.0865    5.9136   -1.1749 H         1 <0>         0.0973
     43 H10         3.3971    9.1790    0.5682 H         1 <0>         0.1392
     44 H11         3.7408    5.3648    2.4571 H         1 <0>         0.1416
     45 H12         3.9848    8.2124    3.3453 H         1 <0>         0.3966
     46 H13         0.9859    8.7570   -1.1536 H         1 <0>         0.3948
     47 H14         4.9764    3.2026   -2.0751 H         1 <0>         0.1522
     48 H15         3.0669    3.1188   -5.9176 H         1 <0>         0.1531
     49 H16         5.0544    1.5647   -7.5199 H         1 <0>         0.3927
     50 H17         7.6276    1.2177   -5.7487 H         1 <0>         0.3919
     51 H18         7.4749    1.6560   -2.6401 H         1 <0>         0.3928
@<TRIPOS>BOND
     1    1    6 ar
     2    1    2 ar
     3    1   36 1
     4    2    3 ar
     5    2   10 1
     6    3    4 ar
     7    3   37 1
     8    4    5 ar
     9    4    9 1
    10    5    6 ar
    11    5    8 1
    12    6    7 1
    13    7   38 1
    14    8   39 1
    15    9   40 1
    16   10   11 1
    17   10   21 1
    18   10   12 1
    19   12   13 1
    20   12   14 1
    21   12   24 1
    22   14   15 1
    23   14   41 1
    24   14   42 1
    25   15   20 ar
    26   15   16 ar
    27   16   17 ar
    28   16   23 1
    29   17   18 ar
    30   17   43 1
    31   18   19 ar
    32   18   22 1
    33   19   20 ar
    34   19   44 1
    35   20   21 1
    36   22   45 1
    37   23   46 1
    38   24   25 1
    39   25   26 2
    40   25   27 1
    41   27   32 ar
    42   27   28 ar
    43   28   29 ar
    44   28   47 1
    45   29   30 ar
    46   29   35 1
    47   30   31 ar
    48   30   34 1
    49   31   32 ar
    50   31   33 1
    51   32   48 1
    52   33   49 1
    53   34   50 1
    54   35   51 1
@<TRIPOS>MOLECULE
ZINC00836095
   67    69     0     0     0
SMALL
USER_CHARGES
3-(cyclopentylmethyl)-4-oxo-4-(1-piperidyl)-2-[(3,4,4-trimethyl-2,5-dioxo-imidazolidin-1-yl)methyl]butanehydroxamic acid
@<TRIPOS>ATOM
      1 C1         10.4671   -2.6652    0.2435 C.3       1 <0>        -0.1431
      2 C2         10.1863   -1.1655    0.1302 C.3       1 <0>         0.1170
      3 C3          9.1803   -0.7266    1.1756 C.2       1 <0>         0.5224
      4 O1          9.3030   -0.7855    2.3803 O.2       1 <0>        -0.4408
      5 N1          8.1202   -0.2588    0.4873 N.am      1 <0>        -0.5835
      6 C4          8.3177   -0.3335   -0.8338 C.2       1 <0>         0.6957
      7 O2          7.5049    0.0322   -1.6602 O.2       1 <0>        -0.5329
      8 N2          9.5164   -0.8586   -1.1454 N.am      1 <0>        -0.6190
      9 C5         10.0510   -1.0823   -2.4909 C.3       1 <0>         0.1148
     10 C6          6.9044    0.2719    1.1090 C.3       1 <0>         0.1265
     11 C7          5.8483   -0.8324    1.1880 C.3       1 <0>        -0.0990
     12 H1          5.6684   -1.2350    0.1912 H         1 <0>         0.1108
     13 C8          4.5468   -0.2543    1.7470 C.3       1 <0>        -0.0966
     14 H2          4.7267    0.1484    2.7438 H         1 <0>         0.1117
     15 C9          4.0487    0.8630    0.8280 C.3       1 <0>        -0.1048
     16 C10         2.8463    1.5555    1.4725 C.3       1 <0>        -0.0926
     17 C11         1.6306    0.6059    1.4794 C.3       1 <0>        -0.1404
     18 C12         0.4217    1.5356    1.2046 C.3       1 <0>        -0.1230
     19 C13         0.9905    2.5414    0.1732 C.3       1 <0>        -0.1248
     20 C14         2.4395    2.7859    0.6427 C.3       1 <0>        -0.1191
     21 C15         3.5066   -1.3419    1.8248 C.2       1 <0>         0.5322
     22 O3          3.1445   -1.9080    0.8152 O.2       1 <0>        -0.5404
     23 N3          2.9786   -1.6855    3.0163 N.am      1 <0>        -0.6010
     24 C16         1.8886   -2.6674    3.0969 C.3       1 <0>         0.1107
     25 C17         0.7262   -2.0504    3.8811 C.3       1 <0>        -0.1358
     26 C18         1.2346   -1.5627    5.2397 C.3       1 <0>        -0.1203
     27 C19         2.3016   -0.4857    5.0304 C.3       1 <0>        -0.1389
     28 C20         3.4818   -1.0850    4.2592 C.3       1 <0>         0.1069
     29 C21         6.3389   -1.9328    2.0932 C.2       1 <0>         0.5300
     30 O4          6.2580   -1.8091    3.2970 O.2       1 <0>        -0.4994
     31 N4          6.8674   -3.0545    1.5651 N.am      1 <0>        -0.5932
     32 O5          7.2305   -4.1317    2.4095 O.3       1 <0>        -0.3102
     33 C22        11.4835   -0.3651    0.2632 C.3       1 <0>        -0.1464
     34 H3         11.1119   -2.9773   -0.5780 H         1 <0>         0.0822
     35 H4         10.9622   -2.8715    1.1925 H         1 <0>         0.0863
     36 H5          9.5273   -3.2154    0.1969 H         1 <0>         0.0598
     37 H6          9.3213   -0.7542   -3.2310 H         1 <0>         0.0928
     38 H7         10.9737   -0.5153   -2.6141 H         1 <0>         0.0700
     39 H8         10.2559   -2.1440   -2.6285 H         1 <0>         0.0693
     40 H9          6.5216    1.0987    0.5108 H         1 <0>         0.1195
     41 H10         7.1351    0.6265    2.1136 H         1 <0>         0.1111
     42 H11         4.8467    1.5893    0.6737 H         1 <0>         0.0797
     43 H12         3.7526    0.4392   -0.1316 H         1 <0>         0.0839
     44 H13         3.0909    1.8564    2.4912 H         1 <0>         0.0725
     45 H14         1.7249   -0.1403    0.6904 H         1 <0>         0.0776
     46 H15         1.5288    0.1236    2.4516 H         1 <0>         0.0730
     47 H16         0.1149    2.0488    2.1160 H         1 <0>         0.0631
     48 H17        -0.4112    0.9757    0.7793 H         1 <0>         0.0629
     49 H18         0.4213    3.4707    0.1927 H         1 <0>         0.0631
     50 H19         0.9816    2.1083   -0.8270 H         1 <0>         0.0646
     51 H20         2.4859    3.6838    1.2589 H         1 <0>         0.0641
     52 H21         3.0988    2.8896   -0.2191 H         1 <0>         0.0664
     53 H22         2.2405   -3.5628    3.6093 H         1 <0>         0.0654
     54 H23         1.5549   -2.9262    2.0921 H         1 <0>         0.0910
     55 H24        -0.0503   -2.8005    4.0311 H         1 <0>         0.0749
     56 H25         0.3166   -1.2088    3.3225 H         1 <0>         0.0695
     57 H26         0.4044   -1.1454    5.8096 H         1 <0>         0.0660
     58 H27         1.6665   -2.4001    5.7877 H         1 <0>         0.0645
     59 H28         1.8771    0.3411    4.4609 H         1 <0>         0.0688
     60 H29         2.6464   -0.1222    5.9984 H         1 <0>         0.0765
     61 H30         3.9637   -1.8514    4.8663 H         1 <0>         0.0748
     62 H31         4.1994   -0.2997    4.0212 H         1 <0>         0.0911
     63 H32         6.9991   -3.1239    0.6066 H         1 <0>         0.4019
     64 H33         7.6006   -4.8918    1.9401 H         1 <0>         0.3856
     65 H34        11.2577    0.7008    0.2304 H         1 <0>         0.0674
     66 H35        11.9633   -0.6058    1.2119 H         1 <0>         0.0855
     67 H36        12.1535   -0.6200   -0.5579 H         1 <0>         0.0814
@<TRIPOS>BOND
     1    1    2 1
     2    1   34 1
     3    1   35 1
     4    1   36 1
     5    2    8 1
     6    2    3 1
     7    2   33 1
     8    3    4 2
     9    3    5 am
    10    5    6 am
    11    5   10 1
    12    6    7 2
    13    6    8 am
    14    8    9 1
    15    9   37 1
    16    9   38 1
    17    9   39 1
    18   10   11 1
    19   10   40 1
    20   10   41 1
    21   11   12 1
    22   11   13 1
    23   11   29 1
    24   13   14 1
    25   13   15 1
    26   13   21 1
    27   15   16 1
    28   15   42 1
    29   15   43 1
    30   16   20 1
    31   16   17 1
    32   16   44 1
    33   17   18 1
    34   17   45 1
    35   17   46 1
    36   18   19 1
    37   18   47 1
    38   18   48 1
    39   19   20 1
    40   19   49 1
    41   19   50 1
    42   20   51 1
    43   20   52 1
    44   21   22 2
    45   21   23 am
    46   23   28 1
    47   23   24 1
    48   24   25 1
    49   24   53 1
    50   24   54 1
    51   25   26 1
    52   25   55 1
    53   25   56 1
    54   26   27 1
    55   26   57 1
    56   26   58 1
    57   27   28 1
    58   27   59 1
    59   27   60 1
    60   28   61 1
    61   28   62 1
    62   29   30 2
    63   29   31 am
    64   31   32 1
    65   31   63 1
    66   32   64 1
    67   33   65 1
    68   33   66 1
    69   33   67 1
@<TRIPOS>MOLECULE
ZINC03979014
   62    62     0     0     0
SMALL
USER_CHARGES

@<TRIPOS>ATOM
      1 C1          3.2541    2.1779    2.6729 C.3       1 <0>        -0.1533
      2 C2          3.5223    0.6722    2.6297 C.3       1 <0>        -0.1245
      3 C3          2.1925   -0.0837    2.6626 C.3       1 <0>        -0.1167
      4 C4          2.4606   -1.5894    2.6195 C.3       1 <0>        -0.1220
      5 C5          1.1309   -2.3454    2.6523 C.3       1 <0>        -0.1012
      6 C6          1.3906   -3.8423    2.4715 C.3       1 <0>        -0.0906
      7 H1          1.9759   -4.0028    1.5661 H         1 <0>         0.1121
      8 C7          0.0559   -4.5810    2.3536 C.3       1 <0>        -0.1229
      9 C8         -0.6306   -4.1768    1.0744 C.2       1 <0>         0.5261
     10 O1         -0.0560   -3.4677    0.2757 O.2       1 <0>        -0.5085
     11 N1         -1.8830   -4.6035    0.8179 N.am      1 <0>        -0.5979
     12 O2         -2.5281   -4.2238   -0.3841 O.3       1 <0>        -0.3170
     13 C9          2.1519   -4.3674    3.6614 C.2       1 <0>         0.5240
     14 O3          2.4567   -3.6181    4.5650 O.2       1 <0>        -0.5188
     15 N2          2.4941   -5.6696    3.7213 N.am      1 <0>        -0.7120
     16 C10         3.2342   -6.1801    4.8780 C.3       1 <0>         0.1368
     17 H2          3.9252   -5.4157    5.2334 H         1 <0>         0.1131
     18 C11         2.2515   -6.5381    5.9947 C.3       1 <0>        -0.1069
     19 C12         1.4658   -5.2901    6.4022 C.3       1 <0>        -0.1379
     20 C13         1.2815   -7.6111    5.4959 C.3       1 <0>        -0.1463
     21 C14         4.0080   -7.4094    4.4766 C.2       1 <0>         0.5325
     22 O4          3.9473   -7.8188    3.3366 O.2       1 <0>        -0.5380
     23 N3          4.7676   -8.0538    5.3845 N.am      1 <0>        -0.6013
     24 C15         4.9262   -7.6706    6.7992 C.3       1 <0>         0.0968
     25 C16         6.2883   -8.2744    7.2233 C.3       1 <0>        -0.1335
     26 C17         6.2883   -9.6182    6.4476 C.3       1 <0>        -0.1268
     27 C18         5.5701   -9.2590    5.1296 C.3       1 <0>         0.1392
     28 H3          6.3063   -9.0564    4.3518 H         1 <0>         0.0890
     29 C19         4.6583  -10.4101    4.7002 C.3       1 <0>         0.0623
     30 O5          3.7918  -10.7602    5.7813 O.3       1 <0>        -0.5666
     31 H4          2.7180    2.4254    3.5891 H         1 <0>         0.0527
     32 H5          4.2015    2.7165    2.6495 H         1 <0>         0.0520
     33 H6          2.6518    2.4646    1.8108 H         1 <0>         0.0528
     34 H7          4.0583    0.4248    1.7135 H         1 <0>         0.0590
     35 H8          4.1246    0.3856    3.4918 H         1 <0>         0.0600
     36 H9          1.6564    0.1637    3.5789 H         1 <0>         0.0596
     37 H10         1.5902    0.2029    1.8006 H         1 <0>         0.0585
     38 H11         2.9967   -1.8369    1.7032 H         1 <0>         0.0556
     39 H12         3.0630   -1.8761    3.4815 H         1 <0>         0.0786
     40 H13         0.6396   -2.1750    3.6103 H         1 <0>         0.0680
     41 H14         0.4897   -1.9880    1.8466 H         1 <0>         0.0795
     42 H15         0.2351   -5.6561    2.3458 H         1 <0>         0.1035
     43 H16        -0.5776   -4.3244    3.2027 H         1 <0>         0.1055
     44 H17        -2.3426   -5.1707    1.4566 H         1 <0>         0.4082
     45 H18        -3.4228   -4.5780   -0.4792 H         1 <0>         0.3886
     46 H19         2.2503   -6.2689    2.9986 H         1 <0>         0.4080
     47 H20         2.8021   -6.9179    6.8553 H         1 <0>         0.0882
     48 H21         0.7657   -5.5451    7.1978 H         1 <0>         0.0518
     49 H22         2.1568   -4.5257    6.7576 H         1 <0>         0.0658
     50 H23         0.9152   -4.9103    5.5416 H         1 <0>         0.0555
     51 H24         1.8412   -8.5002    5.2056 H         1 <0>         0.0560
     52 H25         0.5814   -7.8661    6.2915 H         1 <0>         0.0598
     53 H26         0.7308   -7.2313    4.6353 H         1 <0>         0.0542
     54 H27         4.9450   -6.5853    6.8985 H         1 <0>         0.0785
     55 H28         4.1205   -8.0934    7.3994 H         1 <0>         0.0793
     56 H29         7.1140   -7.6388    6.9035 H         1 <0>         0.0768
     57 H30         6.3222   -8.4445    8.2994 H         1 <0>         0.0878
     58 H31         7.3078   -9.9524    6.2553 H         1 <0>         0.0815
     59 H32         5.7286  -10.3782    6.9928 H         1 <0>         0.0913
     60 H33         4.0618  -10.1004    3.8421 H         1 <0>         0.0611
     61 H34         5.2662  -11.2729    4.4278 H         1 <0>         0.0544
     62 H35         3.1843  -11.4850    5.5795 H         1 <0>         0.3790
@<TRIPOS>BOND
     1    1    2 1
     2    1   31 1
     3    1   32 1
     4    1   33 1
     5    2    3 1
     6    2   34 1
     7    2   35 1
     8    3    4 1
     9    3   36 1
    10    3   37 1
    11    4    5 1
    12    4   38 1
    13    4   39 1
    14    5    6 1
    15    5   40 1
    16    5   41 1
    17    6    7 1
    18    6    8 1
    19    6   13 1
    20    8    9 1
    21    8   42 1
    22    8   43 1
    23    9   10 2
    24    9   11 am
    25   11   12 1
    26   11   44 1
    27   12   45 1
    28   13   14 2
    29   13   15 am
    30   15   16 1
    31   15   46 1
    32   16   17 1
    33   16   18 1
    34   16   21 1
    35   18   19 1
    36   18   20 1
    37   18   47 1
    38   19   48 1
    39   19   49 1
    40   19   50 1
    41   20   51 1
    42   20   52 1
    43   20   53 1
    44   21   22 2
    45   21   23 am
    46   23   27 1
    47   23   24 1
    48   24   25 1
    49   24   54 1
    50   24   55 1
    51   25   26 1
    52   25   56 1
    53   25   57 1
    54   26   27 1
    55   26   58 1
    56   26   59 1
    57   27   28 1
    58   27   29 1
    59   29   30 1
    60   29   60 1
    61   29   61 1
    62   30   62 1
@<TRIPOS>MOLECULE
ZINC03818629
   41    41     0     0     0
SMALL
USER_CHARGES

@<TRIPOS>ATOM
      1 C1          0.3217    1.2381   -0.4555 C.3       1 <0>        -0.1483
      2 C2          0.1189   -0.2089   -0.0016 C.3       1 <0>        -0.1216
      3 C3          0.8424   -0.4325    1.3278 C.3       1 <0>        -0.1516
      4 C4         -1.3757   -0.4820    0.1789 C.3       1 <0>         0.1171
      5 N1         -1.5796   -1.9006    0.4828 N.pl3     1 <0>        -0.9744
      6 C5         -1.4984   -2.3721    1.8675 C.3       1 <0>         0.1129
      7 C6         -2.8306   -2.1756    2.5440 C.2       1 <0>         0.5050
      8 O1         -3.7567   -1.6895    1.9300 O.2       1 <0>        -0.5035
      9 N2         -2.9929   -2.5400    3.8314 N.am      1 <0>        -0.5967
     10 O2         -4.2447   -2.3553    4.4670 O.3       1 <0>        -0.3162
     11 S1         -1.9019   -2.9711   -0.7389 S.o2      1 <0>         2.6937
     12 O3         -2.5809   -4.0702   -0.1471 O.2       1 <0>        -0.9505
     13 O4         -2.4604   -2.2150   -1.8046 O.2       1 <0>        -0.9449
     14 C7         -0.3543   -3.5859   -1.3146 C.ar      1 <0>        -0.7163
     15 C8          0.3126   -2.9311   -2.3335 C.ar      1 <0>         0.0203
     16 C9          1.5258   -3.4114   -2.7870 C.ar      1 <0>        -0.1694
     17 C10         2.0753   -4.5515   -2.2188 C.ar      1 <0>         0.1849
     18 C11         1.4045   -5.2065   -1.1963 C.ar      1 <0>        -0.2285
     19 C12         0.1939   -4.7192   -0.7428 C.ar      1 <0>         0.0201
     20 O5          3.2686   -5.0262   -2.6635 O.3       1 <0>        -0.3098
     21 C13         3.7739   -6.2044   -2.0322 C.3       1 <0>         0.0218
     22 H1          1.3864    1.4327   -0.5841 H         1 <0>         0.0600
     23 H2         -0.1938    1.3974   -1.4026 H         1 <0>         0.0607
     24 H3         -0.0831    1.9150    0.2968 H         1 <0>         0.0590
     25 H4          0.5237   -0.8858   -0.7539 H         1 <0>         0.0739
     26 H5          0.8024   -1.4898    1.5899 H         1 <0>         0.0573
     27 H6          1.8826   -0.1210    1.2323 H         1 <0>         0.0583
     28 H7          0.3577    0.1539    2.1084 H         1 <0>         0.0575
     29 H8         -1.7593    0.1241    0.9995 H         1 <0>         0.0896
     30 H9         -1.9051   -0.2274   -0.7393 H         1 <0>         0.1005
     31 H10        -1.2392   -3.4308    1.8762 H         1 <0>         0.1169
     32 H11        -0.7337   -1.8064    2.3997 H         1 <0>         0.1252
     33 H12        -2.2523   -2.9287    4.3224 H         1 <0>         0.4079
     34 H13        -4.2643   -2.6463    5.3890 H         1 <0>         0.3880
     35 H14        -0.1156   -2.0436   -2.7755 H         1 <0>         0.1477
     36 H15         2.0460   -2.9000   -3.5834 H         1 <0>         0.1429
     37 H16         1.8301   -6.0943   -0.7524 H         1 <0>         0.1395
     38 H17        -0.3266   -5.2262    0.0562 H         1 <0>         0.1420
     39 H18         3.9123   -6.0154   -0.9677 H         1 <0>         0.0609
     40 H19         3.0651   -7.0214   -2.1670 H         1 <0>         0.0613
     41 H20         4.7299   -6.4752   -2.4804 H         1 <0>         0.1066
@<TRIPOS>BOND
     1    1    2 1
     2    1   22 1
     3    1   23 1
     4    1   24 1
     5    2    3 1
     6    2    4 1
     7    2   25 1
     8    3   26 1
     9    3   27 1
    10    3   28 1
    11    4    5 1
    12    4   29 1
    13    4   30 1
    14    5    6 1
    15    5   11 1
    16    6    7 1
    17    6   31 1
    18    6   32 1
    19    7    8 2
    20    7    9 am
    21    9   10 1
    22    9   33 1
    23   10   34 1
    24   11   12 2
    25   11   13 2
    26   11   14 1
    27   14   19 ar
    28   14   15 ar
    29   15   16 ar
    30   15   35 1
    31   16   17 ar
    32   16   36 1
    33   17   18 ar
    34   17   20 1
    35   18   19 ar
    36   18   37 1
    37   19   38 1
    38   20   21 1
    39   21   39 1
    40   21   40 1
    41   21   41 1
@<TRIPOS>MOLECULE
ZINC03960035
   22    22     0     0     0
SMALL
USER_CHARGES
cyclopentylcarbamoylphosphonic acid
@<TRIPOS>ATOM
      1 C1         -2.2430    1.8754   -0.7033 C.3       1 <0>        -0.1189
      2 C2         -0.8089    1.6216   -1.1998 C.3       1 <0>        -0.1171
      3 C3         -0.0127    1.0858    0.0080 C.3       1 <0>        -0.1321
      4 C4         -0.7887    1.6107    1.2415 C.3       1 <0>         0.1189
      5 C5         -2.2683    1.4849    0.7889 C.3       1 <0>        -0.1377
      6 N1         -0.5279    0.7723    2.4142 N.am      1 <0>        -0.7228
      7 C6         -0.6626    1.2858    3.6530 C.2       1 <0>         0.0014
      8 O1         -0.9998    2.4419    3.7969 O.2       1 <0>        -0.5765
      9 P1         -0.3396    0.2478    5.1052 P.3       1 <0>         2.1589
     10 O2         -1.2590   -0.9119    5.0970 O.2       1 <0>        -1.1267
     11 H1         -2.4969    2.9292   -0.8178 H         1 <0>         0.0573
     12 H2         -2.9464    1.2585   -1.2626 H         1 <0>         0.0582
     13 H3         -0.3667    2.5523   -1.5553 H         1 <0>         0.0584
     14 H4         -0.8162    0.8817   -2.0001 H         1 <0>         0.0597
     15 H5          0.0021   -0.0041    0.0020 H         1 <0>         0.0697
     16 H6          1.0034    1.4802    0.0004 H         1 <0>         0.0649
     17 H7         -0.5338    2.6508    1.4444 H         1 <0>         0.0767
     18 H8         -2.8991    2.1724    1.3525 H         1 <0>         0.0613
     19 H9         -2.6201    0.4602    0.9092 H         1 <0>         0.0676
     20 H10        -0.2582   -0.1523    2.2992 H         1 <0>         0.3967
     21 O3          1.1829   -0.2740    5.0639 O.3       1 <0>        -1.1620
     22 O4         -0.5753    1.1100    6.4443 O.3       1 <0>        -1.1558
@<TRIPOS>BOND
     1    1    5 1
     2    1    2 1
     3    1   11 1
     4    1   12 1
     5    2    3 1
     6    2   13 1
     7    2   14 1
     8    3    4 1
     9    3   15 1
    10    3   16 1
    11    4    5 1
    12    4    6 1
    13    4   17 1
    14    5   18 1
    15    5   19 1
    16    6    7 am
    17    6   20 1
    18    7    8 2
    19    7    9 1
    20    9   10 2
    21    9   21 1
    22    9   22 1
@<TRIPOS>MOLECULE
ZINC13778426
   45    46     0     0     0
SMALL
USER_CHARGES

@<TRIPOS>ATOM
      1 C1         -0.0187    1.5258    0.0104 C.3       1 <0>        -0.1430
      2 C2          0.0021   -0.0041    0.0020 C.3       1 <0>        -0.0867
      3 C3          0.7182   -0.4975   -1.2568 C.3       1 <0>        -0.1402
      4 C4          0.7421   -0.5109    1.2415 C.3       1 <0>         0.0906
      5 H1          1.7647   -0.1336    1.2338 H         1 <0>         0.0730
      6 C5          0.7625   -2.0177    1.2333 C.2       1 <0>         0.4935
      7 O1          1.6800   -2.6120    0.6933 O.co2     1 <0>        -0.6912
      8 O2         -0.1385   -2.6426    1.7665 O.co2     1 <0>        -0.6849
      9 N1          0.0564   -0.0384    2.4469 N.pl3     1 <0>        -1.0833
     10 S1          0.9316    0.3599    3.7950 S.o2      1 <0>         2.6886
     11 O3         -0.0030    0.8010    4.7703 O.2       1 <0>        -0.9746
     12 O4          1.8273   -0.7178    4.0308 O.2       1 <0>        -0.9460
     13 C6          1.9224    1.7563    3.3791 C.ar      1 <0>        -0.6730
     14 C7          3.1890    1.5710    2.8551 C.ar      1 <0>        -0.0113
     15 C8          3.9692    2.6612    2.5271 C.ar      1 <0>        -0.1360
     16 C9          3.4787    3.9505    2.7248 C.ar      1 <0>         0.0106
     17 C10         2.2020    4.1313    3.2531 C.ar      1 <0>        -0.1405
     18 C11         1.4284    3.0338    3.5726 C.ar      1 <0>        -0.0141
     19 C12         4.3130    5.1263    2.3746 C.ar      1 <0>        -0.0908
     20 C13         5.5877    4.9440    1.8413 C.ar      1 <0>        -0.0624
     21 C14         6.3607    6.0389    1.5163 C.ar      1 <0>        -0.1499
     22 C15         5.8704    7.3217    1.7203 C.ar      1 <0>         0.1318
     23 C16         4.6010    7.5063    2.2513 C.ar      1 <0>        -0.2081
     24 C17         3.8212    6.4153    2.5729 C.ar      1 <0>        -0.0627
     25 O5          6.6346    8.3985    1.4000 O.3       1 <0>        -0.3168
     26 C18         6.0682    9.6891    1.6357 C.3       1 <0>         0.0262
     27 H2          1.0039    1.9031    0.0027 H         1 <0>         0.0494
     28 H3         -0.5459    1.8868   -0.8726 H         1 <0>         0.0491
     29 H4         -0.5289    1.8773    0.9072 H         1 <0>         0.0517
     30 H5         -1.0205   -0.3814    0.0098 H         1 <0>         0.0732
     31 H6          1.7408   -0.1202   -1.2645 H         1 <0>         0.0507
     32 H7          0.7330   -1.5874   -1.2628 H         1 <0>         0.0726
     33 H8          0.1910   -0.1364   -2.1398 H         1 <0>         0.0444
     34 H9         -0.9103    0.0410    2.4552 H         1 <0>         0.4141
     35 H10         3.5682    0.5713    2.7026 H         1 <0>         0.1452
     36 H11         4.9582    2.5153    2.1183 H         1 <0>         0.1337
     37 H12         1.8169    5.1283    3.4084 H         1 <0>         0.1305
     38 H13         0.4371    3.1727    3.9780 H         1 <0>         0.1400
     39 H14         5.9699    3.9464    1.6831 H         1 <0>         0.1371
     40 H15         7.3486    5.8983    1.1031 H         1 <0>         0.1348
     41 H16         4.2224    8.5054    2.4092 H         1 <0>         0.1309
     42 H17         2.8322    6.5595    2.9821 H         1 <0>         0.1309
     43 H18         5.1529    9.7960    1.0537 H         1 <0>         0.0565
     44 H19         5.8394    9.7973    2.6959 H         1 <0>         0.0562
     45 H20         6.7804   10.4584    1.3374 H         1 <0>         0.1004
@<TRIPOS>BOND
     1    1    2 1
     2    1   27 1
     3    1   28 1
     4    1   29 1
     5    2    3 1
     6    2    4 1
     7    2   30 1
     8    3   31 1
     9    3   32 1
    10    3   33 1
    11    4    5 1
    12    4    6 1
    13    4    9 1
    14    6    7 2
    15    6    8 1
    16    9   10 1
    17    9   34 1
    18   10   11 2
    19   10   12 2
    20   10   13 1
    21   13   18 ar
    22   13   14 ar
    23   14   15 ar
    24   14   35 1
    25   15   16 ar
    26   15   36 1
    27   16   17 ar
    28   16   19 1
    29   17   18 ar
    30   17   37 1
    31   18   38 1
    32   19   24 ar
    33   19   20 ar
    34   20   21 ar
    35   20   39 1
    36   21   22 ar
    37   21   40 1
    38   22   23 ar
    39   22   25 1
    40   23   24 ar
    41   23   41 1
    42   24   42 1
    43   25   26 1
    44   26   43 1
    45   26   44 1
    46   26   45 1
@<TRIPOS>MOLECULE
ZINC02857809
   49    52     0     0     0
SMALL
USER_CHARGES

@<TRIPOS>ATOM
      1 C1         -0.0167    1.3790    0.0096 C.ar      1 <0>        -0.1178
      2 C2          1.1687    2.0919    0.0021 C.ar      1 <0>        -0.1206
      3 C3          2.3774    1.4258   -0.0129 C.ar      1 <0>        -0.1055
      4 C4          2.4022    0.0327   -0.0206 C.ar      1 <0>        -0.0449
      5 C5          1.2051   -0.6804   -0.0130 C.ar      1 <0>        -0.1016
      6 C6          0.0021   -0.0041    0.0020 C.ar      1 <0>        -0.1182
      7 C7          3.6987   -0.6889   -0.0373 C.ar      1 <0>         0.0073
      8 C8          4.8958    0.0241   -0.0395 C.ar      1 <0>        -0.1339
      9 C9          6.0988   -0.6522   -0.0546 C.ar      1 <0>        -0.0135
     10 C10         6.1176   -2.0352   -0.0680 C.ar      1 <0>        -0.6652
     11 C11         4.9322   -2.7481   -0.0663 C.ar      1 <0>        -0.0110
     12 C12         3.7235   -2.0821   -0.0450 C.ar      1 <0>        -0.1264
     13 S1          7.6571   -2.8920   -0.0877 S.o2      1 <0>         2.6907
     14 O1          7.4021   -4.1724   -0.6489 O.2       1 <0>        -0.9453
     15 O2          8.6134   -1.9962   -0.6373 O.2       1 <0>        -0.9785
     16 N1          8.0968   -3.1452    1.4886 N.pl3     1 <0>        -1.0774
     17 C13         7.2857   -4.0143    2.3448 C.3       1 <0>         0.0970
     18 H1          6.2629   -4.0423    1.9691 H         1 <0>         0.0740
     19 C14         7.2892   -3.4690    3.7743 C.3       1 <0>        -0.0381
     20 C15         6.6019   -2.1282    3.8021 C.2       1 <0>        -0.1451
     21 C16         7.1930   -0.9260    3.7160 C.2       1 <0>         0.0385
     22 N2          6.2496    0.0632    3.7767 N.pl3     1 <0>        -0.5976
     23 H2          6.4358    1.0142    3.7345 H         1 <0>         0.4100
     24 C17         4.9964   -0.4924    3.9067 C.ar      1 <0>         0.1025
     25 C18         5.1616   -1.8896    3.9220 C.ar      1 <0>        -0.0969
     26 C19         4.0468   -2.7215    4.0394 C.ar      1 <0>        -0.0631
     27 C20         2.7985   -2.1735    4.1355 C.ar      1 <0>        -0.1528
     28 C21         2.6299   -0.7961    4.1168 C.ar      1 <0>        -0.0974
     29 C22         3.7173    0.0437    4.0110 C.ar      1 <0>        -0.1342
     30 C23         7.8621   -5.4068    2.3369 C.2       1 <0>         0.4892
     31 O3          8.9520   -5.6125    1.8308 O.co2     1 <0>        -0.6772
     32 O4          7.2384   -6.3275    2.8366 O.co2     1 <0>        -0.6962
     33 H3         -0.9603    1.9042    0.0260 H         1 <0>         0.1210
     34 H4          1.1483    3.1717    0.0077 H         1 <0>         0.1221
     35 H5          3.3023    1.9834   -0.0191 H         1 <0>         0.1233
     36 H6          1.2186   -1.7603   -0.0193 H         1 <0>         0.1271
     37 H7         -0.9264   -0.5558    0.0082 H         1 <0>         0.1239
     38 H8          4.8823    1.1040   -0.0299 H         1 <0>         0.1255
     39 H9          7.0273   -0.1005   -0.0564 H         1 <0>         0.1343
     40 H10         4.9525   -3.8278   -0.0771 H         1 <0>         0.1415
     41 H11         2.7986   -2.6396   -0.0392 H         1 <0>         0.1306
     42 H12         8.8914   -2.7181    1.8450 H         1 <0>         0.4106
     43 H13         6.7605   -4.1620    4.4288 H         1 <0>         0.0867
     44 H14         8.3176   -3.3574    4.1181 H         1 <0>         0.0721
     45 H15         8.2559   -0.7637    3.6142 H         1 <0>         0.1657
     46 H16         4.1703   -3.7943    4.0539 H         1 <0>         0.1236
     47 H17         1.9363   -2.8176    4.2263 H         1 <0>         0.1162
     48 H18         1.6371   -0.3780    4.1929 H         1 <0>         0.1152
     49 H19         3.5757    1.1143    3.9961 H         1 <0>         0.1096
@<TRIPOS>BOND
     1    1    6 ar
     2    1    2 ar
     3    1   33 1
     4    2    3 ar
     5    2   34 1
     6    3    4 ar
     7    3   35 1
     8    4    5 ar
     9    4    7 1
    10    5    6 ar
    11    5   36 1
    12    6   37 1
    13    7   12 ar
    14    7    8 ar
    15    8    9 ar
    16    8   38 1
    17    9   10 ar
    18    9   39 1
    19   10   11 ar
    20   10   13 1
    21   11   12 ar
    22   11   40 1
    23   12   41 1
    24   13   14 2
    25   13   15 2
    26   13   16 1
    27   16   17 1
    28   16   42 1
    29   17   18 1
    30   17   19 1
    31   17   30 1
    32   19   20 1
    33   19   43 1
    34   19   44 1
    35   20   25 1
    36   20   21 2
    37   21   22 1
    38   21   45 1
    39   22   23 1
    40   22   24 1
    41   24   29 ar
    42   24   25 ar
    43   25   26 ar
    44   26   27 ar
    45   26   46 1
    46   27   28 ar
    47   27   47 1
    48   28   29 ar
    49   28   48 1
    50   29   49 1
    51   30   31 2
    52   30   32 1
@<TRIPOS>MOLECULE
ZINC02867405
   38    40     0     0     0
SMALL
USER_CHARGES

@<TRIPOS>ATOM
      1 C1         -0.0187    1.5258    0.0104 C.3       1 <0>        -0.1574
      2 C2          0.0021   -0.0041    0.0020 C.3       1 <0>        -0.0985
      3 C3         -1.4333   -0.5336    0.0129 C.3       1 <0>        -0.1008
      4 C4         -2.0615   -0.1672    1.3436 C.2       1 <0>         0.4948
      5 O1         -1.5184   -0.5754    2.5017 O.3       1 <0>        -0.6234
      6 N1         -3.1491    0.5595    1.3274 N.2       1 <0>        -0.6700
      7 C5         -3.7167    0.9836    0.1935 C.2       1 <0>         0.6712
      8 O2         -4.7270    1.6550    0.2855 O.2       1 <0>        -0.5719
      9 N2         -3.2542    0.7238   -1.0359 N.am      1 <0>        -0.6998
     10 C6         -2.1379   -0.0139   -1.2267 C.2       1 <0>         0.5501
     11 O3         -1.7177   -0.2497   -2.3392 O.2       1 <0>        -0.5127
     12 C7         -1.3758   -2.0369   -0.0759 C.ar      1 <0>        -0.0311
     13 C8         -0.1514   -2.6769   -0.1427 C.ar      1 <0>        -0.1017
     14 C9         -0.0929   -4.0535   -0.2242 C.ar      1 <0>        -0.1052
     15 C10        -1.2702   -4.7986   -0.2390 C.ar      1 <0>        -0.0611
     16 C11        -2.5009   -4.1486   -0.1715 C.ar      1 <0>        -0.1012
     17 C12        -2.5475   -2.7720   -0.0846 C.ar      1 <0>        -0.1079
     18 C13        -1.2136   -6.2788   -0.3270 C.ar      1 <0>        -0.0303
     19 C14         0.0172   -6.9290   -0.3892 C.ar      1 <0>        -0.1145
     20 C15         0.0640   -8.3060   -0.4704 C.ar      1 <0>        -0.1182
     21 C16        -1.1080   -9.0404   -0.4905 C.ar      1 <0>        -0.1279
     22 C17        -2.3326   -8.4000   -0.4295 C.ar      1 <0>        -0.1176
     23 C18        -2.3910   -7.0239   -0.3418 C.ar      1 <0>        -0.1146
     24 H1          1.0039    1.9031    0.0027 H         1 <0>         0.0618
     25 H2         -0.5459    1.8868   -0.8726 H         1 <0>         0.0476
     26 H3         -0.5289    1.8773    0.9072 H         1 <0>         0.0630
     27 H4          0.5123   -0.3556   -0.8948 H         1 <0>         0.0748
     28 H5          0.5293   -0.3651    0.8851 H         1 <0>         0.0899
     29 H6         -3.7306    1.0721   -1.8058 H         1 <0>         0.3996
     30 H7          0.7605   -2.0984   -0.1315 H         1 <0>         0.1323
     31 H8          0.8636   -4.5521   -0.2767 H         1 <0>         0.1251
     32 H9         -3.4165   -4.7213   -0.1830 H         1 <0>         0.1243
     33 H10        -3.5008   -2.2675   -0.0274 H         1 <0>         0.1178
     34 H11         0.9328   -6.3565   -0.3742 H         1 <0>         0.1256
     35 H12         1.0174   -8.8110   -0.5186 H         1 <0>         0.1215
     36 H13        -1.0668  -10.1177   -0.5545 H         1 <0>         0.1192
     37 H14        -3.2446   -8.9783   -0.4459 H         1 <0>         0.1217
     38 H15        -3.3475   -6.5252   -0.2897 H         1 <0>         0.1254
@<TRIPOS>BOND
     1    1    2 1
     2    1   24 1
     3    1   25 1
     4    1   26 1
     5    2    3 1
     6    2   27 1
     7    2   28 1
     8    3   10 1
     9    3    4 1
    10    3   12 1
    11    4    5 1
    12    4    6 2
    13    6    7 1
    14    7    8 2
    15    7    9 am
    16    9   10 am
    17    9   29 1
    18   10   11 2
    19   12   17 ar
    20   12   13 ar
    21   13   14 ar
    22   13   30 1
    23   14   15 ar
    24   14   31 1
    25   15   16 ar
    26   15   18 1
    27   16   17 ar
    28   16   32 1
    29   17   33 1
    30   18   23 ar
    31   18   19 ar
    32   19   20 ar
    33   19   34 1
    34   20   21 ar
    35   20   35 1
    36   21   22 ar
    37   21   36 1
    38   22   23 ar
    39   22   37 1
    40   23   38 1
@<TRIPOS>MOLECULE
ZINC02867405
   38    40     0     0     0
SMALL
USER_CHARGES

@<TRIPOS>ATOM
      1 C1         -0.0187    1.5258    0.0104 C.3       1 <0>        -0.1579
      2 C2          0.0021   -0.0041    0.0020 C.3       1 <0>        -0.0987
      3 C3         -1.4333   -0.5336    0.0129 C.3       1 <0>        -0.1284
      4 C4         -2.0625   -0.1661    1.3442 C.2       1 <0>         0.5502
      5 O1         -1.5790   -0.5310    2.3943 O.2       1 <0>        -0.5165
      6 N1         -3.1854    0.5851    1.3085 N.am      1 <0>        -0.6836
      7 C5         -3.7279    0.9939    0.1309 C.2       1 <0>         0.6399
      8 O2         -4.8464    1.7392    0.1861 O.3       1 <0>        -0.6568
      9 N2         -3.2419    0.7163   -1.0544 N.2       1 <0>        -0.6763
     10 C6         -2.1377   -0.0143   -1.2259 C.2       1 <0>         0.5373
     11 O3         -1.7113   -0.2555   -2.3378 O.2       1 <0>        -0.5282
     12 C7         -1.3761   -2.0370   -0.0754 C.ar      1 <0>        -0.0359
     13 C8         -0.1518   -2.6772   -0.1419 C.ar      1 <0>        -0.1031
     14 C9         -0.0935   -4.0538   -0.2228 C.ar      1 <0>        -0.1054
     15 C10        -1.2710   -4.7987   -0.2376 C.ar      1 <0>        -0.0598
     16 C11        -2.5015   -4.1485   -0.1704 C.ar      1 <0>        -0.1006
     17 C12        -2.5479   -2.7718   -0.0840 C.ar      1 <0>        -0.1086
     18 C13        -1.2146   -6.2789   -0.3250 C.ar      1 <0>        -0.0316
     19 C14         0.0160   -6.9294   -0.3868 C.ar      1 <0>        -0.1143
     20 C15         0.0626   -8.3064   -0.4675 C.ar      1 <0>        -0.1183
     21 C16        -1.1095   -9.0406   -0.4876 C.ar      1 <0>        -0.1272
     22 C17        -2.3340   -8.4000   -0.4269 C.ar      1 <0>        -0.1174
     23 C18        -2.3921   -7.0238   -0.3397 C.ar      1 <0>        -0.1141
     24 H1          1.0039    1.9031    0.0027 H         1 <0>         0.0617
     25 H2         -0.5459    1.8868   -0.8726 H         1 <0>         0.0636
     26 H3         -0.5289    1.8773    0.9072 H         1 <0>         0.0494
     27 H4          0.5123   -0.3556   -0.8948 H         1 <0>         0.0860
     28 H5          0.5293   -0.3651    0.8851 H         1 <0>         0.0761
     29 H6          0.7602   -2.0988   -0.1307 H         1 <0>         0.1322
     30 H7          0.8629   -4.5526   -0.2751 H         1 <0>         0.1254
     31 H8         -3.4172   -4.7210   -0.1818 H         1 <0>         0.1250
     32 H9         -3.5011   -2.2671   -0.0270 H         1 <0>         0.1196
     33 H10         0.9318   -6.3571   -0.3720 H         1 <0>         0.1255
     34 H11         1.0160   -8.8116   -0.5155 H         1 <0>         0.1217
     35 H12        -1.0685  -10.1179   -0.5512 H         1 <0>         0.1196
     36 H13        -3.2461   -8.9781   -0.4432 H         1 <0>         0.1220
     37 H14        -3.3486   -6.5249   -0.2879 H         1 <0>         0.1256
     38 H15        -3.6137    0.8378    2.1413 H         1 <0>         0.4018
@<TRIPOS>BOND
     1    1    2 1
     2    1   24 1
     3    1   25 1
     4    1   26 1
     5    2    3 1
     6    2   27 1
     7    2   28 1
     8    3   10 1
     9    3    4 1
    10    3   12 1
    11    4    5 2
    12    4    6 am
    13    6    7 1
    14    6   38 1
    15    7    8 1
    16    7    9 2
    17    9   10 1
    18   10   11 2
    19   12   17 ar
    20   12   13 ar
    21   13   14 ar
    22   13   29 1
    23   14   15 ar
    24   14   30 1
    25   15   16 ar
    26   15   18 1
    27   16   17 ar
    28   16   31 1
    29   17   32 1
    30   18   23 ar
    31   18   19 ar
    32   19   20 ar
    33   19   33 1
    34   20   21 ar
    35   20   34 1
    36   21   22 ar
    37   21   35 1
    38   22   23 ar
    39   22   36 1
    40   23   37 1
@<TRIPOS>MOLECULE
ZINC02867405
   39    41     0     0     0
SMALL
USER_CHARGES

@<TRIPOS>ATOM
      1 C1         -0.0187    1.5258    0.0104 C.3       1 <0>        -0.1669
      2 C2          0.0021   -0.0041    0.0020 C.3       1 <0>        -0.1121
      3 C3         -1.4333   -0.5336    0.0129 C.3       1 <0>        -0.0680
      4 C4         -2.0615   -0.1674    1.3443 C.2       1 <0>         0.5450
      5 O1         -1.5741   -0.5351    2.3917 O.2       1 <0>        -0.4507
      6 N1         -3.1836    0.5826    1.3194 N.am      1 <0>        -0.6668
      7 C5         -3.7341    0.9959    0.1722 C.2       1 <0>         0.7164
      8 O2         -4.7439    1.6678    0.2422 O.2       1 <0>        -0.5207
      9 N2         -3.2536    0.7238   -1.0464 N.am      1 <0>        -0.6670
     10 C6         -2.1375   -0.0140   -1.2262 C.2       1 <0>         0.5456
     11 O3         -1.7140   -0.2529   -2.3368 O.2       1 <0>        -0.4508
     12 C7         -1.3757   -2.0369   -0.0761 C.ar      1 <0>        -0.0826
     13 C8         -0.1512   -2.6768   -0.1431 C.ar      1 <0>        -0.0854
     14 C9         -0.0926   -4.0533   -0.2248 C.ar      1 <0>        -0.1051
     15 C10        -1.2699   -4.7985   -0.2396 C.ar      1 <0>        -0.0272
     16 C11        -2.5006   -4.1487   -0.1719 C.ar      1 <0>        -0.1031
     17 C12        -2.5474   -2.7720   -0.0849 C.ar      1 <0>        -0.1066
     18 C13        -1.2132   -6.2787   -0.3278 C.ar      1 <0>        -0.0533
     19 C14         0.0176   -6.9288   -0.3901 C.ar      1 <0>        -0.1068
     20 C15         0.0645   -8.3058   -0.4715 C.ar      1 <0>        -0.1175
     21 C16        -1.1074   -9.0403   -0.4917 C.ar      1 <0>        -0.1145
     22 C17        -2.3320   -8.4001   -0.4305 C.ar      1 <0>        -0.1176
     23 C18        -2.3905   -7.0239   -0.3427 C.ar      1 <0>        -0.1078
     24 H1          1.0039    1.9031    0.0027 H         1 <0>         0.0800
     25 H2         -0.5459    1.8868   -0.8726 H         1 <0>         0.0571
     26 H3         -0.5289    1.8773    0.9072 H         1 <0>         0.0561
     27 H4          0.5123   -0.3556   -0.8948 H         1 <0>         0.1017
     28 H5          0.5293   -0.3651    0.8851 H         1 <0>         0.1013
     29 H6         -3.7213    1.0667   -1.8240 H         1 <0>         0.4376
     30 H7          0.7606   -2.0982   -0.1318 H         1 <0>         0.1388
     31 H8          0.8639   -4.5519   -0.2774 H         1 <0>         0.1344
     32 H9         -3.4162   -4.7215   -0.1835 H         1 <0>         0.1322
     33 H10        -3.5006   -2.2676   -0.0275 H         1 <0>         0.1179
     34 H11         0.9332   -6.3563   -0.3752 H         1 <0>         0.1268
     35 H12         1.0180   -8.8107   -0.5199 H         1 <0>         0.1262
     36 H13        -1.0661  -10.1176   -0.5558 H         1 <0>         0.1245
     37 H14        -3.2440   -8.9783   -0.4470 H         1 <0>         0.1258
     38 H15        -3.3471   -6.5253   -0.2905 H         1 <0>         0.1254
     39 H16        -3.6035    0.8290    2.1584 H         1 <0>         0.4376
@<TRIPOS>BOND
     1    1    2 1
     2    1   24 1
     3    1   25 1
     4    1   26 1
     5    2    3 1
     6    2   27 1
     7    2   28 1
     8    3   10 1
     9    3    4 1
    10    3   12 1
    11    4    5 2
    12    4    6 am
    13    6    7 am
    14    6   39 1
    15    7    8 2
    16    7    9 am
    17    9   10 am
    18    9   29 1
    19   10   11 2
    20   12   17 ar
    21   12   13 ar
    22   13   14 ar
    23   13   30 1
    24   14   15 ar
    25   14   31 1
    26   15   16 ar
    27   15   18 1
    28   16   17 ar
    29   16   32 1
    30   17   33 1
    31   18   23 ar
    32   18   19 ar
    33   19   20 ar
    34   19   34 1
    35   20   21 ar
    36   20   35 1
    37   21   22 ar
    38   21   36 1
    39   22   23 ar
    40   22   37 1
    41   23   38 1
@<TRIPOS>MOLECULE
ZINC03961071
   41    42     0     0     0
SMALL
USER_CHARGES

@<TRIPOS>ATOM
      1 C1         -0.0187    1.5258    0.0104 C.3       1 <0>        -0.1455
      2 C2          0.0021   -0.0041    0.0020 C.3       1 <0>        -0.0797
      3 C3          0.7421   -0.5109    1.2415 C.3       1 <0>        -0.1454
      4 C4         -1.4333   -0.5336    0.0129 C.3       1 <0>         0.0799
      5 H1         -1.9435   -0.1821    0.9097 H         1 <0>         0.0809
      6 C5         -2.1622   -0.0344   -1.2080 C.2       1 <0>         0.4843
      7 O1         -2.4620   -0.8108   -2.0990 O.co2     1 <0>        -0.6780
      8 O2         -2.4521    1.1459   -1.3048 O.co2     1 <0>        -0.6888
      9 N1         -1.4134   -1.9985    0.0048 N.pl3     1 <0>        -1.0817
     10 S1         -2.5690   -2.8468    0.8339 S.o2      1 <0>         2.6970
     11 O3         -2.2983   -4.2242    0.6130 O.2       1 <0>        -0.9761
     12 O4         -2.6312   -2.2820    2.1364 O.2       1 <0>        -0.9694
     13 C6         -4.1170   -2.5080    0.0637 C.ar      1 <0>        -0.6473
     14 C7         -4.8801   -1.4368    0.4922 C.ar      1 <0>        -0.0087
     15 C8         -6.0936   -1.1670   -0.1073 C.ar      1 <0>        -0.1237
     16 C9         -6.5496   -1.9758   -1.1463 C.ar      1 <0>        -0.0063
     17 C10        -5.7766   -3.0533   -1.5743 C.ar      1 <0>        -0.1272
     18 C11        -4.5621   -3.3107   -0.9711 C.ar      1 <0>         0.0006
     19 C12        -7.8537   -1.6910   -1.7944 C.ar      1 <0>        -0.0247
     20 C13        -8.6241   -0.6104   -1.3697 C.ar      1 <0>        -0.1006
     21 C14        -9.8363   -0.3497   -1.9756 C.ar      1 <0>        -0.0883
     22 C15       -10.2874   -1.1600   -3.0032 C.ar      1 <0>        -0.0919
     23 C16        -9.5261   -2.2349   -3.4283 C.ar      1 <0>        -0.0891
     24 C17        -8.3094   -2.5000   -2.8334 C.ar      1 <0>        -0.1015
     25 Br1       -11.9496   -0.7974   -3.8285 Br        1 <0>        -0.0566
     26 H2          1.0039    1.9031    0.0027 H         1 <0>         0.0394
     27 H3         -0.5459    1.8868   -0.8726 H         1 <0>         0.0871
     28 H4         -0.5289    1.8773    0.9072 H         1 <0>         0.0484
     29 H5          0.5123   -0.3556   -0.8948 H         1 <0>         0.0671
     30 H6          0.7568   -1.6008    1.2356 H         1 <0>         0.0505
     31 H7          1.7647   -0.1336    1.2338 H         1 <0>         0.0486
     32 H8          0.2319   -0.1594    2.1383 H         1 <0>         0.0540
     33 H9         -0.7234   -2.4715   -0.4862 H         1 <0>         0.4130
     34 H10        -4.5257   -0.8106    1.2976 H         1 <0>         0.1366
     35 H11        -6.6890   -0.3309    0.2286 H         1 <0>         0.1305
     36 H12        -6.1252   -3.6833   -2.3792 H         1 <0>         0.1301
     37 H13        -3.9602   -4.1429   -1.3050 H         1 <0>         0.1376
     38 H14        -8.2733    0.0220   -0.5675 H         1 <0>         0.1381
     39 H15       -10.4341    0.4876   -1.6472 H         1 <0>         0.1349
     40 H16        -9.8825   -2.8643   -4.2303 H         1 <0>         0.1345
     41 H17        -7.7139   -3.3361   -3.1691 H         1 <0>         0.1375
@<TRIPOS>BOND
     1    1    2 1
     2    1   26 1
     3    1   27 1
     4    1   28 1
     5    2    3 1
     6    2    4 1
     7    2   29 1
     8    3   30 1
     9    3   31 1
    10    3   32 1
    11    4    5 1
    12    4    6 1
    13    4    9 1
    14    6    7 2
    15    6    8 1
    16    9   10 1
    17    9   33 1
    18   10   11 2
    19   10   12 2
    20   10   13 1
    21   13   18 ar
    22   13   14 ar
    23   14   15 ar
    24   14   34 1
    25   15   16 ar
    26   15   35 1
    27   16   17 ar
    28   16   19 1
    29   17   18 ar
    30   17   36 1
    31   18   37 1
    32   19   24 ar
    33   19   20 ar
    34   20   21 ar
    35   20   38 1
    36   21   22 ar
    37   21   39 1
    38   22   23 ar
    39   22   25 1
    40   23   24 ar
    41   23   40 1
    42   24   41 1
@<TRIPOS>MOLECULE
ZINC13680271
   41    42     0     0     0
SMALL
USER_CHARGES

@<TRIPOS>ATOM
      1 C1         -0.0187    1.5258    0.0104 C.3       1 <0>        -0.1420
      2 C2          0.0021   -0.0041    0.0020 C.3       1 <0>        -0.0834
      3 C3          0.7421   -0.5109    1.2415 C.3       1 <0>        -0.1433
      4 C4         -1.4333   -0.5336    0.0129 C.3       1 <0>         0.0853
      5 H1         -1.9605   -0.1726   -0.8702 H         1 <0>         0.0718
      6 C5         -2.1387   -0.0476    1.2528 C.2       1 <0>         0.4973
      7 O1         -2.7455    1.0097    1.2340 O.co2     1 <0>        -0.6921
      8 O2         -2.1025   -0.7118    2.2746 O.co2     1 <0>        -0.6812
      9 N1         -1.4134   -1.9985    0.0048 N.pl3     1 <0>        -1.0833
     10 S1         -2.5847   -2.8380   -0.8111 S.o2      1 <0>         2.6874
     11 O3         -2.2793   -4.2170   -0.6549 O.2       1 <0>        -0.9729
     12 O4         -3.8319   -2.2842   -0.4148 O.2       1 <0>        -0.9439
     13 C6         -2.3918   -2.4703   -2.5235 C.ar      1 <0>        -0.6674
     14 C7         -3.0596   -1.3925   -3.0763 C.ar      1 <0>        -0.0141
     15 C8         -2.9125   -1.1002   -4.4172 C.ar      1 <0>        -0.1278
     16 C9         -2.0891   -1.8929   -5.2141 C.ar      1 <0>        -0.0060
     17 C10        -1.4185   -2.9772   -4.6519 C.ar      1 <0>        -0.1321
     18 C11        -1.5688   -3.2573   -3.3088 C.ar      1 <0>        -0.0170
     19 C12        -1.9275   -1.5839   -6.6564 C.ar      1 <0>        -0.0331
     20 C13        -2.5942   -0.4964   -7.2173 C.ar      1 <0>        -0.0994
     21 C14        -2.4406   -0.2132   -8.5592 C.ar      1 <0>        -0.0880
     22 C15        -1.6263   -1.0076   -9.3477 C.ar      1 <0>        -0.0887
     23 C16        -0.9623   -2.0892   -8.7955 C.ar      1 <0>        -0.0891
     24 C17        -1.1040   -2.3768   -7.4532 C.ar      1 <0>        -0.1006
     25 Br1        -1.4208   -0.6142  -11.1859 Br        1 <0>        -0.0514
     26 H2          1.0039    1.9031    0.0027 H         1 <0>         0.0449
     27 H3         -0.5459    1.8868   -0.8726 H         1 <0>         0.0498
     28 H4         -0.5289    1.8773    0.9072 H         1 <0>         0.0737
     29 H5          0.5123   -0.3556   -0.8948 H         1 <0>         0.0592
     30 H6          0.7568   -1.6008    1.2356 H         1 <0>         0.0486
     31 H7          1.7647   -0.1336    1.2338 H         1 <0>         0.0431
     32 H8          0.2319   -0.1594    2.1383 H         1 <0>         0.0736
     33 H9         -0.7142   -2.4767    0.4774 H         1 <0>         0.4140
     34 H10        -3.6975   -0.7787   -2.4577 H         1 <0>         0.1476
     35 H11        -3.4349   -0.2588   -4.8479 H         1 <0>         0.1355
     36 H12        -0.7791   -3.5949   -5.2651 H         1 <0>         0.1335
     37 H13        -1.0460   -4.0948   -2.8710 H         1 <0>         0.1427
     38 H14        -3.2303    0.1236   -6.6030 H         1 <0>         0.1391
     39 H15        -2.9568    0.6294   -8.9949 H         1 <0>         0.1367
     40 H16        -0.3284   -2.7062   -9.4150 H         1 <0>         0.1359
     41 H17        -0.5818   -3.2182   -7.0222 H         1 <0>         0.1375
@<TRIPOS>BOND
     1    1    2 1
     2    1   26 1
     3    1   27 1
     4    1   28 1
     5    2    3 1
     6    2    4 1
     7    2   29 1
     8    3   30 1
     9    3   31 1
    10    3   32 1
    11    4    5 1
    12    4    6 1
    13    4    9 1
    14    6    7 2
    15    6    8 1
    16    9   10 1
    17    9   33 1
    18   10   11 2
    19   10   12 2
    20   10   13 1
    21   13   18 ar
    22   13   14 ar
    23   14   15 ar
    24   14   34 1
    25   15   16 ar
    26   15   35 1
    27   16   17 ar
    28   16   19 1
    29   17   18 ar
    30   17   36 1
    31   18   37 1
    32   19   24 ar
    33   19   20 ar
    34   20   21 ar
    35   20   38 1
    36   21   22 ar
    37   21   39 1
    38   22   23 ar
    39   22   25 1
    40   23   24 ar
    41   23   40 1
    42   24   41 1
@<TRIPOS>MOLECULE
ZINC13803827
   44    45     0     0     0
SMALL
USER_CHARGES

@<TRIPOS>ATOM
      1 C1         -0.0184    1.5028    0.0103 C.3       1 <0>        -0.1136
      2 C2          0.0021   -0.0041    0.0020 C.ar      1 <0>        -0.0875
      3 C3          0.0057   -0.6865   -1.2011 C.ar      1 <0>        -0.1212
      4 C4          0.0244   -2.0665   -1.2146 C.ar      1 <0>        -0.1008
      5 C5          0.0396   -2.7722   -0.0132 C.ar      1 <0>        -0.0517
      6 C6          0.0359   -2.0796    1.1958 C.ar      1 <0>        -0.0992
      7 C7          0.0229   -0.6995    1.1975 C.ar      1 <0>        -0.1202
      8 C8          0.0592   -4.2560   -0.0214 C.ar      1 <0>         0.0037
      9 C9          0.0683   -4.9485   -1.2304 C.ar      1 <0>        -0.1342
     10 C10         0.0871   -6.3285   -1.2322 C.ar      1 <0>        -0.0051
     11 C11         0.0964   -7.0241   -0.0366 C.ar      1 <0>        -0.6613
     12 C12         0.0870   -6.3418    1.1665 C.ar      1 <0>        -0.0026
     13 C13         0.0745   -4.9617    1.1800 C.ar      1 <0>        -0.1264
     14 S1          0.1197   -8.7860   -0.0463 S.o2      1 <0>         2.6965
     15 O1         -0.4255   -9.2062    1.1968 O.2       1 <0>        -0.9693
     16 O2         -0.4259   -9.1925   -1.2939 O.2       1 <0>        -0.9757
     17 N1          1.7080   -9.2546   -0.0492 N.pl3     1 <0>        -1.0852
     18 C14         2.5625   -8.9539    1.1022 C.3       1 <0>         0.0766
     19 H1          1.9452   -8.8432    1.9937 H         1 <0>         0.0797
     20 C15         3.5586  -10.0965    1.3103 C.3       1 <0>        -0.0813
     21 C16         4.5063  -10.1715    0.1115 C.3       1 <0>        -0.1415
     22 C17         4.3668   -9.8428    2.5843 C.3       1 <0>        -0.1423
     23 C18         3.3139   -7.6723    0.8491 C.2       1 <0>         0.4916
     24 O3          3.6287   -6.9555    1.7838 O.co2     1 <0>        -0.6921
     25 O4          3.6069   -7.3523   -0.2903 O.co2     1 <0>        -0.6796
     26 H2          1.0042    1.8801    0.0026 H         1 <0>         0.0700
     27 H3         -0.5455    1.8639   -0.8728 H         1 <0>         0.0649
     28 H4         -0.5286    1.8543    0.9071 H         1 <0>         0.0651
     29 H5         -0.0065   -0.1385   -2.1317 H         1 <0>         0.1229
     30 H6          0.0268   -2.5984   -2.1545 H         1 <0>         0.1274
     31 H7          0.0473   -2.6217    2.1299 H         1 <0>         0.1285
     32 H8          0.0248   -0.1616    2.1340 H         1 <0>         0.1235
     33 H9          0.0603   -4.4064   -2.1645 H         1 <0>         0.1295
     34 H10         0.0941   -6.8663   -2.1687 H         1 <0>         0.1372
     35 H11         0.0940   -6.8898    2.0971 H         1 <0>         0.1372
     36 H12         0.0717   -4.4298    2.1199 H         1 <0>         0.1304
     37 H13         2.0726   -9.7281   -0.8132 H         1 <0>         0.4133
     38 H14         3.0172  -11.0378    1.4049 H         1 <0>         0.0627
     39 H15         5.2159  -10.9855    0.2597 H         1 <0>         0.0417
     40 H16         3.9305  -10.3522   -0.7962 H         1 <0>         0.0489
     41 H17         5.0477   -9.2302    0.0169 H         1 <0>         0.0712
     42 H18         3.6916   -9.7894    3.4384 H         1 <0>         0.0509
     43 H19         5.0764  -10.6568    2.7326 H         1 <0>         0.0456
     44 H20         4.9082   -8.9015    2.4898 H         1 <0>         0.0718
@<TRIPOS>BOND
     1    1    2 1
     2    1   26 1
     3    1   27 1
     4    1   28 1
     5    2    7 ar
     6    2    3 ar
     7    3    4 ar
     8    3   29 1
     9    4    5 ar
    10    4   30 1
    11    5    6 ar
    12    5    8 1
    13    6    7 ar
    14    6   31 1
    15    7   32 1
    16    8   13 ar
    17    8    9 ar
    18    9   10 ar
    19    9   33 1
    20   10   11 ar
    21   10   34 1
    22   11   12 ar
    23   11   14 1
    24   12   13 ar
    25   12   35 1
    26   13   36 1
    27   14   15 2
    28   14   16 2
    29   14   17 1
    30   17   18 1
    31   17   37 1
    32   18   19 1
    33   18   20 1
    34   18   23 1
    35   20   21 1
    36   20   22 1
    37   20   38 1
    38   21   39 1
    39   21   40 1
    40   21   41 1
    41   22   42 1
    42   22   43 1
    43   22   44 1
    44   23   24 2
    45   23   25 1
@<TRIPOS>MOLECULE
ZINC13680273
   44    45     0     0     0
SMALL
USER_CHARGES

@<TRIPOS>ATOM
      1 C1         -1.5998   -2.0555   -1.9255 C.3       1 <0>        -0.1562
      2 C2         -0.6461   -1.2347   -1.0550 C.3       1 <0>        -0.0936
      3 C3          0.3274   -0.4655   -1.9504 C.3       1 <0>        -0.1502
      4 C4         -1.4509   -0.2459   -0.2092 C.3       1 <0>         0.1583
      5 H1         -0.7730    0.3263    0.4242 H         1 <0>         0.1091
      6 C5         -2.4273   -1.0021    0.6544 C.2       1 <0>         0.5128
      7 O1         -3.5962   -1.0640    0.3369 O.2       1 <0>        -0.4975
      8 N1         -2.0016   -1.6096    1.7797 N.am      1 <0>        -0.5954
      9 O2         -2.8964   -2.4031    2.5378 O.3       1 <0>        -0.3147
     10 N2         -2.1835    0.6671   -1.0901 N.pl3     1 <0>        -1.0899
     11 S1         -2.3836    2.2529   -0.6572 S.o2      1 <0>         2.6888
     12 O3         -3.1119    2.8721   -1.7087 O.2       1 <0>        -0.9464
     13 O4         -2.8405    2.2520    0.6883 O.2       1 <0>        -0.9452
     14 C6         -0.7858    2.9955   -0.6460 C.ar      1 <0>        -0.6772
     15 C7         -0.0097    2.9433    0.4978 C.ar      1 <0>        -0.0209
     16 C8          1.2424    3.5237    0.5123 C.ar      1 <0>        -0.1288
     17 C9          1.7246    4.1626   -0.6283 C.ar      1 <0>         0.0130
     18 C10         0.9387    4.2118   -1.7779 C.ar      1 <0>        -0.1282
     19 C11        -0.3099    3.6236   -1.7828 C.ar      1 <0>        -0.0104
     20 C12         3.0698    4.7888   -0.6185 C.ar      1 <0>        -0.0482
     21 C13         3.8576    4.7350    0.5296 C.ar      1 <0>        -0.0961
     22 C14         5.1079    5.3189    0.5336 C.ar      1 <0>        -0.0891
     23 C15         5.5796    5.9578   -0.6001 C.ar      1 <0>        -0.0825
     24 C16         4.8007    6.0144   -1.7429 C.ar      1 <0>        -0.0887
     25 C17         3.5517    5.4278   -1.7592 C.ar      1 <0>        -0.0957
     26 Br1         7.2937    6.7564   -0.5875 Br        1 <0>        -0.0420
     27 H2         -1.0235   -2.7237   -2.5653 H         1 <0>         0.0676
     28 H3         -2.2596   -2.6430   -1.2871 H         1 <0>         0.0622
     29 H4         -2.1957   -1.3844   -2.5441 H         1 <0>         0.0621
     30 H5         -0.0868   -1.9023   -0.3996 H         1 <0>         0.0923
     31 H6         -0.2262    0.2502   -2.5583 H         1 <0>         0.0633
     32 H7          1.0490    0.0661   -1.3301 H         1 <0>         0.0599
     33 H8          0.8528   -1.1649   -2.6008 H         1 <0>         0.0674
     34 H9         -1.0822   -1.5033    2.0702 H         1 <0>         0.4068
     35 H10        -2.5004   -2.7975    3.3270 H         1 <0>         0.3884
     36 H11        -2.5513    0.3426   -1.9270 H         1 <0>         0.4276
     37 H12        -0.3844    2.4478    1.3812 H         1 <0>         0.1417
     38 H13         1.8473    3.4830    1.4061 H         1 <0>         0.1380
     39 H14         1.3076    4.7058   -2.6646 H         1 <0>         0.1384
     40 H15        -0.9180    3.6573   -2.6747 H         1 <0>         0.1460
     41 H16         3.4902    4.2374    1.4149 H         1 <0>         0.1377
     42 H17         5.7193    5.2777    1.4229 H         1 <0>         0.1386
     43 H18         5.1731    6.5143   -2.6249 H         1 <0>         0.1388
     44 H19         2.9467    5.4683   -2.6529 H         1 <0>         0.1381
@<TRIPOS>BOND
     1    1    2 1
     2    1   27 1
     3    1   28 1
     4    1   29 1
     5    2    3 1
     6    2    4 1
     7    2   30 1
     8    3   31 1
     9    3   32 1
    10    3   33 1
    11    4    5 1
    12    4    6 1
    13    4   10 1
    14    6    7 2
    15    6    8 am
    16    8    9 1
    17    8   34 1
    18    9   35 1
    19   10   11 1
    20   10   36 1
    21   11   12 2
    22   11   13 2
    23   11   14 1
    24   14   19 ar
    25   14   15 ar
    26   15   16 ar
    27   15   37 1
    28   16   17 ar
    29   16   38 1
    30   17   18 ar
    31   17   20 1
    32   18   19 ar
    33   18   39 1
    34   19   40 1
    35   20   25 ar
    36   20   21 ar
    37   21   22 ar
    38   21   41 1
    39   22   23 ar
    40   22   42 1
    41   23   24 ar
    42   23   26 1
    43   24   25 ar
    44   24   43 1
    45   25   44 1
@<TRIPOS>MOLECULE
ZINC13534671
   45    46     0     0     0
SMALL
USER_CHARGES

@<TRIPOS>ATOM
      1 C1         -0.0187    1.5258    0.0104 C.3       1 <0>        -0.1413
      2 C2          0.0021   -0.0041    0.0020 C.3       1 <0>        -0.0786
      3 C3          0.7182   -0.4975   -1.2568 C.3       1 <0>        -0.1477
      4 C4          0.7421   -0.5109    1.2415 C.3       1 <0>         0.0758
      5 H1          0.8346   -1.5958    1.1912 H         1 <0>         0.0799
      6 C5          2.1149    0.1084    1.2952 C.2       1 <0>         0.4897
      7 O1          2.3764    0.9381    2.1495 O.co2     1 <0>        -0.6772
      8 O2          2.9641   -0.2203    0.4845 O.co2     1 <0>        -0.6912
      9 N1         -0.0083   -0.1401    2.4439 N.pl3     1 <0>        -1.0834
     10 S1         -0.0331   -1.1568    3.7508 S.o2      1 <0>         2.6976
     11 O3         -0.8106   -0.5134    4.7512 O.2       1 <0>        -0.9776
     12 O4         -0.3504   -2.4496    3.2537 O.2       1 <0>        -0.9720
     13 C6          1.6131   -1.2463    4.3726 C.ar      1 <0>        -0.6532
     14 C7          2.4803   -2.2101    3.8904 C.ar      1 <0>        -0.0064
     15 C8          3.7710   -2.2846    4.3735 C.ar      1 <0>        -0.1317
     16 C9          4.2000   -1.3864    5.3488 C.ar      1 <0>         0.0098
     17 C10         3.3221   -0.4175    5.8309 C.ar      1 <0>        -0.1358
     18 C11         2.0352   -0.3489    5.3369 C.ar      1 <0>         0.0030
     19 C12         5.5861   -1.4618    5.8723 C.ar      1 <0>        -0.0821
     20 C13         6.4648   -2.4280    5.3854 C.ar      1 <0>        -0.0638
     21 C14         7.7528   -2.4953    5.8736 C.ar      1 <0>        -0.1497
     22 C15         8.1744   -1.6023    6.8494 C.ar      1 <0>         0.1265
     23 C16         7.3014   -0.6388    7.3363 C.ar      1 <0>        -0.2074
     24 C17         6.0140   -0.5629    6.8478 C.ar      1 <0>        -0.0640
     25 O5          9.4437   -1.6716    7.3291 O.3       1 <0>        -0.3182
     26 C18         9.8110   -0.7221    8.3320 C.3       1 <0>         0.0269
     27 H2          1.0039    1.9031    0.0027 H         1 <0>         0.0651
     28 H3         -0.5459    1.8868   -0.8726 H         1 <0>         0.0449
     29 H4         -0.5289    1.8773    0.9072 H         1 <0>         0.0481
     30 H5         -1.0205   -0.3814    0.0098 H         1 <0>         0.0607
     31 H6          1.7408   -0.1202   -1.2645 H         1 <0>         0.0874
     32 H7          0.7330   -1.5874   -1.2628 H         1 <0>         0.0474
     33 H8          0.1910   -0.1364   -2.1398 H         1 <0>         0.0409
     34 H9         -0.4906    0.7010    2.4745 H         1 <0>         0.4119
     35 H10         2.1466   -2.9059    3.1348 H         1 <0>         0.1346
     36 H11         4.4471   -3.0377    3.9966 H         1 <0>         0.1289
     37 H12         3.6494    0.2811    6.5868 H         1 <0>         0.1273
     38 H13         1.3554    0.4044    5.7065 H         1 <0>         0.1354
     39 H14         6.1372   -3.1234    4.6269 H         1 <0>         0.1362
     40 H15         8.4341   -3.2438    5.4967 H         1 <0>         0.1331
     41 H16         7.6320    0.0544    8.0956 H         1 <0>         0.1295
     42 H17         5.3365    0.1894    7.2239 H         1 <0>         0.1309
     43 H18         9.7030    0.2869    7.9340 H         1 <0>         0.0561
     44 H19         9.1628   -0.8416    9.2001 H         1 <0>         0.0551
     45 H20        10.8473   -0.8875    8.6267 H         1 <0>         0.0987
@<TRIPOS>BOND
     1    1    2 1
     2    1   27 1
     3    1   28 1
     4    1   29 1
     5    2    3 1
     6    2    4 1
     7    2   30 1
     8    3   31 1
     9    3   32 1
    10    3   33 1
    11    4    5 1
    12    4    6 1
    13    4    9 1
    14    6    7 2
    15    6    8 1
    16    9   10 1
    17    9   34 1
    18   10   11 2
    19   10   12 2
    20   10   13 1
    21   13   18 ar
    22   13   14 ar
    23   14   15 ar
    24   14   35 1
    25   15   16 ar
    26   15   36 1
    27   16   17 ar
    28   16   19 1
    29   17   18 ar
    30   17   37 1
    31   18   38 1
    32   19   24 ar
    33   19   20 ar
    34   20   21 ar
    35   20   39 1
    36   21   22 ar
    37   21   40 1
    38   22   23 ar
    39   22   25 1
    40   23   24 ar
    41   23   41 1
    42   24   42 1
    43   25   26 1
    44   26   43 1
    45   26   44 1
    46   26   45 1
@<TRIPOS>MOLECULE
ZINC39193938
   63    65     0     0     0
SMALL
USER_CHARGES

@<TRIPOS>ATOM
      1 C1         -0.0187    1.5258    0.0104 C.3       1 <0>        -0.1525
      2 C2          0.0021   -0.0041    0.0020 C.3       1 <0>         0.0513
      3 O1          0.6709   -0.4649   -1.1737 O.3       1 <0>        -0.3140
      4 C3          0.7768   -1.8100   -1.3361 C.ar      1 <0>         0.1423
      5 C4          0.2412   -2.6667   -0.3838 C.ar      1 <0>        -0.2039
      6 C5          0.3465   -4.0319   -0.5449 C.ar      1 <0>        -0.0565
      7 C6          0.9925   -4.5526   -1.6673 C.ar      1 <0>        -0.0546
      8 C7          1.5296   -3.6880   -2.6225 C.ar      1 <0>        -0.0497
      9 C8          1.4151   -2.3239   -2.4569 C.ar      1 <0>        -0.1502
     10 C9          1.1080   -6.0159   -1.8438 C.2       1 <0>        -0.0756
     11 C10         1.7008   -6.7183   -2.8585 C.2       1 <0>        -0.1883
     12 C11         1.6850   -8.0955   -2.8081 C.2       1 <0>        -0.0108
     13 C12         1.0847   -8.7119   -1.7583 C.2       1 <0>        -0.7562
     14 S1          0.5177   -7.3268   -0.7853 S.3       1 <0>         0.1894
     15 S2          0.9141  -10.4358   -1.4359 S.o2      1 <0>         2.7210
     16 O2         -0.2130  -10.5798   -0.5827 O.2       1 <0>        -0.9348
     17 O3          1.0086  -11.0950   -2.6912 O.2       1 <0>        -0.9662
     18 N1          2.2368  -10.9024   -0.5555 N.pl3     1 <0>        -1.0788
     19 C13         2.4448  -10.3686    0.7929 C.3       1 <0>         0.0854
     20 H1          1.9409   -9.4064    0.8844 H         1 <0>         0.0743
     21 C14         3.9430  -10.1856    1.0435 C.3       1 <0>        -0.0712
     22 C15         4.6504  -11.5364    0.9132 C.3       1 <0>        -0.1304
     23 C16         6.1546  -11.3436    1.1305 C.3       1 <0>         0.1301
     24 N2          6.3639  -10.6748    2.4219 N.am      1 <0>        -0.5870
     25 C17         5.6584   -9.4135    2.6868 C.3       1 <0>         0.1140
     26 C18         4.1599   -9.6279    2.4521 C.3       1 <0>        -0.1346
     27 C19         7.1870  -11.2085    3.3461 C.2       1 <0>         0.6509
     28 O4          7.7643  -12.2524    3.1151 O.2       1 <0>        -0.5792
     29 O5          7.3695  -10.5849    4.5254 O.3       1 <0>        -0.3583
     30 C20         8.2557  -11.2071    5.4579 C.3       1 <0>         0.0967
     31 C21         8.9206  -10.1345    6.3230 C.3       1 <0>        -0.1480
     32 C22         7.4653  -12.1652    6.3513 C.3       1 <0>        -0.1729
     33 C23         1.8797  -11.3300    1.8064 C.2       1 <0>         0.4951
     34 O6          1.5185  -12.4411    1.4576 O.co2     1 <0>        -0.6754
     35 O7          1.7836  -10.9969    2.9753 O.co2     1 <0>        -0.6896
     36 H2          1.0039    1.9031    0.0027 H         1 <0>         0.0666
     37 H3         -0.5459    1.8868   -0.8726 H         1 <0>         0.0663
     38 H4         -0.5289    1.8773    0.9072 H         1 <0>         0.0794
     39 H5          0.5293   -0.3651    0.8851 H         1 <0>         0.0650
     40 H6         -1.0205   -0.3814    0.0098 H         1 <0>         0.0644
     41 H7         -0.2582   -2.2630    0.4846 H         1 <0>         0.1349
     42 H8         -0.0700   -4.6976    0.1966 H         1 <0>         0.1313
     43 H9          2.0302   -4.0869   -3.4924 H         1 <0>         0.1363
     44 H10         1.8265   -1.6543   -3.1977 H         1 <0>         0.1371
     45 H11         2.1715   -6.2031   -3.6828 H         1 <0>         0.1410
     46 H12         2.1441   -8.6768   -3.5940 H         1 <0>         0.1474
     47 H13         2.8739  -11.5292   -0.9326 H         1 <0>         0.4134
     48 H14         4.3514   -9.4898    0.3106 H         1 <0>         0.0642
     49 H15         4.2600  -12.2253    1.6622 H         1 <0>         0.0827
     50 H16         4.4760  -11.9439   -0.0826 H         1 <0>         0.0753
     51 H17         6.6502  -12.3143    1.1372 H         1 <0>         0.0934
     52 H18         6.5635  -10.7277    0.3296 H         1 <0>         0.0682
     53 H19         5.8267   -9.1108    3.7204 H         1 <0>         0.0892
     54 H20         6.0269   -8.6402    2.0128 H         1 <0>         0.0633
     55 H21         3.6363   -8.6771    2.5515 H         1 <0>         0.0734
     56 H22         3.7741  -10.3348    3.1866 H         1 <0>         0.1059
     57 H23         9.0210  -11.7631    4.9164 H         1 <0>         0.0830
     58 H24         8.1553   -9.5785    6.8645 H         1 <0>         0.0671
     59 H25         9.5966  -10.6091    7.0344 H         1 <0>         0.0765
     60 H26         9.4837   -9.4519    5.6866 H         1 <0>         0.0620
     61 H27         8.1412  -12.6398    7.0626 H         1 <0>         0.0707
     62 H28         6.7000  -11.6092    6.8928 H         1 <0>         0.0657
     63 H29         6.9916  -12.9293    5.7349 H         1 <0>         0.0644
@<TRIPOS>BOND
     1    1    2 1
     2    1   36 1
     3    1   37 1
     4    1   38 1
     5    2    3 1
     6    2   39 1
     7    2   40 1
     8    3    4 1
     9    4    9 ar
    10    4    5 ar
    11    5    6 ar
    12    5   41 1
    13    6    7 ar
    14    6   42 1
    15    7    8 ar
    16    7   10 1
    17    8    9 ar
    18    8   43 1
    19    9   44 1
    20   10   14 1
    21   10   11 2
    22   11   12 1
    23   11   45 1
    24   12   13 2
    25   12   46 1
    26   13   14 1
    27   13   15 1
    28   15   16 2
    29   15   17 2
    30   15   18 1
    31   18   19 1
    32   18   47 1
    33   19   20 1
    34   19   21 1
    35   19   33 1
    36   21   26 1
    37   21   22 1
    38   21   48 1
    39   22   23 1
    40   22   49 1
    41   22   50 1
    42   23   24 1
    43   23   51 1
    44   23   52 1
    45   24   25 1
    46   24   27 am
    47   25   26 1
    48   25   53 1
    49   25   54 1
    50   26   55 1
    51   26   56 1
    52   27   28 2
    53   27   29 1
    54   29   30 1
    55   30   31 1
    56   30   32 1
    57   30   57 1
    58   31   58 1
    59   31   59 1
    60   31   60 1
    61   32   61 1
    62   32   62 1
    63   32   63 1
    64   33   34 2
    65   33   35 1
@<TRIPOS>MOLECULE
ZINC08299671
   39    40     0     0     0
SMALL
USER_CHARGES
methyl 1-acetyl-4-benzoylamino-pyrrolidine-2-carboxylate
@<TRIPOS>ATOM
      1 C1         -7.1498    5.5130    3.5075 C.3       1 <0>        -0.1684
      2 C2         -7.7316    4.8798    2.2699 C.2       1 <0>         0.5371
      3 O1         -8.9254    4.9361    2.0639 O.2       1 <0>        -0.5330
      4 N1         -6.9251    4.2510    1.3919 N.am      1 <0>        -0.6050
      5 C3         -5.4633    4.1083    1.5179 C.3       1 <0>         0.0871
      6 C4         -4.9582    3.9048    0.0677 C.3       1 <0>         0.1372
      7 H1         -4.8729    4.8579   -0.4543 H         1 <0>         0.1201
      8 C5         -6.0934    3.0382   -0.5388 C.3       1 <0>        -0.1262
      9 C6         -7.3578    3.5935    0.1501 C.3       1 <0>         0.1493
     10 H2         -7.8474    4.3172   -0.5015 H         1 <0>         0.1198
     11 C7         -8.3042    2.4654    0.4704 C.2       1 <0>         0.4556
     12 O2         -8.3507    2.0154    1.5908 O.2       1 <0>        -0.4910
     13 O3         -9.0956    1.9604   -0.4890 O.3       1 <0>        -0.3565
     14 C8         -9.9821    0.8751   -0.1087 C.3       1 <0>         0.0363
     15 N2         -3.6825    3.1848    0.0520 N.am      1 <0>        -0.7183
     16 C9         -2.5219    3.8700    0.0451 C.2       1 <0>         0.5650
     17 O4         -2.5338    5.0855    0.0518 O.2       1 <0>        -0.5275
     18 C10        -1.2345    3.1434    0.0293 C.ar      1 <0>        -0.1402
     19 C11        -1.2174    1.7478    0.0173 C.ar      1 <0>        -0.0860
     20 C12        -0.0126    1.0758    0.0080 C.ar      1 <0>        -0.1272
     21 C13         1.1770    1.7823    0.0004 C.ar      1 <0>        -0.0901
     22 C14         1.1671    3.1659    0.0079 C.ar      1 <0>        -0.1267
     23 C15        -0.0308    3.8500    0.0221 C.ar      1 <0>        -0.0574
     24 H3         -6.0704    5.3613    3.5201 H         1 <0>         0.0791
     25 H4         -7.3666    6.5812    3.5053 H         1 <0>         0.0999
     26 H5         -7.5915    5.0544    4.3922 H         1 <0>         0.0996
     27 H6         -5.2182    3.2405    2.1302 H         1 <0>         0.0794
     28 H7         -5.0295    5.0113    1.9474 H         1 <0>         0.0961
     29 H8         -6.1499    3.1772   -1.6184 H         1 <0>         0.1110
     30 H9         -5.9481    1.9860   -0.2940 H         1 <0>         0.0898
     31 H10       -10.6558    1.2149    0.6779 H         1 <0>         0.0645
     32 H11       -10.5643    0.5610   -0.9751 H         1 <0>         0.1047
     33 H12        -9.3918    0.0347    0.2564 H         1 <0>         0.0631
     34 H13        -3.6730    2.2148    0.0467 H         1 <0>         0.4044
     35 H14        -2.1453    1.1951    0.0190 H         1 <0>         0.1252
     36 H15         0.0021   -0.0041    0.0020 H         1 <0>         0.1304
     37 H16         2.1175    1.2515   -0.0111 H         1 <0>         0.1292
     38 H17         2.0991    3.7114    0.0023 H         1 <0>         0.1320
     39 H18        -0.0373    4.9300    0.0273 H         1 <0>         0.1375
@<TRIPOS>BOND
     1    1    2 1
     2    1   24 1
     3    1   25 1
     4    1   26 1
     5    2    3 2
     6    2    4 am
     7    4    9 1
     8    4    5 1
     9    5    6 1
    10    5   27 1
    11    5   28 1
    12    6    7 1
    13    6    8 1
    14    6   15 1
    15    8    9 1
    16    8   29 1
    17    8   30 1
    18    9   10 1
    19    9   11 1
    20   11   12 2
    21   11   13 1
    22   13   14 1
    23   14   31 1
    24   14   32 1
    25   14   33 1
    26   15   16 am
    27   15   34 1
    28   16   17 2
    29   16   18 1
    30   18   23 ar
    31   18   19 ar
    32   19   20 ar
    33   19   35 1
    34   20   21 ar
    35   20   36 1
    36   21   22 ar
    37   21   37 1
    38   22   23 ar
    39   22   38 1
    40   23   39 1
@<TRIPOS>MOLECULE
ZINC32215027
   42    43     0     0     0
SMALL
USER_CHARGES
methyl (2S,4R)-1-acetyl-4-(p-tolylsulfonyloxy)pyrrolidine-2-carboxylate
@<TRIPOS>ATOM
      1 C1          4.5023    0.7723    5.3919 C.3       1 <0>        -0.1308
      2 C2          3.2685    1.4029    4.7993 C.ar      1 <0>        -0.0216
      3 C3          3.3210    2.6926    4.3046 C.ar      1 <0>        -0.1407
      4 C4          2.1895    3.2707    3.7603 C.ar      1 <0>        -0.0076
      5 C5          1.0056    2.5589    3.7101 C.ar      1 <0>        -0.7134
      6 C6          0.9517    1.2710    4.2096 C.ar      1 <0>        -0.0233
      7 C7          2.0844    0.6914    4.7500 C.ar      1 <0>        -0.1413
      8 S1         -0.4367    3.2957    3.0162 S.o2      1 <0>         2.6933
      9 O1         -0.2647    4.7024    3.1211 O.2       1 <0>        -0.9275
     10 O2         -1.5508    2.6201    3.5832 O.2       1 <0>        -0.9630
     11 O3         -0.4391    2.9674    1.5300 O.3       1 <0>        -0.7301
     12 C8         -0.8018    1.6174    1.2336 C.3       1 <0>         0.0954
     13 H1         -0.5949    1.1282    2.1968 H         1 <0>         0.1116
     14 C9         -0.0127    1.0858    0.0080 C.3       1 <0>        -0.1134
     15 C10        -0.8207    1.6275   -1.1900 C.3       1 <0>         0.1525
     16 H2         -0.3970    2.5545   -1.6036 H         1 <0>         0.1254
     17 N1         -2.1828    1.9020   -0.7096 N.am      1 <0>        -0.6038
     18 C11        -2.2645    1.5340    0.7157 C.3       1 <0>         0.0876
     19 C12        -3.1898    2.4071   -1.4494 C.2       1 <0>         0.5379
     20 O4         -3.0082    2.6754   -2.6181 O.2       1 <0>        -0.5284
     21 C13        -4.5414    2.6386   -0.8243 C.3       1 <0>        -0.1741
     22 C14        -0.8594    0.5978   -2.2897 C.2       1 <0>         0.4530
     23 O5         -1.8364   -0.0991   -2.4306 O.2       1 <0>        -0.4900
     24 O6          0.1914    0.4547   -3.1125 O.3       1 <0>        -0.3556
     25 C15         0.0843   -0.5567   -4.1488 C.3       1 <0>         0.0326
     26 H3          5.3381    1.4858    5.3434 H         1 <0>         0.0733
     27 H4          4.7600   -0.1336    4.8237 H         1 <0>         0.0805
     28 H5          4.3093    0.5045    6.4412 H         1 <0>         0.0807
     29 H6          4.2462    3.2485    4.3432 H         1 <0>         0.1361
     30 H7          2.2305    4.2783    3.3738 H         1 <0>         0.1438
     31 H8          0.0256    0.7165    4.1744 H         1 <0>         0.1417
     32 H9          2.0434   -0.3164    5.1362 H         1 <0>         0.1357
     33 H10         1.0149    1.4774    0.0356 H         1 <0>         0.1221
     34 H11         0.0130   -0.0135    0.0371 H         1 <0>         0.1153
     35 H12        -2.6434    0.5102    0.8507 H         1 <0>         0.1110
     36 H13        -2.8945    2.2358    1.2819 H         1 <0>         0.1092
     37 H14        -5.2280    3.0517   -1.5779 H         1 <0>         0.1000
     38 H15        -4.4427    3.3485    0.0102 H         1 <0>         0.0938
     39 H16        -4.9400    1.6846   -0.4489 H         1 <0>         0.0949
     40 H17         1.0075   -0.5681   -4.7468 H         1 <0>         0.1064
     41 H18        -0.7716   -0.3253   -4.7999 H         1 <0>         0.0660
     42 H19        -0.0641   -1.5429   -3.6847 H         1 <0>         0.0648
@<TRIPOS>BOND
     1    1    2 1
     2    1   26 1
     3    1   27 1
     4    1   28 1
     5    2    7 ar
     6    2    3 ar
     7    3    4 ar
     8    3   29 1
     9    4    5 ar
    10    4   30 1
    11    5    6 ar
    12    5    8 1
    13    6    7 ar
    14    6   31 1
    15    7   32 1
    16    8    9 2
    17    8   10 2
    18    8   11 1
    19   11   12 1
    20   12   13 1
    21   12   18 1
    22   12   14 1
    23   14   15 1
    24   14   33 1
    25   14   34 1
    26   15   16 1
    27   15   17 1
    28   15   22 1
    29   17   18 1
    30   17   19 am
    31   18   35 1
    32   18   36 1
    33   19   20 2
    34   19   21 1
    35   21   37 1
    36   21   38 1
    37   21   39 1
    38   22   23 2
    39   22   24 1
    40   24   25 1
    41   25   40 1
    42   25   41 1
    43   25   42 1
@<TRIPOS>MOLECULE
ZINC03976469
   34    36     0     0     0
SMALL
USER_CHARGES
2-[(4-phenoxyphenyl)sulfonylmethyl]thiirane
@<TRIPOS>ATOM
      1 C1          2.3874    0.0150    0.0652 C.ar      1 <0>        -0.1154
      2 C2          1.9491    0.6675    1.2027 C.ar      1 <0>        -0.1028
      3 C3          0.7485    1.3505    1.1893 C.ar      1 <0>        -0.1375
      4 C4         -0.0179    1.3815    0.0330 C.ar      1 <0>         0.0740
      5 C5          0.4243    0.7258   -1.1072 C.ar      1 <0>        -0.1174
      6 C6          1.6257    0.0443   -1.0884 C.ar      1 <0>        -0.1018
      7 O1         -1.2020    2.0479    0.0189 O.3       1 <0>        -0.2491
      8 C7         -1.1733    3.4019    0.1307 C.ar      1 <0>         0.1797
      9 C8          0.0408    4.0735    0.1325 C.ar      1 <0>        -0.2154
     10 C9          0.0669    5.4504    0.2415 C.ar      1 <0>         0.0178
     11 C10        -1.1150    6.1583    0.3592 C.ar      1 <0>        -0.6956
     12 C11        -2.3260    5.4909    0.3629 C.ar      1 <0>         0.0149
     13 C12        -2.3579    4.1147    0.2489 C.ar      1 <0>        -0.1644
     14 S1         -1.0779    7.9139    0.5042 S.o2      1 <0>         2.5032
     15 O2          0.1332    8.3045   -0.1283 O.2       1 <0>        -0.9256
     16 O3         -2.3326    8.3463   -0.0037 O.2       1 <0>        -0.9282
     17 C13        -0.9823    8.2325    2.2875 C.3       1 <0>        -0.5909
     18 C14        -0.9442    9.7419    2.5346 C.3       1 <0>        -0.0466
     19 H1         -1.5627   10.3375    1.8631 H         1 <0>         0.1505
     20 C15        -0.8627   10.2027    3.9912 C.3       1 <0>        -0.0550
     21 S2          0.6513   10.4530    3.0239 S.3       1 <0>        -0.3243
     22 H2          3.3266   -0.5181    0.0776 H         1 <0>         0.1314
     23 H3          2.5461    0.6434    2.1024 H         1 <0>         0.1329
     24 H4          0.4067    1.8603    2.0780 H         1 <0>         0.1311
     25 H5         -0.1704    0.7481   -2.0084 H         1 <0>         0.1347
     26 H6          1.9703   -0.4662   -1.9756 H         1 <0>         0.1349
     27 H7          0.9645    3.5207    0.0447 H         1 <0>         0.1413
     28 H8          1.0115    5.9740    0.2392 H         1 <0>         0.1471
     29 H9         -3.2477    6.0463    0.4547 H         1 <0>         0.1532
     30 H10        -3.3041    3.5939    0.2515 H         1 <0>         0.1461
     31 H11        -1.8559    7.8056    2.7801 H         1 <0>         0.1578
     32 H12        -0.0784    7.7754    2.6903 H         1 <0>         0.1502
     33 H13        -1.4299   11.0943    4.2586 H         1 <0>         0.1363
     34 H14        -0.8374    9.4243    4.7538 H         1 <0>         0.1327
@<TRIPOS>BOND
     1    1    6 ar
     2    1    2 ar
     3    1   22 1
     4    2    3 ar
     5    2   23 1
     6    3    4 ar
     7    3   24 1
     8    4    5 ar
     9    4    7 1
    10    5    6 ar
    11    5   25 1
    12    6   26 1
    13    7    8 1
    14    8   13 ar
    15    8    9 ar
    16    9   10 ar
    17    9   27 1
    18   10   11 ar
    19   10   28 1
    20   11   12 ar
    21   11   14 1
    22   12   13 ar
    23   12   29 1
    24   13   30 1
    25   14   15 2
    26   14   16 2
    27   14   17 1
    28   17   18 1
    29   17   31 1
    30   17   32 1
    31   18   19 1
    32   18   21 1
    33   18   20 1
    34   20   21 1
    35   20   33 1
    36   20   34 1
@<TRIPOS>MOLECULE
ZINC13916763
   34    36     0     0     0
SMALL
USER_CHARGES
(2S)-2-[(4-phenoxyphenyl)sulfonylmethyl]thiirane
@<TRIPOS>ATOM
      1 C1         -1.7381    0.6038    8.4285 C.ar      1 <0>        -0.1466
      2 C2         -2.7010    1.5936    8.4992 C.ar      1 <0>        -0.0819
      3 C3         -3.0000    2.3491    7.3821 C.ar      1 <0>        -0.1403
      4 C4         -2.3328    2.1144    6.1884 C.ar      1 <0>         0.1153
      5 C5         -1.3703    1.1173    6.1188 C.ar      1 <0>        -0.1949
      6 C6         -1.0717    0.3679    7.2401 C.ar      1 <0>        -0.0807
      7 O1         -2.6254    2.8559    5.0879 O.3       1 <0>        -0.2594
      8 C7         -2.0410    2.5092    3.9112 C.ar      1 <0>         0.1493
      9 C8         -2.3775    1.3129    3.2939 C.ar      1 <0>        -0.1612
     10 C9         -1.7822    0.9631    2.0975 C.ar      1 <0>        -0.0041
     11 C10        -0.8521    1.8040    1.5148 C.ar      1 <0>        -0.6684
     12 C11        -0.5111    2.9943    2.1304 C.ar      1 <0>        -0.0034
     13 C12        -1.1070    3.3511    3.3245 C.ar      1 <0>        -0.1430
     14 S1         -0.0947    1.3548   -0.0114 S.o2      1 <0>         2.5013
     15 O2         -0.1502   -0.0649   -0.0397 O.2       1 <0>        -0.9229
     16 O3          1.1551    2.0309   -0.0088 O.2       1 <0>        -0.9251
     17 C13        -1.1774    2.0481   -1.2911 C.3       1 <0>        -0.5896
     18 C14        -0.6113    1.7158   -2.6731 C.3       1 <0>        -0.0462
     19 H1          0.4754    1.6487   -2.7251 H         1 <0>         0.1494
     20 C15        -1.3231    2.3323   -3.8789 C.3       1 <0>        -0.0548
     21 S2         -1.5549    0.5436   -3.6860 S.3       1 <0>        -0.3231
     22 H2         -1.5057    0.0142    9.3030 H         1 <0>         0.1283
     23 H3         -3.2200    1.7759    9.4286 H         1 <0>         0.1342
     24 H4         -3.7528    3.1216    7.4378 H         1 <0>         0.1346
     25 H5         -0.8524    0.9299    5.1898 H         1 <0>         0.1287
     26 H6         -0.3202   -0.4060    7.1874 H         1 <0>         0.1291
     27 H7         -3.1039    0.6557    3.7487 H         1 <0>         0.1429
     28 H8         -2.0437    0.0321    1.6167 H         1 <0>         0.1513
     29 H9          0.2189    3.6472    1.6754 H         1 <0>         0.1541
     30 H10        -0.8434    4.2828    3.8029 H         1 <0>         0.1464
     31 H11        -2.1749    1.6194   -1.1944 H         1 <0>         0.1520
     32 H12        -1.2339    3.1301   -1.1721 H         1 <0>         0.1585
     33 H13        -2.1851    2.9663   -3.6713 H         1 <0>         0.1332
     34 H14        -0.6951    2.6615   -4.7067 H         1 <0>         0.1369
@<TRIPOS>BOND
     1    1    6 ar
     2    1    2 ar
     3    1   22 1
     4    2    3 ar
     5    2   23 1
     6    3    4 ar
     7    3   24 1
     8    4    5 ar
     9    4    7 1
    10    5    6 ar
    11    5   25 1
    12    6   26 1
    13    7    8 1
    14    8   13 ar
    15    8    9 ar
    16    9   10 ar
    17    9   27 1
    18   10   11 ar
    19   10   28 1
    20   11   12 ar
    21   11   14 1
    22   12   13 ar
    23   12   29 1
    24   13   30 1
    25   14   15 2
    26   14   16 2
    27   14   17 1
    28   17   18 1
    29   17   31 1
    30   17   32 1
    31   18   19 1
    32   18   21 1
    33   18   20 1
    34   20   21 1
    35   20   33 1
    36   20   34 1
@<TRIPOS>MOLECULE
ZINC03883170
   35    36     0     0     0
SMALL
USER_CHARGES

@<TRIPOS>ATOM
      1 C1         -0.0167    1.3781    0.0096 C.ar      1 <0>        -0.1306
      2 C2          1.1709    2.0855    0.0021 C.ar      1 <0>        -0.1160
      3 C3          2.3773    1.4107   -0.0130 C.ar      1 <0>        -0.1186
      4 C4          2.3960    0.0285   -0.0201 C.ar      1 <0>        -0.0651
      5 C5          1.2084   -0.6789   -0.0117 C.ar      1 <0>        -0.1173
      6 C6          0.0021   -0.0041    0.0020 C.ar      1 <0>        -0.1201
      7 C7          3.7112   -0.7071   -0.0376 C.3       1 <0>        -0.0761
      8 C8          4.1714   -0.9633    1.3989 C.3       1 <0>         0.0963
      9 H1          4.2087   -0.0191    1.9423 H         1 <0>         0.0752
     10 C9          5.5425   -1.5884    1.3832 C.2       1 <0>         0.4916
     11 O1          6.5353   -0.8810    1.4078 O.co2     1 <0>        -0.6911
     12 O2          5.6591   -2.8014    1.3460 O.co2     1 <0>        -0.6793
     13 N1          3.2289   -1.8699    2.0593 N.pl3     1 <0>        -1.0797
     14 S1          2.8971   -1.6886    3.6716 S.o2      1 <0>         2.6880
     15 O3          1.9415   -2.6862    4.0043 O.2       1 <0>        -0.9702
     16 O4          4.1495   -1.5821    4.3344 O.2       1 <0>        -0.9426
     17 C10         2.0907   -0.1341    3.8659 C.ar      1 <0>        -0.6569
     18 C11         2.8363    1.0073    4.0952 C.ar      1 <0>        -0.0102
     19 C12         2.2041    2.2270    4.2472 C.ar      1 <0>        -0.1117
     20 C13         0.8253    2.3055    4.1700 C.ar      1 <0>        -0.0389
     21 C14         0.0797    1.1632    3.9406 C.ar      1 <0>        -0.1118
     22 C15         0.7130   -0.0552    3.7834 C.ar      1 <0>        -0.0076
     23 Br1        -0.0402    3.9738    4.3786 Br        1 <0>        -0.0480
     24 H2         -0.9591    1.9053    0.0259 H         1 <0>         0.1134
     25 H3          1.1563    3.1654    0.0076 H         1 <0>         0.1148
     26 H4          3.3051    1.9634   -0.0196 H         1 <0>         0.1206
     27 H5          1.2231   -1.7588   -0.0176 H         1 <0>         0.1203
     28 H6         -0.9258   -0.5567    0.0082 H         1 <0>         0.1165
     29 H7          3.5884   -1.6586   -0.5549 H         1 <0>         0.0801
     30 H8          4.4573   -0.1052   -0.5563 H         1 <0>         0.0861
     31 H9          2.7992   -2.5763    1.5522 H         1 <0>         0.4146
     32 H10         3.9128    0.9458    4.1558 H         1 <0>         0.1510
     33 H11         2.7867    3.1185    4.4267 H         1 <0>         0.1404
     34 H12        -0.9969    1.2241    3.8802 H         1 <0>         0.1377
     35 H13         0.1312   -0.9465    3.6002 H         1 <0>         0.1454
@<TRIPOS>BOND
     1    1    6 ar
     2    1    2 ar
     3    1   24 1
     4    2    3 ar
     5    2   25 1
     6    3    4 ar
     7    3   26 1
     8    4    5 ar
     9    4    7 1
    10    5    6 ar
    11    5   27 1
    12    6   28 1
    13    7    8 1
    14    7   29 1
    15    7   30 1
    16    8    9 1
    17    8   10 1
    18    8   13 1
    19   10   11 2
    20   10   12 1
    21   13   14 1
    22   13   31 1
    23   14   15 2
    24   14   16 2
    25   14   17 1
    26   17   22 ar
    27   17   18 ar
    28   18   19 ar
    29   18   32 1
    30   19   20 ar
    31   19   33 1
    32   20   21 ar
    33   20   23 1
    34   21   22 ar
    35   21   34 1
    36   22   35 1
@<TRIPOS>MOLECULE
ZINC02583785
   45    47     0     0     0
SMALL
USER_CHARGES

@<TRIPOS>ATOM
      1 C1         -0.0167    1.3781    0.0096 C.ar      1 <0>        -0.1302
      2 C2          1.1709    2.0855    0.0021 C.ar      1 <0>        -0.1149
      3 C3          2.3773    1.4107   -0.0130 C.ar      1 <0>        -0.1178
      4 C4          2.3960    0.0285   -0.0201 C.ar      1 <0>        -0.0638
      5 C5          1.2084   -0.6789   -0.0117 C.ar      1 <0>        -0.1166
      6 C6          0.0021   -0.0041    0.0020 C.ar      1 <0>        -0.1196
      7 C7          3.7112   -0.7071   -0.0376 C.3       1 <0>        -0.0761
      8 C8          4.1714   -0.9633    1.3989 C.3       1 <0>         0.0973
      9 H1          4.2087   -0.0191    1.9423 H         1 <0>         0.0753
     10 C9          5.5425   -1.5884    1.3832 C.2       1 <0>         0.4916
     11 O1          6.5353   -0.8810    1.4078 O.co2     1 <0>        -0.6920
     12 O2          5.6591   -2.8014    1.3460 O.co2     1 <0>        -0.6800
     13 N1          3.2289   -1.8699    2.0593 N.pl3     1 <0>        -1.0814
     14 S1          2.8971   -1.6886    3.6716 S.o2      1 <0>         2.6881
     15 O3          1.9415   -2.6862    4.0043 O.2       1 <0>        -0.9741
     16 O4          4.1495   -1.5821    4.3344 O.2       1 <0>        -0.9469
     17 C10         2.0907   -0.1341    3.8659 C.ar      1 <0>        -0.6672
     18 C11         2.8390    1.0065    4.0953 C.ar      1 <0>        -0.0130
     19 C12         2.2125    2.2267    4.2483 C.ar      1 <0>        -0.1313
     20 C13         0.8236    2.3084    4.1713 C.ar      1 <0>         0.0043
     21 C14         0.0748    1.1563    3.9400 C.ar      1 <0>        -0.1311
     22 C15         0.7121   -0.0578    3.7829 C.ar      1 <0>        -0.0101
     23 C16         0.1444    3.6175    4.3354 C.ar      1 <0>        -0.0494
     24 C17         0.8936    4.7704    4.5614 C.ar      1 <0>        -0.1047
     25 C18         0.2567    5.9855    4.7129 C.ar      1 <0>        -0.1191
     26 C19        -1.1226    6.0599    4.6412 C.ar      1 <0>        -0.1173
     27 C20        -1.8713    4.9185    4.4175 C.ar      1 <0>        -0.1203
     28 C21        -1.2444    3.6992    4.2584 C.ar      1 <0>        -0.1049
     29 H2         -0.9591    1.9053    0.0259 H         1 <0>         0.1121
     30 H3          1.1563    3.1654    0.0076 H         1 <0>         0.1133
     31 H4          3.3051    1.9634   -0.0196 H         1 <0>         0.1199
     32 H5          1.2231   -1.7588   -0.0176 H         1 <0>         0.1198
     33 H6         -0.9258   -0.5567    0.0082 H         1 <0>         0.1158
     34 H7          3.5884   -1.6586   -0.5549 H         1 <0>         0.0795
     35 H8          4.4573   -0.1052   -0.5563 H         1 <0>         0.0854
     36 H9          2.7992   -2.5763    1.5522 H         1 <0>         0.4134
     37 H10         3.9154    0.9419    4.1552 H         1 <0>         0.1434
     38 H11         2.7976    3.1165    4.4277 H         1 <0>         0.1317
     39 H12        -1.0020    1.2140    3.8798 H         1 <0>         0.1292
     40 H13         0.1330   -0.9507    3.5989 H         1 <0>         0.1376
     41 H14         1.9706    4.7133    4.6183 H         1 <0>         0.1279
     42 H15         0.8364    6.8797    4.8881 H         1 <0>         0.1245
     43 H16        -1.6170    7.0127    4.7607 H         1 <0>         0.1219
     44 H17        -2.9480    4.9822    4.3628 H         1 <0>         0.1237
     45 H18        -1.8296    2.8093    4.0794 H         1 <0>         0.1263
@<TRIPOS>BOND
     1    1    6 ar
     2    1    2 ar
     3    1   29 1
     4    2    3 ar
     5    2   30 1
     6    3    4 ar
     7    3   31 1
     8    4    5 ar
     9    4    7 1
    10    5    6 ar
    11    5   32 1
    12    6   33 1
    13    7    8 1
    14    7   34 1
    15    7   35 1
    16    8    9 1
    17    8   10 1
    18    8   13 1
    19   10   11 2
    20   10   12 1
    21   13   14 1
    22   13   36 1
    23   14   15 2
    24   14   16 2
    25   14   17 1
    26   17   22 ar
    27   17   18 ar
    28   18   19 ar
    29   18   37 1
    30   19   20 ar
    31   19   38 1
    32   20   21 ar
    33   20   23 1
    34   21   22 ar
    35   21   39 1
    36   22   40 1
    37   23   28 ar
    38   23   24 ar
    39   24   25 ar
    40   24   41 1
    41   25   26 ar
    42   25   42 1
    43   26   27 ar
    44   26   43 1
    45   27   28 ar
    46   27   44 1
    47   28   45 1
@<TRIPOS>MOLECULE
ZINC05853034
   37    38     0     0     0
SMALL
USER_CHARGES

@<TRIPOS>ATOM
      1 C1         -2.1644  -11.1174    1.1662 C.3       1 <0>        -0.1266
      2 C2         -1.7279   -9.6750    1.1619 C.ar      1 <0>        -0.0254
      3 C3         -1.0046   -9.1686    2.2256 C.ar      1 <0>        -0.1400
      4 C4         -0.6042   -7.8455    2.2217 C.ar      1 <0>        -0.0121
      5 C5         -0.9266   -7.0289    1.1540 C.ar      1 <0>        -0.6839
      6 C6         -1.6491   -7.5356    0.0899 C.ar      1 <0>        -0.0171
      7 C7         -2.0458   -8.8598    0.0918 C.ar      1 <0>        -0.1413
      8 S1         -0.4172   -5.3422    1.1495 S.o2      1 <0>         2.7048
      9 O1         -1.2380   -4.6726    0.2023 O.2       1 <0>        -0.9436
     10 O2         -0.3384   -4.9382    2.5096 O.2       1 <0>        -0.9453
     11 N1          1.1268   -5.2986    0.5526 N.pl3     1 <0>        -0.9892
     12 C8          1.4955   -5.2585   -0.8743 C.3       1 <0>         0.0873
     13 C9          2.9298   -5.8411   -0.9297 C.3       1 <0>         0.0960
     14 H1          3.4659   -5.4767   -1.8060 H         1 <0>         0.0919
     15 C10         3.5472   -5.2735    0.3757 C.3       1 <0>        -0.1070
     16 C11         2.3568   -5.2870    1.3579 C.3       1 <0>         0.1675
     17 H2          2.4015   -6.1814    1.9793 H         1 <0>         0.1168
     18 C12         2.3902   -4.0548    2.2248 C.2       1 <0>         0.4483
     19 O3          1.7979   -3.0589    1.8824 O.2       1 <0>        -0.4906
     20 O4          3.0780   -4.0636    3.3774 O.3       1 <0>        -0.3478
     21 C13         3.0664   -2.8609    4.1491 C.3       1 <0>         0.0322
     22 O5          2.9037   -7.2696   -0.9060 O.3       1 <0>        -0.5534
     23 H3         -1.3923  -11.7320    0.7032 H         1 <0>         0.0811
     24 H4         -2.3230  -11.4459    2.1933 H         1 <0>         0.0740
     25 H5         -3.0935  -11.2174    0.6051 H         1 <0>         0.0738
     26 H6         -0.7527   -9.8066    3.0598 H         1 <0>         0.1345
     27 H7         -0.0397   -7.4497    3.0531 H         1 <0>         0.1378
     28 H8         -1.9013   -6.8975   -0.7442 H         1 <0>         0.1403
     29 H9         -2.6071   -9.2565   -0.7412 H         1 <0>         0.1343
     30 H10         0.8130   -5.8744   -1.4599 H         1 <0>         0.0875
     31 H11         1.4889   -4.2314   -1.2391 H         1 <0>         0.0904
     32 H12         4.3521   -5.9161    0.7328 H         1 <0>         0.1105
     33 H13         3.9045   -4.2552    0.2224 H         1 <0>         0.0986
     34 H14         3.6587   -3.0034    5.0529 H         1 <0>         0.1049
     35 H15         3.4912   -2.0476    3.5607 H         1 <0>         0.0614
     36 H16         2.0403   -2.6144    4.4222 H         1 <0>         0.0649
     37 H17         2.4399   -7.6670   -1.6557 H         1 <0>         0.3842
@<TRIPOS>BOND
     1    1    2 1
     2    1   23 1
     3    1   24 1
     4    1   25 1
     5    2    7 ar
     6    2    3 ar
     7    3    4 ar
     8    3   26 1
     9    4    5 ar
    10    4   27 1
    11    5    6 ar
    12    5    8 1
    13    6    7 ar
    14    6   28 1
    15    7   29 1
    16    8    9 2
    17    8   10 2
    18    8   11 1
    19   11   16 1
    20   11   12 1
    21   12   13 1
    22   12   30 1
    23   12   31 1
    24   13   14 1
    25   13   15 1
    26   13   22 1
    27   15   16 1
    28   15   32 1
    29   15   33 1
    30   16   17 1
    31   16   18 1
    32   18   19 2
    33   18   20 1
    34   20   21 1
    35   21   34 1
    36   21   35 1
    37   21   36 1
    38   22   37 1
@<TRIPOS>MOLECULE
ZINC40953882
   48    50     0     0     0
SMALL
USER_CHARGES

@<TRIPOS>ATOM
      1 C1         -0.4958    0.5810    0.2352 C.3       1 <0>        -0.1421
      2 C2         -0.4575   -0.9369    0.4239 C.3       1 <0>        -0.0807
      3 C3          0.1786   -1.5878   -0.8059 C.3       1 <0>        -0.1426
      4 C4          0.3698   -1.2757    1.6656 C.3       1 <0>         0.0748
      5 H1          0.4716   -2.3576    1.7502 H         1 <0>         0.0814
      6 C5          1.7357   -0.6504    1.5451 C.2       1 <0>         0.4900
      7 O1          1.9309    0.4746    1.9724 O.co2     1 <0>        -0.6794
      8 O2          2.6455   -1.2697    1.0204 O.co2     1 <0>        -0.6901
      9 N1         -0.3028   -0.7538    2.8578 N.pl3     1 <0>        -1.0827
     10 S1         -0.2280   -1.5917    4.2842 S.o2      1 <0>         2.7006
     11 O3         -0.9444   -0.8259    5.2432 O.2       1 <0>        -0.9702
     12 O4         -0.5624   -2.9392    3.9817 O.2       1 <0>        -0.9616
     13 C6          1.4571   -1.5944    4.7991 C.ar      1 <0>        -0.6298
     14 C7          2.2998   -2.6139    4.3852 C.ar      1 <0>        -0.0271
     15 C8          3.6203   -2.6246    4.7825 C.ar      1 <0>        -0.0735
     16 C9          4.1028   -1.6082    5.6000 C.ar      1 <0>        -0.0717
     17 C10         5.4189   -1.3112    6.1975 C.ar      1 <0>        -0.1044
     18 C11         6.6586   -1.9402    6.1621 C.ar      1 <0>        -0.0542
     19 C12         7.7266   -1.3897    6.8508 C.ar      1 <0>         0.1300
     20 C13         7.5555   -0.2130    7.5735 C.ar      1 <0>        -0.0989
     21 C14         6.3285    0.4134    7.6117 C.ar      1 <0>        -0.0955
     22 C15         5.2467   -0.1260    6.9254 C.ar      1 <0>         0.0839
     23 O5          3.9615    0.2739    6.7962 O.3       1 <0>        -0.1942
     24 C16         3.2532   -0.5757    6.0203 C.ar      1 <0>         0.0629
     25 C17         1.9266   -0.5791    5.6054 C.ar      1 <0>         0.0054
     26 N2          8.9791   -2.0179    6.8203 N.am      1 <0>        -0.6456
     27 C18         9.3744   -2.6795    5.7147 C.2       1 <0>         0.6424
     28 O6          8.6890   -2.6507    4.7117 O.2       1 <0>        -0.5427
     29 O7         10.5289   -3.3725    5.7214 O.3       1 <0>        -0.3639
     30 C19        10.8861   -4.0498    4.5149 C.3       1 <0>         0.0523
     31 H2          0.5194    0.9572    0.1092 H         1 <0>         0.0714
     32 H3         -1.0852    0.8224   -0.6494 H         1 <0>         0.0420
     33 H4         -0.9490    1.0447    1.1114 H         1 <0>         0.0491
     34 H5         -1.4727   -1.3131    0.5500 H         1 <0>         0.0634
     35 H6          1.1938   -1.2115   -0.9320 H         1 <0>         0.0720
     36 H7          0.2059   -2.6691   -0.6715 H         1 <0>         0.0512
     37 H8         -0.4108   -1.3464   -1.6905 H         1 <0>         0.0458
     38 H9         -0.7919    0.0826    2.8117 H         1 <0>         0.4149
     39 H10         1.9214   -3.4017    3.7507 H         1 <0>         0.1471
     40 H11         4.2770   -3.4192    4.4604 H         1 <0>         0.1370
     41 H12         6.7879   -2.8536    5.6005 H         1 <0>         0.1442
     42 H13         8.3911    0.2128    8.1091 H         1 <0>         0.1436
     43 H14         6.2073    1.3261    8.1762 H         1 <0>         0.1437
     44 H15         1.2617    0.2125    5.9179 H         1 <0>         0.1498
     45 H16         9.5614   -1.9765    7.5949 H         1 <0>         0.4183
     46 H17        10.1115   -4.7737    4.2616 H         1 <0>         0.0641
     47 H18        10.9843   -3.3250    3.7068 H         1 <0>         0.0642
     48 H19        11.8349   -4.5674    4.6560 H         1 <0>         0.1054
@<TRIPOS>BOND
     1    1    2 1
     2    1   31 1
     3    1   32 1
     4    1   33 1
     5    2    3 1
     6    2    4 1
     7    2   34 1
     8    3   35 1
     9    3   36 1
    10    3   37 1
    11    4    5 1
    12    4    6 1
    13    4    9 1
    14    6    7 2
    15    6    8 1
    16    9   10 1
    17    9   38 1
    18   10   11 2
    19   10   12 2
    20   10   13 1
    21   13   25 ar
    22   13   14 ar
    23   14   15 ar
    24   14   39 1
    25   15   16 ar
    26   15   40 1
    27   16   24 ar
    28   16   17 1
    29   17   22 ar
    30   17   18 ar
    31   18   19 ar
    32   18   41 1
    33   19   20 ar
    34   19   26 1
    35   20   21 ar
    36   20   42 1
    37   21   22 ar
    38   21   43 1
    39   22   23 1
    40   23   24 1
    41   24   25 ar
    42   25   44 1
    43   26   27 am
    44   26   45 1
    45   27   28 2
    46   27   29 1
    47   29   30 1
    48   30   46 1
    49   30   47 1
    50   30   48 1
@<TRIPOS>MOLECULE
ZINC43014500
   49    52     0     0     0
SMALL
USER_CHARGES

@<TRIPOS>ATOM
      1 C1         -0.0187    1.5258    0.0104 C.3       1 <0>        -0.1420
      2 C2          0.0021   -0.0041    0.0020 C.3       1 <0>        -0.0807
      3 C3          0.7421   -0.5109    1.2415 C.3       1 <0>        -0.1427
      4 C4         -1.4333   -0.5336    0.0129 C.3       1 <0>         0.0748
      5 H1         -1.4190   -1.6203    0.0965 H         1 <0>         0.0817
      6 C5         -2.1755    0.0508    1.1870 C.2       1 <0>         0.4901
      7 O1         -2.7808    1.1019    1.0636 O.co2     1 <0>        -0.6798
      8 O2         -2.1706   -0.5275    2.2604 O.co2     1 <0>        -0.6901
      9 N1         -2.1054   -0.1483   -1.2305 N.pl3     1 <0>        -1.0826
     10 S1         -3.2090   -1.1686   -1.9257 S.o2      1 <0>         2.7004
     11 O3         -3.6969   -0.5094   -3.0862 O.2       1 <0>        -0.9702
     12 O4         -2.5998   -2.4514   -1.9777 O.2       1 <0>        -0.9611
     13 C6         -4.5687   -1.3016   -0.8130 C.ar      1 <0>        -0.6285
     14 C7         -4.5656   -2.2885    0.1600 C.ar      1 <0>        -0.0276
     15 C8         -5.6249   -2.4004    1.0358 C.ar      1 <0>        -0.0717
     16 C9         -6.6962   -1.5189    0.9385 C.ar      1 <0>        -0.0741
     17 C10        -7.9577   -1.3527    1.6856 C.ar      1 <0>        -0.0929
     18 C11        -8.5367   -2.0171    2.7613 C.ar      1 <0>        -0.0886
     19 C12        -9.7678   -1.6023    3.2412 C.ar      1 <0>         0.1553
     20 C13       -10.4186   -0.5255    2.6471 C.ar      1 <0>        -0.1135
     21 C14        -9.8487    0.1356    1.5806 C.ar      1 <0>        -0.0865
     22 C15        -8.6134   -0.2681    1.0873 C.ar      1 <0>         0.0743
     23 O5         -7.8440    0.1932    0.0756 O.3       1 <0>        -0.1943
     24 C16        -6.7025   -0.5197   -0.0444 C.ar      1 <0>         0.0644
     25 C17        -5.6234   -0.4192   -0.9148 C.ar      1 <0>         0.0042
     26 N2        -10.3580   -2.2671    4.3247 N.am      1 <0>        -0.5709
     27 C18       -11.6613   -1.9446    4.9386 C.3       1 <0>         0.0581
     28 C19       -11.9440   -3.2062    5.7883 C.3       1 <0>         0.0395
     29 O6        -10.6173   -3.7239    6.0076 O.3       1 <0>        -0.3199
     30 C20        -9.8409   -3.3181    4.9885 C.2       1 <0>         0.6417
     31 O7         -8.7834   -3.8420    4.6987 O.2       1 <0>        -0.4900
     32 H2          1.0039    1.9031    0.0027 H         1 <0>         0.0419
     33 H3         -0.5459    1.8868   -0.8726 H         1 <0>         0.0491
     34 H4         -0.5289    1.8773    0.9072 H         1 <0>         0.0713
     35 H5          0.5123   -0.3556   -0.8948 H         1 <0>         0.0634
     36 H6          0.2319   -0.1594    2.1383 H         1 <0>         0.0719
     37 H7          0.7568   -1.6008    1.2356 H         1 <0>         0.0514
     38 H8          1.7647   -0.1336    1.2338 H         1 <0>         0.0458
     39 H9         -1.9040    0.7045   -1.6466 H         1 <0>         0.4149
     40 H10        -3.7320   -2.9715    0.2322 H         1 <0>         0.1476
     41 H11        -5.6227   -3.1697    1.7938 H         1 <0>         0.1388
     42 H12        -8.0290   -2.8528    3.2199 H         1 <0>         0.1624
     43 H13       -11.3785   -0.2053    3.0246 H         1 <0>         0.1406
     44 H14       -10.3632    0.9697    1.1267 H         1 <0>         0.1438
     45 H15        -5.6130    0.3484   -1.6745 H         1 <0>         0.1498
     46 H16       -11.5841   -1.0601    5.5710 H         1 <0>         0.0997
     47 H17       -12.4276   -1.8113    4.1750 H         1 <0>         0.1076
     48 H18       -12.4193   -2.9410    6.7327 H         1 <0>         0.1260
     49 H19       -12.5537   -3.9200    5.2343 H         1 <0>         0.0973
@<TRIPOS>BOND
     1    1    2 1
     2    1   32 1
     3    1   33 1
     4    1   34 1
     5    2    3 1
     6    2    4 1
     7    2   35 1
     8    3   36 1
     9    3   37 1
    10    3   38 1
    11    4    5 1
    12    4    6 1
    13    4    9 1
    14    6    7 2
    15    6    8 1
    16    9   10 1
    17    9   39 1
    18   10   11 2
    19   10   12 2
    20   10   13 1
    21   13   25 ar
    22   13   14 ar
    23   14   15 ar
    24   14   40 1
    25   15   16 ar
    26   15   41 1
    27   16   24 ar
    28   16   17 1
    29   17   22 ar
    30   17   18 ar
    31   18   19 ar
    32   18   42 1
    33   19   20 ar
    34   19   26 1
    35   20   21 ar
    36   20   43 1
    37   21   22 ar
    38   21   44 1
    39   22   23 1
    40   23   24 1
    41   24   25 ar
    42   25   45 1
    43   26   30 am
    44   26   27 1
    45   27   28 1
    46   27   46 1
    47   27   47 1
    48   28   29 1
    49   28   48 1
    50   28   49 1
    51   29   30 1
    52   30   31 2
@<TRIPOS>MOLECULE
ZINC06116142
   46    48     0     0     0
SMALL
USER_CHARGES
4-[4-(4-chlorophenyl)phenyl]-4-oxo-2-(phenylsulfanylmethyl)butanoic acid
@<TRIPOS>ATOM
      1 C1         -0.0167    1.3788    0.0096 C.ar      1 <0>        -0.1443
      2 C2          1.1695    2.0899    0.0021 C.ar      1 <0>        -0.0999
      3 C3          2.3774    1.4209   -0.0131 C.ar      1 <0>        -0.1423
      4 C4          2.4001    0.0314   -0.0208 C.ar      1 <0>        -0.0769
      5 C5          1.2062   -0.6798   -0.0132 C.ar      1 <0>        -0.1106
      6 C6          0.0021   -0.0041    0.0020 C.ar      1 <0>        -0.1012
      7 S1          3.9390   -0.8266   -0.0396 S.3       1 <0>        -0.0667
      8 C7          5.1794    0.4971   -0.0445 C.3       1 <0>        -0.0815
      9 C8          6.5806   -0.1171   -0.0608 C.3       1 <0>        -0.1180
     10 H1          6.6846   -0.8071    0.7766 H         1 <0>         0.0834
     11 C9          7.6257    0.9936    0.0607 C.3       1 <0>        -0.1207
     12 C10         8.9988    0.3819    0.1683 C.2       1 <0>         0.3567
     13 O1          9.1286   -0.8238    0.1496 O.2       1 <0>        -0.3573
     14 C11        10.1806    1.2464    0.2958 C.ar      1 <0>        -0.1321
     15 C12        10.0325    2.6385    0.3118 C.ar      1 <0>        -0.0817
     16 C13        11.1357    3.4427    0.4357 C.ar      1 <0>        -0.1181
     17 C14        12.4069    2.8749    0.5357 C.ar      1 <0>        -0.0425
     18 C15        12.5575    1.4875    0.5147 C.ar      1 <0>        -0.1162
     19 C16        11.4567    0.6791    0.3958 C.ar      1 <0>        -0.0664
     20 C17        13.5987    3.7467    0.6639 C.ar      1 <0>        -0.0327
     21 C18        14.8698    3.1831    0.7693 C.ar      1 <0>        -0.0992
     22 C19        15.9763    3.9992    0.8827 C.ar      1 <0>        -0.1068
     23 C20        15.8253    5.3755    0.9033 C.ar      1 <0>        -0.0381
     24 C21        14.5649    5.9402    0.8047 C.ar      1 <0>        -0.1073
     25 C22        13.4523    5.1333    0.6853 C.ar      1 <0>        -0.0995
     26 Cl1        17.2212    6.3966    1.0540 Cl        1 <0>        -0.0739
     27 C23         6.7875   -0.8622   -1.3543 C.2       1 <0>         0.4579
     28 O2          5.9048   -0.8983   -2.1785 O.co2     1 <0>        -0.6241
     29 H2         -0.9600    1.9047    0.0170 H         1 <0>         0.1178
     30 H3          1.1511    3.1697    0.0081 H         1 <0>         0.1192
     31 H4          3.3033    1.9769   -0.0186 H         1 <0>         0.1208
     32 H5          1.2201   -1.7597   -0.0194 H         1 <0>         0.1247
     33 H6         -0.9262   -0.5561    0.0076 H         1 <0>         0.1216
     34 H7          5.0446    1.1180   -0.9302 H         1 <0>         0.0871
     35 H8          5.0613    1.1090    0.8497 H         1 <0>         0.0728
     36 H9          7.5845    1.5800   -0.7483 H         1 <0>         0.0804
     37 H10         7.4222    1.5883    0.9513 H         1 <0>         0.0817
     38 H11         9.0495    3.0784    0.2299 H         1 <0>         0.1332
     39 H12        11.0217    4.5166    0.4515 H         1 <0>         0.1280
     40 H13        13.5421    1.0504    0.5919 H         1 <0>         0.1283
     41 H14        11.5738   -0.3944    0.3789 H         1 <0>         0.1375
     42 H15        14.9882    2.1096    0.7582 H         1 <0>         0.1373
     43 H16        16.9616    3.5638    0.9602 H         1 <0>         0.1350
     44 H17        14.4525    7.0142    0.8217 H         1 <0>         0.1348
     45 H18        12.4696    5.5747    0.6088 H         1 <0>         0.1369
     46 O3          7.9524   -1.4858   -1.5906 O.co2     1 <0>        -0.7371
@<TRIPOS>BOND
     1    1    6 ar
     2    1    2 ar
     3    1   29 1
     4    2    3 ar
     5    2   30 1
     6    3    4 ar
     7    3   31 1
     8    4    5 ar
     9    4    7 1
    10    5    6 ar
    11    5   32 1
    12    6   33 1
    13    7    8 1
    14    8    9 1
    15    8   34 1
    16    8   35 1
    17    9   10 1
    18    9   11 1
    19    9   27 1
    20   11   12 1
    21   11   36 1
    22   11   37 1
    23   12   13 2
    24   12   14 1
    25   14   19 ar
    26   14   15 ar
    27   15   16 ar
    28   15   38 1
    29   16   17 ar
    30   16   39 1
    31   17   18 ar
    32   17   20 1
    33   18   19 ar
    34   18   40 1
    35   19   41 1
    36   20   25 ar
    37   20   21 ar
    38   21   22 ar
    39   21   42 1
    40   22   23 ar
    41   22   43 1
    42   23   24 ar
    43   23   26 1
    44   24   25 ar
    45   24   44 1
    46   25   45 1
    47   27   28 2
    48   27   46 1
@<TRIPOS>MOLECULE
ZINC00580328
   49    51     0     0     0
SMALL
USER_CHARGES

@<TRIPOS>ATOM
      1 C1         -0.0029    1.3711   -0.0350 C.3       1 <0>        -0.1551
      2 C2          0.0599   -0.1492    0.1253 C.3       1 <0>        -0.0205
      3 C3         -1.3580   -0.7082    0.2895 C.3       1 <0>         0.1574
      4 H1         -1.3146   -1.7952    0.3563 H         1 <0>         0.1168
      5 N1         -1.9569   -0.1678    1.5108 N.pl3     1 <0>        -0.9918
      6 C4         -1.4145   -0.5101    2.8265 C.3       1 <0>         0.1160
      7 C5         -0.0034    0.0725    2.9646 C.3       1 <0>        -0.1077
      8 S1          1.0250   -0.5670    1.6084 S.3       1 <0>        -0.2262
      9 S2         -3.2637    0.8436    1.4027 S.o2      1 <0>         2.6638
     10 O1         -3.2544    1.6460    2.5755 O.2       1 <0>        -0.9406
     11 O2         -3.2374    1.4031    0.0968 O.2       1 <0>        -0.9070
     12 C6         -4.7087   -0.1609    1.4913 C.ar      1 <0>        -0.6812
     13 C7         -5.3754   -0.5145    0.3327 C.ar      1 <0>        -0.0242
     14 C8         -6.5084   -1.3019    0.3993 C.ar      1 <0>        -0.1440
     15 C9         -6.9773   -1.7380    1.6303 C.ar      1 <0>         0.1424
     16 C10        -6.3064   -1.3817    2.7914 C.ar      1 <0>        -0.1508
     17 C11        -5.1706   -0.5988    2.7188 C.ar      1 <0>        -0.0009
     18 O3         -8.0919   -2.5123    1.6986 O.3       1 <0>        -0.2546
     19 C12        -9.2474   -1.9310    2.1098 C.ar      1 <0>         0.1604
     20 C13       -10.3960   -2.6917    2.3154 C.ar      1 <0>        -0.1954
     21 C14       -11.5508   -2.0633    2.7336 C.ar      1 <0>         0.1366
     22 N2        -11.5753   -0.7598    2.9382 N.ar      1 <0>        -0.5003
     23 C15       -10.5082   -0.0056    2.7544 C.ar      1 <0>         0.1393
     24 C16        -9.3135   -0.5593    2.3425 C.ar      1 <0>        -0.2494
     25 C17        -2.1953   -0.3110   -0.8989 C.2       1 <0>         0.5107
     26 O4         -1.8928    0.6627   -1.5556 O.2       1 <0>        -0.4421
     27 N3         -3.2804   -1.0378   -1.2319 N.am      1 <0>        -0.6056
     28 O5         -4.0671   -0.6646   -2.3485 O.3       1 <0>        -0.3002
     29 C18         0.7201   -0.7686   -1.1082 C.3       1 <0>        -0.1346
     30 H2          0.9974    1.7898    0.0758 H         1 <0>         0.0685
     31 H3         -0.3921    1.6165   -1.0231 H         1 <0>         0.1121
     32 H4         -0.6587    1.7901    0.7282 H         1 <0>         0.0417
     33 H5         -2.0566   -0.0950    3.6034 H         1 <0>         0.1078
     34 H6         -1.3719   -1.5942    2.9312 H         1 <0>         0.0967
     35 H7         -0.0494    1.1600    2.9073 H         1 <0>         0.0943
     36 H8          0.4245   -0.2280    3.9210 H         1 <0>         0.1249
     37 H9         -5.0102   -0.1745   -0.6251 H         1 <0>         0.1711
     38 H10        -7.0290   -1.5776   -0.5059 H         1 <0>         0.1463
     39 H11        -6.6695   -1.7195    3.7507 H         1 <0>         0.1444
     40 H12        -4.6455   -0.3248    3.6219 H         1 <0>         0.1468
     41 H13       -10.3827   -3.7588    2.1494 H         1 <0>         0.1473
     42 H14       -12.4461   -2.6453    2.8951 H         1 <0>         0.1686
     43 H15       -10.5698    1.0579    2.9325 H         1 <0>         0.1629
     44 H16        -8.4426    0.0630    2.1984 H         1 <0>         0.1388
     45 H17        -3.5223   -1.8166   -0.7066 H         1 <0>         0.4038
     46 H18        -4.8235   -1.2455   -2.5085 H         1 <0>         0.3858
     47 H19         1.7303   -0.3739   -1.2164 H         1 <0>         0.0779
     48 H20         0.7637   -1.8515   -0.9917 H         1 <0>         0.0674
     49 H21         0.1366   -0.5218   -1.9951 H         1 <0>         0.0819
@<TRIPOS>BOND
     1    1    2 1
     2    1   30 1
     3    1   31 1
     4    1   32 1
     5    2    8 1
     6    2    3 1
     7    2   29 1
     8    3    4 1
     9    3    5 1
    10    3   25 1
    11    5    6 1
    12    5    9 1
    13    6    7 1
    14    6   33 1
    15    6   34 1
    16    7    8 1
    17    7   35 1
    18    7   36 1
    19    9   10 2
    20    9   11 2
    21    9   12 1
    22   12   17 ar
    23   12   13 ar
    24   13   14 ar
    25   13   37 1
    26   14   15 ar
    27   14   38 1
    28   15   16 ar
    29   15   18 1
    30   16   17 ar
    31   16   39 1
    32   17   40 1
    33   18   19 1
    34   19   24 ar
    35   19   20 ar
    36   20   21 ar
    37   20   41 1
    38   21   22 ar
    39   21   42 1
    40   22   23 ar
    41   23   24 ar
    42   23   43 1
    43   24   44 1
    44   25   26 2
    45   25   27 am
    46   27   28 1
    47   27   45 1
    48   28   46 1
    49   29   47 1
    50   29   48 1
    51   29   49 1
@<TRIPOS>MOLECULE
ZINC00580328
   50    52     0     0     0
SMALL
USER_CHARGES

@<TRIPOS>ATOM
      1 C1         -0.0029    1.3711   -0.0350 C.3       1 <0>        -0.1559
      2 C2          0.0599   -0.1492    0.1253 C.3       1 <0>        -0.0229
      3 C3         -1.3580   -0.7082    0.2895 C.3       1 <0>         0.1575
      4 H1         -1.3146   -1.7952    0.3563 H         1 <0>         0.1190
      5 N1         -1.9569   -0.1678    1.5108 N.pl3     1 <0>        -0.9895
      6 C4         -1.4145   -0.5101    2.8265 C.3       1 <0>         0.1158
      7 C5         -0.0034    0.0725    2.9646 C.3       1 <0>        -0.1109
      8 S1          1.0250   -0.5670    1.6084 S.3       1 <0>        -0.2176
      9 S2         -3.2637    0.8436    1.4027 S.o2      1 <0>         2.6595
     10 O1         -3.2544    1.6460    2.5755 O.2       1 <0>        -0.9343
     11 O2         -3.2374    1.4031    0.0968 O.2       1 <0>        -0.9002
     12 C6         -4.7087   -0.1609    1.4913 C.ar      1 <0>        -0.6647
     13 C7         -5.3754   -0.5145    0.3327 C.ar      1 <0>        -0.0213
     14 C8         -6.5084   -1.3019    0.3993 C.ar      1 <0>        -0.1296
     15 C9         -6.9773   -1.7380    1.6303 C.ar      1 <0>         0.0976
     16 C10        -6.3064   -1.3817    2.7914 C.ar      1 <0>        -0.1433
     17 C11        -5.1706   -0.5988    2.7188 C.ar      1 <0>         0.0014
     18 O3         -8.0919   -2.5123    1.6986 O.3       1 <0>        -0.2172
     19 C12        -9.2474   -1.9310    2.1098 C.ar      1 <0>         0.2458
     20 C13       -10.3960   -2.6917    2.3154 C.ar      1 <0>        -0.1546
     21 C14       -11.5508   -2.0633    2.7336 C.ar      1 <0>         0.1685
     22 N2        -11.5753   -0.7598    2.9382 N.ar      1 <0>        -0.4682
     23 C15       -10.5083   -0.0055    2.7539 C.ar      1 <0>         0.1749
     24 C16        -9.3135   -0.5593    2.3425 C.ar      1 <0>        -0.2149
     25 C17        -2.1953   -0.3110   -0.8989 C.2       1 <0>         0.5084
     26 O4         -1.8928    0.6627   -1.5556 O.2       1 <0>        -0.4349
     27 N3         -3.2804   -1.0378   -1.2319 N.am      1 <0>        -0.6093
     28 O5         -4.0671   -0.6646   -2.3485 O.3       1 <0>        -0.2988
     29 C18         0.7201   -0.7686   -1.1082 C.3       1 <0>        -0.1360
     30 H2          0.9974    1.7898    0.0758 H         1 <0>         0.0714
     31 H3         -0.3921    1.6165   -1.0231 H         1 <0>         0.1118
     32 H4         -0.6587    1.7901    0.7282 H         1 <0>         0.0405
     33 H5         -2.0566   -0.0950    3.6034 H         1 <0>         0.1071
     34 H6         -1.3719   -1.5942    2.9312 H         1 <0>         0.0981
     35 H7         -0.0494    1.1600    2.9073 H         1 <0>         0.0952
     36 H8          0.4245   -0.2280    3.9210 H         1 <0>         0.1270
     37 H9         -5.0102   -0.1745   -0.6251 H         1 <0>         0.1791
     38 H10        -7.0290   -1.5776   -0.5059 H         1 <0>         0.1529
     39 H11        -6.6695   -1.7195    3.7507 H         1 <0>         0.1492
     40 H12        -4.6455   -0.3248    3.6219 H         1 <0>         0.1552
     41 H13       -10.3827   -3.7588    2.1494 H         1 <0>         0.1957
     42 H14       -12.4461   -2.6453    2.8951 H         1 <0>         0.2201
     43 H15       -10.5700    1.0580    2.9318 H         1 <0>         0.2154
     44 H16        -8.4426    0.0630    2.1984 H         1 <0>         0.1847
     45 H17        -3.5223   -1.8166   -0.7066 H         1 <0>         0.4019
     46 H18        -4.8235   -1.2455   -2.5085 H         1 <0>         0.3840
     47 H19         1.7303   -0.3739   -1.2164 H         1 <0>         0.0804
     48 H20         0.7637   -1.8515   -0.9917 H         1 <0>         0.0684
     49 H21         0.1366   -0.5218   -1.9951 H         1 <0>         0.0819
     50 H22       -12.4011   -0.3444    3.2320 H         1 <0>         0.4557
@<TRIPOS>BOND
     1    1    2 1
     2    1   30 1
     3    1   31 1
     4    1   32 1
     5    2    8 1
     6    2    3 1
     7    2   29 1
     8    3    4 1
     9    3    5 1
    10    3   25 1
    11    5    6 1
    12    5    9 1
    13    6    7 1
    14    6   33 1
    15    6   34 1
    16    7    8 1
    17    7   35 1
    18    7   36 1
    19    9   10 2
    20    9   11 2
    21    9   12 1
    22   12   17 ar
    23   12   13 ar
    24   13   14 ar
    25   13   37 1
    26   14   15 ar
    27   14   38 1
    28   15   16 ar
    29   15   18 1
    30   16   17 ar
    31   16   39 1
    32   17   40 1
    33   18   19 1
    34   19   24 ar
    35   19   20 ar
    36   20   21 ar
    37   20   41 1
    38   21   22 ar
    39   21   42 1
    40   22   23 ar
    41   22   50 1
    42   23   24 ar
    43   23   43 1
    44   24   44 1
    45   25   26 2
    46   25   27 am
    47   27   28 1
    48   27   45 1
    49   28   46 1
    50   29   47 1
    51   29   48 1
    52   29   49 1
@<TRIPOS>MOLECULE
ZINC03939175
   75    75     0     0     0
SMALL
USER_CHARGES
N-[2,2-dimethyl-1-(methylcarbamoyl)propyl]-4-methyl-2-[2-sulfanyl-4-(3,4,4-trimethyl-2,5-dioxo-imidazolidin-1-yl)-butanoyl]amino-pentanamide
@<TRIPOS>ATOM
      1 C1         -0.4809    2.4416   -0.5648 C.3       1 <0>        -0.1426
      2 C2         -0.6741    3.8342    0.0388 C.3       1 <0>        -0.0909
      3 C3          0.6771    4.5474    0.1187 C.3       1 <0>        -0.1485
      4 C4         -1.2657    3.7035    1.4437 C.3       1 <0>        -0.1232
      5 C5         -2.6702    3.1037    1.3519 C.3       1 <0>         0.1286
      6 H1         -2.6273    2.1596    0.8089 H         1 <0>         0.1200
      7 C6         -3.2045    2.8610    2.7400 C.2       1 <0>         0.5185
      8 O1         -4.2227    3.4111    3.1027 O.2       1 <0>        -0.5266
      9 N1         -2.5508    2.0325    3.5784 N.am      1 <0>        -0.7056
     10 C7         -3.0702    1.7966    4.9277 C.3       1 <0>         0.1372
     11 H2         -3.5256    2.7114    5.3069 H         1 <0>         0.1138
     12 C8         -1.9404    1.3841    5.8358 C.2       1 <0>         0.5155
     13 O2         -0.8672    1.0719    5.3651 O.2       1 <0>        -0.5305
     14 N2         -2.1227    1.3621    7.1710 N.am      1 <0>        -0.7293
     15 C9         -1.0552    0.8752    8.0482 C.3       1 <0>         0.0839
     16 C10        -4.1203    0.6848    4.8828 C.3       1 <0>        -0.0715
     17 C11        -3.4487   -0.6360    4.5015 C.3       1 <0>        -0.1452
     18 C12        -4.7748    0.5455    6.2587 C.3       1 <0>        -0.1582
     19 C13        -5.1876    1.0330    3.8433 C.3       1 <0>        -0.1330
     20 N3         -3.5533    4.0343    0.6446 N.am      1 <0>        -0.6985
     21 C14        -3.6018    4.0254   -0.7023 C.2       1 <0>         0.5237
     22 O3         -2.9142    3.2471   -1.3287 O.2       1 <0>        -0.5192
     23 C15        -4.5102    4.9826   -1.4299 C.3       1 <0>        -0.0627
     24 H3         -5.3347    5.2687   -0.7768 H         1 <0>         0.1420
     25 C16        -5.0649    4.3053   -2.6847 C.3       1 <0>        -0.1197
     26 C17        -6.0824    5.2300   -3.3559 C.3       1 <0>         0.1143
     27 N4         -6.6135    4.5815   -4.5574 N.am      1 <0>        -0.5751
     28 C18        -7.7038    3.7894   -4.5710 C.2       1 <0>         0.5296
     29 O4         -8.4029    3.4896   -3.6270 O.2       1 <0>        -0.4601
     30 C19        -7.8737    3.3508   -6.0120 C.3       1 <0>         0.1161
     31 N5         -6.7543    4.0083   -6.7083 N.am      1 <0>        -0.6207
     32 C20        -6.0794    4.7069   -5.7777 C.2       1 <0>         0.6984
     33 O5         -5.0927    5.3747   -6.0179 O.2       1 <0>        -0.5361
     34 C21        -6.4409    3.9231   -8.1369 C.3       1 <0>         0.1190
     35 C22        -7.7608    1.8294   -6.1285 C.3       1 <0>        -0.1464
     36 C23        -9.2152    3.8335   -6.5670 C.3       1 <0>        -0.1455
     37 S1         -3.5740    6.4620   -1.9050 S.3       1 <0>        -0.1877
     38 H4         -0.0594    2.5347   -1.5657 H         1 <0>         0.0494
     39 H5          0.1980    1.8645    0.0631 H         1 <0>         0.0450
     40 H6         -1.4435    1.9335   -0.6217 H         1 <0>         0.0700
     41 H7         -1.3530    4.4113   -0.5891 H         1 <0>         0.0752
     42 H8          1.0986    4.6405   -0.8822 H         1 <0>         0.0536
     43 H9          0.5395    5.5395    0.5487 H         1 <0>         0.0529
     44 H10         1.3560    3.9703    0.7465 H         1 <0>         0.0543
     45 H11        -0.6314    3.0530    2.0460 H         1 <0>         0.0792
     46 H12        -1.3208    4.6883    1.9078 H         1 <0>         0.0746
     47 H13        -1.7364    1.5925    3.2883 H         1 <0>         0.4129
     48 H14        -2.9608    1.6688    7.5512 H         1 <0>         0.4062
     49 H15        -0.8224   -0.1597    7.7971 H         1 <0>         0.0625
     50 H16        -0.1656    1.4906    7.9140 H         1 <0>         0.0631
     51 H17        -1.3833    0.9323    9.0860 H         1 <0>         0.0793
     52 H18        -2.6884   -0.8841    5.2420 H         1 <0>         0.0551
     53 H19        -4.1968   -1.4281    4.4695 H         1 <0>         0.0623
     54 H20        -2.9825   -0.5368    3.5212 H         1 <0>         0.0583
     55 H21        -5.3676    1.4353    6.4708 H         1 <0>         0.0644
     56 H22        -5.4212   -0.3321    6.2665 H         1 <0>         0.0682
     57 H23        -4.0018    0.4341    7.0191 H         1 <0>         0.0634
     58 H24        -4.7213    1.1322    2.8631 H         1 <0>         0.0510
     59 H25        -5.9357    0.2410    3.8113 H         1 <0>         0.0547
     60 H26        -5.6660    1.9740    4.1150 H         1 <0>         0.0714
     61 H27        -4.1032    4.6568    1.1456 H         1 <0>         0.4139
     62 H28        -4.2488    4.0994   -3.3773 H         1 <0>         0.0840
     63 H29        -5.5513    3.3700   -2.4078 H         1 <0>         0.0851
     64 H30        -6.8985    5.4360   -2.6633 H         1 <0>         0.1005
     65 H31        -5.5960    6.1654   -3.6328 H         1 <0>         0.1156
     66 H32        -6.9563    4.7219   -8.6702 H         1 <0>         0.0634
     67 H33        -5.3652    4.0259   -8.2796 H         1 <0>         0.0829
     68 H34        -6.7682    2.9580   -8.5237 H         1 <0>         0.0799
     69 H35        -8.5520    1.3606   -5.5434 H         1 <0>         0.0854
     70 H36        -7.8598    1.5367   -7.1738 H         1 <0>         0.0802
     71 H37        -6.7903    1.5071   -5.7512 H         1 <0>         0.0668
     72 H38        -9.2672    4.9201   -6.4981 H         1 <0>         0.0673
     73 H39        -9.3070    3.5309   -7.6102 H         1 <0>         0.0802
     74 H40       -10.0274    3.3936   -5.9883 H         1 <0>         0.0850
     75 H41        -2.5972    5.9878   -2.6988 H         1 <0>         0.0994
@<TRIPOS>BOND
     1    1    2 1
     2    1   38 1
     3    1   39 1
     4    1   40 1
     5    2    3 1
     6    2    4 1
     7    2   41 1
     8    3   42 1
     9    3   43 1
    10    3   44 1
    11    4    5 1
    12    4   45 1
    13    4   46 1
    14    5    6 1
    15    5    7 1
    16    5   20 1
    17    7    8 2
    18    7    9 am
    19    9   10 1
    20    9   47 1
    21   10   11 1
    22   10   12 1
    23   10   16 1
    24   12   13 2
    25   12   14 am
    26   14   15 1
    27   14   48 1
    28   15   49 1
    29   15   50 1
    30   15   51 1
    31   16   17 1
    32   16   18 1
    33   16   19 1
    34   17   52 1
    35   17   53 1
    36   17   54 1
    37   18   55 1
    38   18   56 1
    39   18   57 1
    40   19   58 1
    41   19   59 1
    42   19   60 1
    43   20   21 am
    44   20   61 1
    45   21   22 2
    46   21   23 1
    47   23   24 1
    48   23   25 1
    49   23   37 1
    50   25   26 1
    51   25   62 1
    52   25   63 1
    53   26   27 1
    54   26   64 1
    55   26   65 1
    56   27   32 am
    57   27   28 am
    58   28   29 2
    59   28   30 1
    60   30   31 1
    61   30   35 1
    62   30   36 1
    63   31   32 am
    64   31   34 1
    65   32   33 2
    66   34   66 1
    67   34   67 1
    68   34   68 1
    69   35   69 1
    70   35   70 1
    71   35   71 1
    72   36   72 1
    73   36   73 1
    74   36   74 1
    75   37   75 1
@<TRIPOS>MOLECULE
ZINC18098320
   65    66     0     0     0
SMALL
USER_CHARGES

@<TRIPOS>ATOM
      1 C1          1.5544   -1.2947    5.0397 C.ar      1 <0>        -0.0900
      2 C2          1.2102   -0.4834    6.1030 C.ar      1 <0>        -0.0921
      3 C3          1.1724    0.8906    5.9426 C.ar      1 <0>        -0.0324
      4 C4          1.4791    1.4554    4.7170 C.ar      1 <0>        -0.0880
      5 C5          1.8239    0.6486    3.6505 C.ar      1 <0>        -0.1127
      6 C6          1.8626   -0.7306    3.8087 C.ar      1 <0>         0.1290
      7 N1          2.2121   -1.5503    2.7298 N.pl3     1 <0>        -0.6143
      8 C7          1.6369   -2.7845    2.5938 C.2       1 <0>         0.7195
      9 N2          0.6688   -3.1548    3.4104 N.2       1 <0>        -0.6471
     10 C8          0.1644   -4.4030    3.3357 C.cat     1 <0>         0.7146
     11 N3         -1.1310   -4.5905    3.3918 N.pl3     1 <0>        -0.6238
     12 C9         -1.6790   -5.9467    3.3107 C.3       1 <0>         0.0759
     13 C10        -3.2052   -5.8862    3.3998 C.3       1 <0>        -0.1360
     14 C11        -3.7776   -7.3026    3.3151 C.3       1 <0>        -0.1162
     15 C12        -5.3038   -7.2421    3.4043 C.3       1 <0>        -0.1160
     16 C13        -5.8762   -8.6585    3.3196 C.3       1 <0>        -0.1303
     17 C14        -7.4024   -8.5980    3.4087 C.3       1 <0>         0.1417
     18 N4         -7.9504   -9.9542    3.3276 N.pl3     1 <0>        -0.7044
     19 C15        -9.3097  -10.1509    3.3864 C.2       1 <0>         0.6415
     20 N5        -10.1161   -9.1280    3.3935 N.2       1 <0>        -0.8016
     21 N6         -9.8197  -11.4315    3.4379 N.pl3     1 <0>        -0.6783
     22 C16        -8.9686  -12.5071    3.5608 C.2       1 <0>         0.6548
     23 N7         -9.4628  -13.7853    3.4855 N.pl3     1 <0>        -0.8738
     24 N8         -7.6854  -12.3100    3.7498 N.2       1 <0>        -0.6230
     25 C17        -6.8569  -13.3745    3.9908 C.ar      1 <0>         0.1447
     26 C18        -7.1610  -14.2836    5.0056 C.ar      1 <0>        -0.1551
     27 C19        -6.3229  -15.3532    5.2434 C.ar      1 <0>        -0.0871
     28 C20        -5.1820  -15.5259    4.4783 C.ar      1 <0>        -0.0575
     29 C21        -4.8750  -14.6278    3.4703 C.ar      1 <0>        -0.0892
     30 C22        -5.7084  -13.5576    3.2187 C.ar      1 <0>        -0.1205
     31 Cl1        -4.1318  -16.8739    4.7844 Cl        1 <0>        -0.0699
     32 N9          1.0129   -5.4834    3.2003 N.pl3     1 <0>        -0.8517
     33 N10         2.0652   -3.6339    1.6118 N.pl3     1 <0>        -0.8561
     34 Cl2         0.7388    1.9076    7.2811 Cl        1 <0>        -0.0496
     35 H1          1.5881   -2.3667    5.1666 H         1 <0>         0.1430
     36 H2          0.9701   -0.9216    7.0604 H         1 <0>         0.1427
     37 H3          1.4484    2.5279    4.5944 H         1 <0>         0.1466
     38 H4          2.0628    1.0898    2.6941 H         1 <0>         0.1415
     39 H5          2.8620   -1.2437    2.0783 H         1 <0>         0.4349
     40 H6         -1.3881   -6.4001    2.3631 H         1 <0>         0.0974
     41 H7         -1.2904   -6.5455    4.1344 H         1 <0>         0.0988
     42 H8         -3.4962   -5.4328    4.3474 H         1 <0>         0.0839
     43 H9         -3.5939   -5.2874    2.5761 H         1 <0>         0.0826
     44 H10        -3.4867   -7.7560    2.3675 H         1 <0>         0.0704
     45 H11        -3.3890   -7.9014    4.1389 H         1 <0>         0.0713
     46 H12        -5.5947   -6.7887    4.3518 H         1 <0>         0.0694
     47 H13        -5.6924   -6.6433    2.5805 H         1 <0>         0.0690
     48 H14        -5.5853   -9.1118    2.3720 H         1 <0>         0.0667
     49 H15        -5.4876   -9.2573    4.1433 H         1 <0>         0.0697
     50 H16        -7.6933   -8.1446    4.3563 H         1 <0>         0.0597
     51 H17        -7.7910   -7.9992    2.5850 H         1 <0>         0.0623
     52 H18       -11.0698   -9.2630    3.5083 H         1 <0>         0.3409
     53 H19        -8.8660  -14.5254    3.2931 H         1 <0>         0.4198
     54 H20       -10.4087  -13.9485    3.6247 H         1 <0>         0.4044
     55 H21        -8.0503  -14.1495    5.6036 H         1 <0>         0.1283
     56 H22        -6.5571  -16.0572    6.0283 H         1 <0>         0.1330
     57 H23        -3.9836  -14.7678    2.8768 H         1 <0>         0.1342
     58 H24        -5.4705  -12.8604    2.4290 H         1 <0>         0.1317
     59 H25         1.9726   -5.3570    3.2620 H         1 <0>         0.4305
     60 H26         0.6494   -6.3689    3.0433 H         1 <0>         0.4234
     61 H27         2.7697   -3.3577    1.0050 H         1 <0>         0.4228
     62 H28         1.6646   -4.5127    1.5219 H         1 <0>         0.4234
     63 H29        -1.7272   -3.8314    3.4870 H         1 <0>         0.4431
     64 H30        -7.3542  -10.7133    3.2324 H         1 <0>         0.4251
     65 H31       -10.7778  -11.5744    3.3877 H         1 <0>         0.4243
@<TRIPOS>BOND
     1    1    6 ar
     2    1    2 ar
     3    1   35 1
     4    2    3 ar
     5    2   36 1
     6    3    4 ar
     7    3   34 1
     8    4    5 ar
     9    4   37 1
    10    5    6 ar
    11    5   38 1
    12    6    7 1
    13    7    8 1
    14    7   39 1
    15    8    9 2
    16    8   33 1
    17    9   10 1
    18   10   11 2
    19   10   32 1
    20   11   12 1
    21   11   63 1
    22   12   13 1
    23   12   40 1
    24   12   41 1
    25   13   14 1
    26   13   42 1
    27   13   43 1
    28   14   15 1
    29   14   44 1
    30   14   45 1
    31   15   16 1
    32   15   46 1
    33   15   47 1
    34   16   17 1
    35   16   48 1
    36   16   49 1
    37   17   18 1
    38   17   50 1
    39   17   51 1
    40   18   19 1
    41   18   64 1
    42   19   20 2
    43   19   21 1
    44   20   52 1
    45   21   22 1
    46   21   65 1
    47   22   23 1
    48   22   24 2
    49   23   53 1
    50   23   54 1
    51   24   25 1
    52   25   30 ar
    53   25   26 ar
    54   26   27 ar
    55   26   55 1
    56   27   28 ar
    57   27   56 1
    58   28   29 ar
    59   28   31 1
    60   29   30 ar
    61   29   57 1
    62   30   58 1
    63   32   59 1
    64   32   60 1
    65   33   61 1
    66   33   62 1
@<TRIPOS>MOLECULE
ZINC18098320
   64    65     0     0     0
SMALL
USER_CHARGES

@<TRIPOS>ATOM
      1 C1          0.8629    0.6056    0.4827 C.ar      1 <0>        -0.1209
      2 C2          2.1440    0.8365    0.9395 C.ar      1 <0>        -0.0872
      3 C3          2.6933    0.0183    1.9120 C.ar      1 <0>        -0.0580
      4 C4          1.9616   -1.0356    2.4324 C.ar      1 <0>        -0.0854
      5 C5          0.6793   -1.2765    1.9842 C.ar      1 <0>        -0.1557
      6 C6          0.1200   -0.4554    1.0035 C.ar      1 <0>         0.1349
      7 N1         -1.1532   -0.6896    0.5542 N.2       1 <0>        -0.5898
      8 C7         -1.4359   -1.8146   -0.0586 C.2       1 <0>         0.6519
      9 N2         -0.4295   -2.7024   -0.3671 N.pl3     1 <0>        -0.6693
     10 C8         -0.7380   -3.9367   -0.9000 C.2       1 <0>         0.5971
     11 N3          0.2139   -4.7250   -1.3111 N.2       1 <0>        -0.5944
     12 C9         -0.1167   -5.9879   -1.9760 C.3       1 <0>         0.0664
     13 C10         0.3338   -5.9281   -3.4370 C.3       1 <0>        -0.1130
     14 C11        -0.0115   -7.2470   -4.1315 C.3       1 <0>        -0.1165
     15 C12         0.4391   -7.1873   -5.5924 C.3       1 <0>        -0.1140
     16 C13         0.0938   -8.5061   -6.2869 C.3       1 <0>        -0.1288
     17 C14         0.5443   -8.4464   -7.7479 C.3       1 <0>         0.1404
     18 N4          0.2137   -9.7092   -8.4129 N.pl3     1 <0>        -0.7036
     19 C15         0.5254   -9.8896   -9.7396 C.2       1 <0>         0.6392
     20 N5          1.1829   -8.9689  -10.3851 N.2       1 <0>        -0.8029
     21 N6          0.1419  -11.0455  -10.3871 N.pl3     1 <0>        -0.6772
     22 C16        -0.6433  -11.9711   -9.7366 C.2       1 <0>         0.6544
     23 N7         -1.0720  -11.7287   -8.5207 N.2       1 <0>        -0.6184
     24 C17        -1.8531  -12.6498   -7.8733 C.ar      1 <0>         0.1418
     25 C18        -3.0415  -13.0940   -8.4557 C.ar      1 <0>        -0.1513
     26 C19        -3.8237  -14.0214   -7.7990 C.ar      1 <0>        -0.0901
     27 C20        -3.4321  -14.5115   -6.5647 C.ar      1 <0>        -0.0555
     28 C21        -2.2546  -14.0749   -5.9818 C.ar      1 <0>        -0.0893
     29 C22        -1.4609  -13.1521   -6.6313 C.ar      1 <0>        -0.1167
     30 Cl1        -4.4221  -15.6779   -5.7442 Cl        1 <0>        -0.0718
     31 N8         -0.9773  -13.1471  -10.3603 N.pl3     1 <0>        -0.8783
     32 N9         -2.0502   -4.3349   -0.9973 N.pl3     1 <0>        -0.9140
     33 N10        -2.7347   -2.1066   -0.3923 N.pl3     1 <0>        -0.8468
     34 Cl2         4.3065    0.3147    2.4808 Cl        1 <0>        -0.0730
     35 H1          0.4340    1.2470   -0.2729 H         1 <0>         0.1336
     36 H2          2.7197    1.6570    0.5374 H         1 <0>         0.1350
     37 H3          2.3956   -1.6705    3.1906 H         1 <0>         0.1328
     38 H4          0.1096   -2.0991    2.3906 H         1 <0>         0.1264
     39 H5          0.3935   -6.8085   -1.4717 H         1 <0>         0.0772
     40 H6         -1.1939   -6.1493   -1.9343 H         1 <0>         0.0454
     41 H7         -0.1764   -5.1075   -3.9413 H         1 <0>         0.0568
     42 H8          1.4110   -5.7667   -3.4787 H         1 <0>         0.0706
     43 H9          0.4988   -8.0676   -3.6272 H         1 <0>         0.0639
     44 H10        -1.0886   -7.4085   -4.0897 H         1 <0>         0.0607
     45 H11        -0.0712   -6.3666   -6.0967 H         1 <0>         0.0640
     46 H12         1.5162   -7.0258   -5.6342 H         1 <0>         0.0663
     47 H13         0.6040   -9.3268   -5.7826 H         1 <0>         0.0656
     48 H14        -0.9834   -8.6676   -6.2452 H         1 <0>         0.0665
     49 H15         0.0341   -7.6258   -8.2522 H         1 <0>         0.0593
     50 H16         1.6215   -8.2849   -7.7896 H         1 <0>         0.0619
     51 H17        -0.2252  -10.4181   -7.9170 H         1 <0>         0.4257
     52 H18         1.3394   -9.0626  -11.3378 H         1 <0>         0.3382
     53 H19         0.4252  -11.2065  -11.3008 H         1 <0>         0.4230
     54 H20        -3.3481  -12.7121   -9.4183 H         1 <0>         0.1285
     55 H21        -4.7434  -14.3655   -8.2484 H         1 <0>         0.1322
     56 H22        -1.9547  -14.4607   -5.0187 H         1 <0>         0.1353
     57 H23        -0.5402  -12.8159   -6.1778 H         1 <0>         0.1339
     58 H24        -1.2181  -13.9246   -9.8327 H         1 <0>         0.4184
     59 H25        -0.9725  -13.2008  -11.3288 H         1 <0>         0.4038
     60 H26        -2.4047   -4.6330   -1.8495 H         1 <0>         0.4065
     61 H27        -2.6216   -4.3176   -0.2136 H         1 <0>         0.4044
     62 H28        -3.4574   -1.8512    0.2022 H         1 <0>         0.4159
     63 H29        -2.9301   -2.5683   -1.2227 H         1 <0>         0.4129
     64 H30         0.4964   -2.4598   -0.2097 H         1 <0>         0.4312
@<TRIPOS>BOND
     1    1    6 ar
     2    1    2 ar
     3    1   35 1
     4    2    3 ar
     5    2   36 1
     6    3    4 ar
     7    3   34 1
     8    4    5 ar
     9    4   37 1
    10    5    6 ar
    11    5   38 1
    12    6    7 1
    13    7    8 2
    14    8    9 1
    15    8   33 1
    16    9   10 1
    17    9   64 1
    18   10   11 2
    19   10   32 1
    20   11   12 1
    21   12   13 1
    22   12   39 1
    23   12   40 1
    24   13   14 1
    25   13   41 1
    26   13   42 1
    27   14   15 1
    28   14   43 1
    29   14   44 1
    30   15   16 1
    31   15   45 1
    32   15   46 1
    33   16   17 1
    34   16   47 1
    35   16   48 1
    36   17   18 1
    37   17   49 1
    38   17   50 1
    39   18   19 1
    40   18   51 1
    41   19   20 2
    42   19   21 1
    43   20   52 1
    44   21   22 1
    45   21   53 1
    46   22   23 2
    47   22   31 1
    48   23   24 1
    49   24   29 ar
    50   24   25 ar
    51   25   26 ar
    52   25   54 1
    53   26   27 ar
    54   26   55 1
    55   27   28 ar
    56   27   30 1
    57   28   29 ar
    58   28   56 1
    59   29   57 1
    60   31   58 1
    61   31   59 1
    62   32   60 1
    63   32   61 1
    64   33   62 1
    65   33   63 1
@<TRIPOS>MOLECULE
ZINC18098320
   64    65     0     0     0
SMALL
USER_CHARGES

@<TRIPOS>ATOM
      1 C1         -5.4651   -3.9503   -4.5880 C.ar      1 <0>        -0.1055
      2 C2         -6.3745   -4.2609   -5.5800 C.ar      1 <0>        -0.0918
      3 C3         -5.9461   -4.4301   -6.8849 C.ar      1 <0>        -0.0600
      4 C4         -4.6060   -4.2886   -7.1997 C.ar      1 <0>        -0.0904
      5 C5         -3.6924   -3.9777   -6.2117 C.ar      1 <0>        -0.1487
      6 C6         -4.1197   -3.8074   -4.9013 C.ar      1 <0>         0.1730
      7 N1         -3.1964   -3.4924   -3.8986 N.pl3     1 <0>        -0.6979
      8 C7         -3.3629   -3.9966   -2.6231 C.2       1 <0>         0.6175
      9 N2         -4.3601   -4.8674   -2.3672 N.2       1 <0>        -0.6500
     10 C8         -4.0916   -6.0325   -1.8089 C.2       1 <0>         0.7025
     11 N3         -2.8070   -6.3432   -1.4598 N.pl3     1 <0>        -0.7391
     12 C9         -2.4931   -7.6724   -0.9299 C.3       1 <0>         0.1039
     13 C10        -0.9970   -7.7581   -0.6213 C.3       1 <0>        -0.1295
     14 C11        -0.6692   -9.1463   -0.0678 C.3       1 <0>        -0.1147
     15 C12         0.8269   -9.2320    0.2408 C.3       1 <0>        -0.1151
     16 C13         1.1548  -10.6202    0.7942 C.3       1 <0>        -0.1295
     17 C14         2.6509  -10.7059    1.1029 C.3       1 <0>         0.1414
     18 N4          2.9648  -12.0352    1.6328 N.pl3     1 <0>        -0.7024
     19 C15         4.2567  -12.3477    1.9839 C.2       1 <0>         0.6409
     20 N5          5.1778  -11.4270    1.9639 N.2       1 <0>        -0.8017
     21 N6          4.5774  -13.6362    2.3573 N.pl3     1 <0>        -0.6783
     22 C16         3.6376  -14.6373    2.2535 C.2       1 <0>         0.6528
     23 N7          3.9120  -15.8897    2.7431 N.pl3     1 <0>        -0.8749
     24 N8          2.4799  -14.3939    1.6864 N.2       1 <0>        -0.6197
     25 C17         1.5805  -15.4110    1.5010 C.ar      1 <0>         0.1455
     26 C18         1.9770  -16.5906    0.8685 C.ar      1 <0>        -0.1583
     27 C19         1.0668  -17.6109    0.6848 C.ar      1 <0>        -0.0879
     28 C20        -0.2377  -17.4665    1.1258 C.ar      1 <0>        -0.0580
     29 C21        -0.6370  -16.2990    1.7538 C.ar      1 <0>        -0.0877
     30 C22         0.2654  -15.2740    1.9490 C.ar      1 <0>        -0.1183
     31 Cl1        -1.3774  -18.7545    0.8898 Cl        1 <0>        -0.0720
     32 N9         -5.0979   -6.9286   -1.5797 N.pl3     1 <0>        -0.8281
     33 N10        -2.5519   -3.6286   -1.6622 N.2       1 <0>        -0.8150
     34 Cl2        -7.0918   -4.8209   -8.1292 Cl        1 <0>        -0.0773
     35 H1         -5.8006   -3.8144   -3.5705 H         1 <0>         0.1538
     36 H2         -7.4209   -4.3722   -5.3369 H         1 <0>         0.1330
     37 H3         -4.2742   -4.4219   -8.2188 H         1 <0>         0.1322
     38 H4         -2.6466   -3.8674   -6.4579 H         1 <0>         0.1280
     39 H5         -3.0629   -7.8433   -0.0165 H         1 <0>         0.0672
     40 H6         -2.7556   -8.4294   -1.6689 H         1 <0>         0.0653
     41 H7         -0.4272   -7.5872   -1.5346 H         1 <0>         0.0694
     42 H8         -0.7345   -7.0011    0.1177 H         1 <0>         0.0741
     43 H9         -1.2390   -9.3172    0.8455 H         1 <0>         0.0669
     44 H10        -0.9317   -9.9034   -0.8068 H         1 <0>         0.0660
     45 H11         1.3967   -9.0611   -0.6726 H         1 <0>         0.0659
     46 H12         1.0894   -8.4750    0.9798 H         1 <0>         0.0671
     47 H13         0.5850  -10.7911    1.7076 H         1 <0>         0.0660
     48 H14         0.8923  -11.3773    0.0553 H         1 <0>         0.0684
     49 H15         3.2207  -10.5351    0.1895 H         1 <0>         0.0595
     50 H16         2.9134   -9.9489    1.8418 H         1 <0>         0.0628
     51 H17         6.1022  -11.6619    2.1406 H         1 <0>         0.3388
     52 H18         3.1887  -16.5131    2.9135 H         1 <0>         0.4193
     53 H19         4.8294  -16.1515    2.9188 H         1 <0>         0.4030
     54 H20         2.9941  -16.7041    0.5235 H         1 <0>         0.1282
     55 H21         1.3724  -18.5240    0.1956 H         1 <0>         0.1320
     56 H22        -1.6559  -16.1923    2.0956 H         1 <0>         0.1351
     57 H23        -0.0460  -14.3656    2.4433 H         1 <0>         0.1336
     58 H24        -6.0094   -6.7081   -1.8275 H         1 <0>         0.4227
     59 H25        -4.9005   -7.7851   -1.1694 H         1 <0>         0.4103
     60 H26        -1.7916   -3.0599   -1.8605 H         1 <0>         0.3277
     61 H27        -2.1034   -5.6835   -1.5629 H         1 <0>         0.4236
     62 H28         2.2611  -12.6948    1.7359 H         1 <0>         0.4248
     63 H29         5.4650  -13.8372    2.6931 H         1 <0>         0.4229
     64 H30        -2.4393   -2.9200   -4.0988 H         1 <0>         0.4070
@<TRIPOS>BOND
     1    1    6 ar
     2    1    2 ar
     3    1   35 1
     4    2    3 ar
     5    2   36 1
     6    3    4 ar
     7    3   34 1
     8    4    5 ar
     9    4   37 1
    10    5    6 ar
    11    5   38 1
    12    6    7 1
    13    7    8 1
    14    7   64 1
    15    8    9 1
    16    8   33 2
    17    9   10 2
    18   10   11 1
    19   10   32 1
    20   11   12 1
    21   11   61 1
    22   12   13 1
    23   12   39 1
    24   12   40 1
    25   13   14 1
    26   13   41 1
    27   13   42 1
    28   14   15 1
    29   14   43 1
    30   14   44 1
    31   15   16 1
    32   15   45 1
    33   15   46 1
    34   16   17 1
    35   16   47 1
    36   16   48 1
    37   17   18 1
    38   17   49 1
    39   17   50 1
    40   18   19 1
    41   18   62 1
    42   19   20 2
    43   19   21 1
    44   20   51 1
    45   21   22 1
    46   21   63 1
    47   22   23 1
    48   22   24 2
    49   23   52 1
    50   23   53 1
    51   24   25 1
    52   25   30 ar
    53   25   26 ar
    54   26   27 ar
    55   26   54 1
    56   27   28 ar
    57   27   55 1
    58   28   29 ar
    59   28   31 1
    60   29   30 ar
    61   29   56 1
    62   30   57 1
    63   32   58 1
    64   32   59 1
    65   33   60 1
@<TRIPOS>MOLECULE
ZINC18098320
   64    65     0     0     0
SMALL
USER_CHARGES

@<TRIPOS>ATOM
      1 C1         -0.2723   -0.9460    0.2184 C.ar      1 <0>        -0.1382
      2 C2          0.4643   -1.8494    0.9559 C.ar      1 <0>        -0.0892
      3 C3          0.5936   -3.1585    0.5237 C.ar      1 <0>        -0.0698
      4 C4         -0.0146   -3.5699   -0.6503 C.ar      1 <0>        -0.0893
      5 C5         -0.7537   -2.6765   -1.3974 C.ar      1 <0>        -0.1404
      6 C6         -0.8886   -1.3544   -0.9669 C.ar      1 <0>         0.1720
      7 N1         -1.6208   -0.4637   -1.7026 N.2       1 <0>        -0.6507
      8 C7         -1.3360   -0.2685   -2.9763 C.2       1 <0>         0.6389
      9 N2         -0.2338   -0.8234   -3.5118 N.2       1 <0>        -0.6971
     10 C8          0.9610   -0.3631   -3.1883 C.2       1 <0>         0.7004
     11 N3          1.0883    0.5731   -2.2009 N.pl3     1 <0>        -0.7463
     12 C9          2.4031    1.1435   -1.8973 C.3       1 <0>         0.1062
     13 C10         2.2849    2.0885   -0.6999 C.3       1 <0>        -0.1301
     14 C11         3.6302    2.7760   -0.4580 C.3       1 <0>        -0.1142
     15 C12         3.5467    3.6285    0.8097 C.3       1 <0>        -0.1148
     16 C13         4.8508    4.4090    0.9863 C.3       1 <0>        -0.1295
     17 C14         4.7672    5.2614    2.2540 C.3       1 <0>         0.1418
     18 N4          6.0159    6.0088    2.4231 N.pl3     1 <0>        -0.7034
     19 C15         6.1741    6.8483    3.5002 C.2       1 <0>         0.6414
     20 N5          5.1839    7.0455    4.3231 N.2       1 <0>        -0.8014
     21 N6          7.3814    7.4818    3.7094 N.pl3     1 <0>        -0.6782
     22 C16         8.4632    7.1827    2.9116 C.2       1 <0>         0.6539
     23 N7          9.6070    7.9366    2.9955 N.pl3     1 <0>        -0.8744
     24 N8          8.4006    6.1771    2.0715 N.2       1 <0>        -0.6206
     25 C17         9.4255    5.9567    1.1890 C.ar      1 <0>         0.1427
     26 C18         9.8498    6.9789    0.3383 C.ar      1 <0>        -0.1570
     27 C19        10.8822    6.7509   -0.5479 C.ar      1 <0>        -0.0886
     28 C20        11.4967    5.5111   -0.5951 C.ar      1 <0>        -0.0574
     29 C21        11.0804    4.4932    0.2461 C.ar      1 <0>        -0.0888
     30 C22        10.0533    4.7108    1.1410 C.ar      1 <0>        -0.1157
     31 Cl1        12.7944    5.2315   -1.7139 Cl        1 <0>        -0.0723
     32 N9          2.0701   -0.8229   -3.8409 N.pl3     1 <0>        -0.8264
     33 N10        -2.1681    0.5043   -3.7582 N.pl3     1 <0>        -0.8321
     34 Cl2         1.5230   -4.2890    1.4575 Cl        1 <0>        -0.0839
     35 H1         -0.3761    0.0736    0.5589 H         1 <0>         0.1235
     36 H2          0.9415   -1.5349    1.8722 H         1 <0>         0.1273
     37 H3          0.0901   -4.5924   -0.9818 H         1 <0>         0.1251
     38 H4         -1.2270   -2.9984   -2.3133 H         1 <0>         0.1248
     39 H5          3.1012    0.3409   -1.6593 H         1 <0>         0.0692
     40 H6          2.7675    1.6972   -2.7626 H         1 <0>         0.0675
     41 H7          1.5238    2.8413   -0.9048 H         1 <0>         0.0706
     42 H8          2.0035    1.5191    0.1860 H         1 <0>         0.0746
     43 H9          4.4075    2.0213   -0.3379 H         1 <0>         0.0671
     44 H10         3.8708    3.4131   -1.3091 H         1 <0>         0.0657
     45 H11         2.7141    4.3267    0.7238 H         1 <0>         0.0663
     46 H12         3.3907    2.9815    1.6730 H         1 <0>         0.0676
     47 H13         5.6833    3.7107    1.0722 H         1 <0>         0.0687
     48 H14         5.0067    5.0559    0.1230 H         1 <0>         0.0649
     49 H15         3.9347    5.9597    2.1681 H         1 <0>         0.0618
     50 H16         4.6113    4.6145    3.1173 H         1 <0>         0.0612
     51 H17         5.2709    7.6927    5.0404 H         1 <0>         0.3391
     52 H18        10.4388    7.5984    2.6285 H         1 <0>         0.4188
     53 H19         9.5836    8.8075    3.4219 H         1 <0>         0.4036
     54 H20         9.3707    7.9462    0.3737 H         1 <0>         0.1275
     55 H21        11.2114    7.5409   -1.2066 H         1 <0>         0.1319
     56 H22        11.5637    3.5283    0.2047 H         1 <0>         0.1347
     57 H23         9.7327    3.9175    1.8001 H         1 <0>         0.1341
     58 H24         1.9798   -1.4874   -4.5418 H         1 <0>         0.4235
     59 H25         2.9477   -0.4848   -3.6033 H         1 <0>         0.4104
     60 H26        -2.9629    0.9044   -3.3720 H         1 <0>         0.4096
     61 H27        -1.9588    0.6478   -4.6944 H         1 <0>         0.4077
     62 H28         0.3080    0.8599   -1.7010 H         1 <0>         0.4188
     63 H29         6.7310    5.9113    1.7751 H         1 <0>         0.4237
     64 H30         7.4683    8.1380    4.4184 H         1 <0>         0.4231
@<TRIPOS>BOND
     1    1    6 ar
     2    1    2 ar
     3    1   35 1
     4    2    3 ar
     5    2   36 1
     6    3    4 ar
     7    3   34 1
     8    4    5 ar
     9    4   37 1
    10    5    6 ar
    11    5   38 1
    12    6    7 1
    13    7    8 2
    14    8    9 1
    15    8   33 1
    16    9   10 2
    17   10   11 1
    18   10   32 1
    19   11   12 1
    20   11   62 1
    21   12   13 1
    22   12   39 1
    23   12   40 1
    24   13   14 1
    25   13   41 1
    26   13   42 1
    27   14   15 1
    28   14   43 1
    29   14   44 1
    30   15   16 1
    31   15   45 1
    32   15   46 1
    33   16   17 1
    34   16   47 1
    35   16   48 1
    36   17   18 1
    37   17   49 1
    38   17   50 1
    39   18   19 1
    40   18   63 1
    41   19   20 2
    42   19   21 1
    43   20   51 1
    44   21   22 1
    45   21   64 1
    46   22   23 1
    47   22   24 2
    48   23   52 1
    49   23   53 1
    50   24   25 1
    51   25   30 ar
    52   25   26 ar
    53   26   27 ar
    54   26   54 1
    55   27   28 ar
    56   27   55 1
    57   28   29 ar
    58   28   31 1
    59   29   30 ar
    60   29   56 1
    61   30   57 1
    62   32   58 1
    63   32   59 1
    64   33   60 1
    65   33   61 1
@<TRIPOS>MOLECULE
ZINC18098320
   64    65     0     0     0
SMALL
USER_CHARGES

@<TRIPOS>ATOM
      1 C1          1.7920    3.7874   -2.8375 C.ar      1 <0>        -0.1253
      2 C2          3.1871    3.7737   -2.7890 C.ar      1 <0>         0.1469
      3 C3          3.8563    2.5977   -2.4460 C.ar      1 <0>        -0.1624
      4 C4          3.1363    1.4569   -2.1572 C.ar      1 <0>        -0.0853
      5 C5          1.7528    1.4768   -2.2070 C.ar      1 <0>        -0.0597
      6 C6          1.0833    2.6402   -2.5466 C.ar      1 <0>        -0.0863
      7 Cl1         0.8539    0.0372   -1.8423 Cl        1 <0>        -0.0717
      8 N1          3.8966    4.9100   -3.0773 N.2       1 <0>        -0.6072
      9 C7          4.5472    5.5363   -2.1257 C.2       1 <0>         0.6464
     10 N2          4.4096    5.1322   -0.8165 N.pl3     1 <0>        -0.7218
     11 C8          4.6743    6.0154    0.2094 C.2       1 <0>         0.6034
     12 N3          4.9839    5.5661    1.3921 N.2       1 <0>        -0.6144
     13 C9          5.1922    4.1308    1.5989 C.3       1 <0>         0.0676
     14 C10         6.6534    3.8765    1.9746 C.3       1 <0>        -0.1109
     15 C11         6.8710    2.3775    2.1906 C.3       1 <0>        -0.1186
     16 C12         8.3322    2.1232    2.5663 C.3       1 <0>        -0.1133
     17 C13         8.5498    0.6242    2.7823 C.3       1 <0>        -0.1350
     18 C14        10.0110    0.3699    3.1580 C.3       1 <0>         0.1466
     19 N4         10.2193   -1.0654    3.3649 N.pl3     1 <0>        -0.7189
     20 C15        11.4632   -1.5363    3.7126 C.2       1 <0>         0.6223
     21 N5         11.6593   -2.8877    3.9073 N.pl3     1 <0>        -0.7218
     22 C16        12.7170   -3.3268    4.6721 C.2       1 <0>         0.6583
     23 N6         12.9834   -4.6090    4.7486 N.2       1 <0>        -0.5998
     24 C17        12.1259   -5.5214    4.1918 C.ar      1 <0>         0.1443
     25 C18        10.7944   -5.5763    4.6077 C.ar      1 <0>        -0.1677
     26 C19         9.9359   -6.4967    4.0431 C.ar      1 <0>        -0.0852
     27 C20        10.3923   -7.3649    3.0659 C.ar      1 <0>        -0.0597
     28 C21        11.7118   -7.3156    2.6495 C.ar      1 <0>        -0.0857
     29 C22        12.5787   -6.3958    3.2024 C.ar      1 <0>        -0.1200
     30 Cl2         9.3058   -8.5203    2.3601 Cl        1 <0>        -0.0715
     31 N7         13.4924   -2.4229    5.3542 N.pl3     1 <0>        -0.8462
     32 N8         12.4565   -0.7064    3.8581 N.2       1 <0>        -0.8028
     33 N9          4.6113    7.3700   -0.0164 N.pl3     1 <0>        -0.8482
     34 N10         5.3649    6.5943   -2.4350 N.pl3     1 <0>        -0.8342
     35 H1          1.2685    4.6955   -3.0979 H         1 <0>         0.1322
     36 H2          4.9355    2.5808   -2.4071 H         1 <0>         0.1273
     37 H3          3.6530    0.5463   -1.8921 H         1 <0>         0.1334
     38 H4          0.0040    2.6496   -2.5834 H         1 <0>         0.1347
     39 H5          4.5443    3.7817    2.4029 H         1 <0>         0.0785
     40 H6          4.9542    3.5931    0.6811 H         1 <0>         0.0290
     41 H7          7.3013    4.2255    1.1706 H         1 <0>         0.0573
     42 H8          6.8914    4.4141    2.8924 H         1 <0>         0.0721
     43 H9          6.2231    2.0284    2.9946 H         1 <0>         0.0650
     44 H10         6.6330    1.8398    1.2728 H         1 <0>         0.0604
     45 H11         8.9801    2.4722    1.7623 H         1 <0>         0.0654
     46 H12         8.5702    2.6608    3.4841 H         1 <0>         0.0680
     47 H13         7.9019    0.2752    3.5863 H         1 <0>         0.0692
     48 H14         8.3118    0.0866    1.8645 H         1 <0>         0.0681
     49 H15        10.6589    0.7190    2.3540 H         1 <0>         0.0683
     50 H16        10.2490    0.9076    4.0758 H         1 <0>         0.0693
     51 H17        10.4373   -4.8999    5.3702 H         1 <0>         0.1271
     52 H18         8.9056   -6.5405    4.3642 H         1 <0>         0.1337
     53 H19        12.0621   -7.9957    1.8871 H         1 <0>         0.1356
     54 H20        13.6066   -6.3551    2.8733 H         1 <0>         0.1344
     55 H21        13.1284   -1.5570    5.5965 H         1 <0>         0.4183
     56 H22        14.4045   -2.6499    5.5941 H         1 <0>         0.4229
     57 H23        13.3206   -1.0316    4.1556 H         1 <0>         0.3548
     58 H24         4.1285    7.7116   -0.7853 H         1 <0>         0.4071
     59 H25         5.0496    7.9842    0.5931 H         1 <0>         0.4209
     60 H26         5.3638    6.9619   -3.3326 H         1 <0>         0.4227
     61 H27         5.9439    6.9744   -1.7559 H         1 <0>         0.4135
     62 H28         9.4796   -1.6834    3.2565 H         1 <0>         0.4039
     63 H29        11.0523   -3.5288    3.5055 H         1 <0>         0.4156
     64 H30         4.1266    4.2263   -0.6157 H         1 <0>         0.4292
@<TRIPOS>BOND
     1    1    6 ar
     2    1    2 ar
     3    1   35 1
     4    2    3 ar
     5    2    8 1
     6    3    4 ar
     7    3   36 1
     8    4    5 ar
     9    4   37 1
    10    5    6 ar
    11    5    7 1
    12    6   38 1
    13    8    9 2
    14    9   10 1
    15    9   34 1
    16   10   11 1
    17   10   64 1
    18   11   12 2
    19   11   33 1
    20   12   13 1
    21   13   14 1
    22   13   39 1
    23   13   40 1
    24   14   15 1
    25   14   41 1
    26   14   42 1
    27   15   16 1
    28   15   43 1
    29   15   44 1
    30   16   17 1
    31   16   45 1
    32   16   46 1
    33   17   18 1
    34   17   47 1
    35   17   48 1
    36   18   19 1
    37   18   49 1
    38   18   50 1
    39   19   20 1
    40   19   62 1
    41   20   21 1
    42   20   32 2
    43   21   22 1
    44   21   63 1
    45   22   23 2
    46   22   31 1
    47   23   24 1
    48   24   29 ar
    49   24   25 ar
    50   25   26 ar
    51   25   51 1
    52   26   27 ar
    53   26   52 1
    54   27   28 ar
    55   27   30 1
    56   28   29 ar
    57   28   53 1
    58   29   54 1
    59   31   55 1
    60   31   56 1
    61   32   57 1
    62   33   58 1
    63   33   59 1
    64   34   60 1
    65   34   61 1
@<TRIPOS>MOLECULE
ZINC18098320
   64    65     0     0     0
SMALL
NO_CHARGES

@<TRIPOS>ATOM
      1 C1          5.4346   -2.5886    5.3418 C.ar      1 <0>        -0.1488
      2 C2          5.6872   -1.8022    6.4583 C.ar      1 <0>         0.1814
      3 C3          6.3600   -2.3419    7.5468 C.ar      1 <0>        -0.1006
      4 C4          6.7761   -3.6584    7.5164 C.ar      1 <0>        -0.0921
      5 C5          6.5235   -4.4396    6.4024 C.ar      1 <0>        -0.0597
      6 C6          5.8529   -3.9046    5.3166 C.ar      1 <0>        -0.0905
      7 Cl1         7.0485   -6.0940    6.3672 Cl        1 <0>        -0.0780
      8 N1          5.2650   -0.4688    6.4863 N.pl3     1 <0>        -0.6542
      9 C7          6.0116    0.4782    7.1605 C.2       1 <0>         0.6015
     10 N2          5.5677    1.7483    7.2498 N.2       1 <0>        -0.6929
     11 C8          6.2617    2.7296    6.7052 C.2       1 <0>         0.6861
     12 N3          7.3660    2.4487    5.9503 N.pl3     1 <0>        -0.7522
     13 C9          8.2026    3.5387    5.4422 C.3       1 <0>         0.1068
     14 C10         9.3639    2.9562    4.6342 C.3       1 <0>        -0.1314
     15 C11        10.2376    4.0946    4.1035 C.3       1 <0>        -0.1145
     16 C12        11.3990    3.5121    3.2955 C.3       1 <0>        -0.1156
     17 C13        12.2727    4.6505    2.7649 C.3       1 <0>        -0.1346
     18 C14        13.4340    4.0680    1.9569 C.3       1 <0>         0.1460
     19 N4         14.2706    5.1581    1.4488 N.pl3     1 <0>        -0.7188
     20 C15        15.3812    4.8755    0.6895 C.2       1 <0>         0.6268
     21 N5         16.1689    5.9019    0.2111 N.pl3     1 <0>        -0.7200
     22 C16        17.0223    5.6793   -0.8464 C.2       1 <0>         0.6590
     23 N6         17.8561    6.6186   -1.2254 N.2       1 <0>        -0.6027
     24 C17        17.7904    7.8634   -0.6564 C.ar      1 <0>         0.1415
     25 C18        16.6819    8.6807   -0.8845 C.ar      1 <0>        -0.1573
     26 C19        16.6214    9.9327   -0.3084 C.ar      1 <0>        -0.0875
     27 C20        17.6572   10.3792    0.4946 C.ar      1 <0>        -0.0584
     28 C21        18.7595    9.5734    0.7243 C.ar      1 <0>        -0.0873
     29 C22        18.8291    8.3172    0.1585 C.ar      1 <0>        -0.1233
     30 Cl2        17.5737   11.9560    1.2160 Cl        1 <0>        -0.0716
     31 N7         17.0007    4.4748   -1.5040 N.pl3     1 <0>        -0.8461
     32 N8         15.6898    3.6387    0.4219 N.2       1 <0>        -0.8072
     33 N9          5.8762    4.0271    6.8961 N.pl3     1 <0>        -0.8282
     34 N10         7.1510    0.1422    7.7130 N.2       1 <0>        -0.8038
     35 H1          4.9076   -2.1727    4.4958 H         1 <0>         0.1291
     36 H2          6.5580   -1.7324    8.4162 H         1 <0>         0.1531
     37 H3          7.2994   -4.0786    8.3626 H         1 <0>         0.1320
     38 H4          5.6564   -4.5166    4.4487 H         1 <0>         0.1328
     39 H5          7.6045    4.1879    4.8026 H         1 <0>         0.0674
     40 H6          8.5957    4.1156    6.2793 H         1 <0>         0.0692
     41 H7          9.9619    2.3071    5.2738 H         1 <0>         0.0740
     42 H8          8.9708    2.3794    3.7970 H         1 <0>         0.0721
     43 H9          9.6396    4.7438    3.4640 H         1 <0>         0.0668
     44 H10        10.6307    4.6715    4.9407 H         1 <0>         0.0673
     45 H11        11.9970    2.8630    3.9351 H         1 <0>         0.0690
     46 H12        11.0059    2.9353    2.4584 H         1 <0>         0.0684
     47 H13        11.6746    5.2997    2.1253 H         1 <0>         0.0691
     48 H14        12.6657    5.2274    3.6020 H         1 <0>         0.0695
     49 H15        14.0320    3.4189    2.5965 H         1 <0>         0.0696
     50 H16        13.0409    3.4912    1.1198 H         1 <0>         0.0694
     51 H17        15.8735    8.3337   -1.5110 H         1 <0>         0.1275
     52 H18        15.7646   10.5661   -0.4844 H         1 <0>         0.1336
     53 H19        19.5644    9.9274    1.3513 H         1 <0>         0.1352
     54 H20        19.6872    7.6877    0.3423 H         1 <0>         0.1333
     55 H21        16.2136    3.9099   -1.4556 H         1 <0>         0.4193
     56 H22        17.7725    4.1883   -2.0170 H         1 <0>         0.4218
     57 H23        16.5206    3.4341   -0.0350 H         1 <0>         0.3561
     58 H24         5.0926    4.2264    7.4318 H         1 <0>         0.4240
     59 H25         6.3864    4.7485    6.4958 H         1 <0>         0.4099
     60 H26         7.7093    0.8205    8.1243 H         1 <0>         0.3387
     61 H27         7.5958    1.5276    5.7510 H         1 <0>         0.4177
     62 H28        14.0408    6.0791    1.6481 H         1 <0>         0.4038
     63 H29        16.1217    6.7804    0.6196 H         1 <0>         0.4145
     64 H30         4.4480   -0.2091    6.0324 H         1 <0>         0.4141
@<TRIPOS>BOND
     1    1    6 ar
     2    1    2 ar
     3    1   35 1
     4    2    3 ar
     5    2    8 1
     6    3    4 ar
     7    3   36 1
     8    4    5 ar
     9    4   37 1
    10    5    6 ar
    11    5    7 1
    12    6   38 1
    13    8    9 1
    14    8   64 1
    15    9   10 1
    16    9   34 2
    17   10   11 2
    18   11   12 1
    19   11   33 1
    20   12   13 1
    21   12   61 1
    22   13   14 1
    23   13   39 1
    24   13   40 1
    25   14   15 1
    26   14   41 1
    27   14   42 1
    28   15   16 1
    29   15   43 1
    30   15   44 1
    31   16   17 1
    32   16   45 1
    33   16   46 1
    34   17   18 1
    35   17   47 1
    36   17   48 1
    37   18   19 1
    38   18   49 1
    39   18   50 1
    40   19   20 1
    41   19   62 1
    42   20   21 1
    43   20   32 2
    44   21   22 1
    45   21   63 1
    46   22   23 2
    47   22   31 1
    48   23   24 1
    49   24   29 ar
    50   24   25 ar
    51   25   26 ar
    52   25   51 1
    53   26   27 ar
    54   26   52 1
    55   27   28 ar
    56   27   30 1
    57   28   29 ar
    58   28   53 1
    59   29   54 1
    60   31   55 1
    61   31   56 1
    62   32   57 1
    63   33   58 1
    64   33   59 1
    65   34   60 1
@<TRIPOS>MOLECULE
ZINC18098320
   64    65     0     0     0
SMALL
NO_CHARGES

@<TRIPOS>ATOM
      1 C1          9.2312   -3.9598    7.7560 C.ar      1 <0>        -0.1503
      2 C2         10.1467   -3.3413    8.5974 C.ar      1 <0>         0.1735
      3 C3          9.7000   -2.6388    9.7091 C.ar      1 <0>        -0.1103
      4 C4          8.3473   -2.5571    9.9750 C.ar      1 <0>        -0.0904
      5 C5          7.4372   -3.1748    9.1352 C.ar      1 <0>        -0.0612
      6 C6          7.8796   -3.8750    8.0266 C.ar      1 <0>        -0.0892
      7 Cl1         5.7375   -3.0705    9.4727 Cl        1 <0>        -0.0770
      8 N1         11.5165   -3.4260    8.3260 N.pl3     1 <0>        -0.7021
      9 C7         12.3483   -2.3662    8.6322 C.2       1 <0>         0.6087
     10 N2         11.8261   -1.2079    9.0837 N.2       1 <0>        -0.6441
     11 C8         12.0191   -0.0902    8.4096 C.2       1 <0>         0.7017
     12 N3         12.6563   -0.1224    7.2008 N.pl3     1 <0>        -0.7394
     13 C9         12.9727    1.1280    6.5059 C.3       1 <0>         0.1069
     14 C10        13.6794    0.8131    5.1860 C.3       1 <0>        -0.1301
     15 C11        14.0099    2.1190    4.4603 C.3       1 <0>        -0.1150
     16 C12        14.7166    1.8042    3.1404 C.3       1 <0>        -0.1152
     17 C13        15.0471    3.1100    2.4147 C.3       1 <0>        -0.1348
     18 C14        15.7538    2.7952    1.0948 C.3       1 <0>         0.1465
     19 N4         16.0703    4.0455    0.3999 N.pl3     1 <0>        -0.7193
     20 C15        16.7111    4.0131   -0.8158 C.2       1 <0>         0.6268
     21 N5         17.0090    5.1904   -1.4700 N.pl3     1 <0>        -0.7187
     22 C16        17.2936    5.1764   -2.8173 C.2       1 <0>         0.6603
     23 N6         17.6757    6.2781   -3.4185 N.2       1 <0>        -0.6018
     24 C17        17.6498    7.4708   -2.7443 C.ar      1 <0>         0.1368
     25 C18        16.4686    8.2115   -2.6755 C.ar      1 <0>        -0.1375
     26 C19        16.4488    9.4113   -1.9949 C.ar      1 <0>        -0.0895
     27 C20        17.5973    9.8811   -1.3808 C.ar      1 <0>        -0.0562
     28 C21        18.7721    9.1513   -1.4459 C.ar      1 <0>        -0.0896
     29 C22        18.8032    7.9473   -2.1186 C.ar      1 <0>        -0.1341
     30 Cl2        17.5645   11.3919   -0.5263 Cl        1 <0>        -0.0713
     31 N7         17.1775    4.0100   -3.5312 N.pl3     1 <0>        -0.8486
     32 N8         17.0369    2.8707   -1.3500 N.2       1 <0>        -0.8088
     33 N9         11.5818    1.1000    8.9202 N.pl3     1 <0>        -0.8292
     34 N10        13.6444   -2.4867    8.4839 N.2       1 <0>        -0.7975
     35 H1          9.5757   -4.5030    6.8884 H         1 <0>         0.1280
     36 H2         10.4099   -2.1572   10.3652 H         1 <0>         0.1548
     37 H3          7.9994   -2.0110   10.8394 H         1 <0>         0.1329
     38 H4          7.1672   -4.3555    7.3724 H         1 <0>         0.1322
     39 H5         12.0515    1.6743    6.3036 H         1 <0>         0.0651
     40 H6         13.6258    1.7361    7.1317 H         1 <0>         0.0686
     41 H7         14.6006    0.2668    5.3884 H         1 <0>         0.0741
     42 H8         13.0263    0.2050    4.5602 H         1 <0>         0.0699
     43 H9         13.0887    2.6653    4.2580 H         1 <0>         0.0665
     44 H10        14.6630    2.7271    5.0861 H         1 <0>         0.0676
     45 H11        15.6378    1.2578    3.3427 H         1 <0>         0.0685
     46 H12        14.0635    1.1960    2.5146 H         1 <0>         0.0676
     47 H13        14.1259    3.6563    2.2123 H         1 <0>         0.0691
     48 H14        15.7002    3.7181    3.0405 H         1 <0>         0.0696
     49 H15        16.6750    2.2488    1.2971 H         1 <0>         0.0692
     50 H16        15.1007    2.1870    0.4690 H         1 <0>         0.0689
     51 H17        15.5721    7.8462   -3.1544 H         1 <0>         0.1298
     52 H18        15.5356    9.9854   -1.9412 H         1 <0>         0.1344
     53 H19        19.6649    9.5232   -0.9652 H         1 <0>         0.1344
     54 H20        19.7189    7.3766   -2.1646 H         1 <0>         0.1307
     55 H21        16.5763    3.3125   -3.2261 H         1 <0>         0.4196
     56 H22        17.6966    3.8831   -4.3407 H         1 <0>         0.4213
     57 H23        17.5719    2.8485   -2.1589 H         1 <0>         0.3565
     58 H24        11.1296    1.1229    9.7780 H         1 <0>         0.4232
     59 H25        11.7236    1.9217    8.4246 H         1 <0>         0.4097
     60 H26        14.0261   -3.3414    8.2296 H         1 <0>         0.3276
     61 H27        12.8989   -0.9731    6.8029 H         1 <0>         0.4167
     62 H28        15.8276    4.8962    0.7978 H         1 <0>         0.4036
     63 H29        17.0181    6.0280   -0.9811 H         1 <0>         0.4135
     64 H30        11.8823   -4.2289    7.9227 H         1 <0>         0.4065
@<TRIPOS>BOND
     1    1    6 ar
     2    1    2 ar
     3    1   35 1
     4    2    3 ar
     5    2    8 1
     6    3    4 ar
     7    3   36 1
     8    4    5 ar
     9    4   37 1
    10    5    6 ar
    11    5    7 1
    12    6   38 1
    13    8    9 1
    14    8   64 1
    15    9   10 1
    16    9   34 2
    17   10   11 2
    18   11   12 1
    19   11   33 1
    20   12   13 1
    21   12   61 1
    22   13   14 1
    23   13   39 1
    24   13   40 1
    25   14   15 1
    26   14   41 1
    27   14   42 1
    28   15   16 1
    29   15   43 1
    30   15   44 1
    31   16   17 1
    32   16   45 1
    33   16   46 1
    34   17   18 1
    35   17   47 1
    36   17   48 1
    37   18   19 1
    38   18   49 1
    39   18   50 1
    40   19   20 1
    41   19   62 1
    42   20   21 1
    43   20   32 2
    44   21   22 1
    45   21   63 1
    46   22   23 2
    47   22   31 1
    48   23   24 1
    49   24   29 ar
    50   24   25 ar
    51   25   26 ar
    52   25   51 1
    53   26   27 ar
    54   26   52 1
    55   27   28 ar
    56   27   30 1
    57   28   29 ar
    58   28   53 1
    59   29   54 1
    60   31   55 1
    61   31   56 1
    62   32   57 1
    63   33   58 1
    64   33   59 1
    65   34   60 1
@<TRIPOS>MOLECULE
ZINC18098320
   65    66     0     0     0
SMALL
NO_CHARGES

@<TRIPOS>ATOM
      1 C1          4.3154   -0.8210    6.1717 C.ar      1 <0>        -0.1166
      2 C2          4.7095   -1.7599    5.2272 C.ar      1 <0>         0.1406
      3 C3          3.8874   -2.0378    4.1429 C.ar      1 <0>        -0.1676
      4 C4          2.6805   -1.3802    4.0066 C.ar      1 <0>        -0.0822
      5 C5          2.2905   -0.4449    4.9489 C.ar      1 <0>        -0.0975
      6 C6          3.1076   -0.1664    6.0305 C.ar      1 <0>        -0.0893
      7 Cl1         0.7731    0.3803    4.7742 Cl        1 <0>        -0.0938
      8 N1          5.9327   -2.4241    5.3675 N.pl3     1 <0>        -0.6055
      9 C7          7.0245   -1.7582    5.8904 C.cat     1 <0>         0.3570
     10 N2          6.9106   -0.4684    6.2669 N.2       1 <0>        -0.5847
     11 C8          7.8204    0.4109    5.8928 C.2       1 <0>         0.5590
     12 N3          8.7980    0.0488    5.0086 N.pl3     1 <0>        -0.7522
     13 C9          9.7811    1.0372    4.5584 C.3       1 <0>         0.1101
     14 C10        10.7557    0.3781    3.5802 C.3       1 <0>        -0.1290
     15 C11        11.7825    1.4104    3.1100 C.3       1 <0>        -0.1157
     16 C12        12.7570    0.7513    2.1319 C.3       1 <0>        -0.1147
     17 C13        13.7838    1.7835    1.6616 C.3       1 <0>        -0.1352
     18 C14        14.7584    1.1245    0.6835 C.3       1 <0>         0.1466
     19 N4         15.7415    2.1129    0.2333 N.pl3     1 <0>        -0.7189
     20 C15        16.7247    1.7487   -0.6559 C.2       1 <0>         0.6264
     21 N5         17.6504    2.6793   -1.0799 N.pl3     1 <0>        -0.7195
     22 C16        18.3759    2.4548   -2.2285 C.2       1 <0>         0.6592
     23 N6         19.3411    3.2769   -2.5659 N.2       1 <0>        -0.6021
     24 C17        19.5281    4.4388   -1.8640 C.ar      1 <0>         0.1410
     25 C18        18.5725    5.4547   -1.9228 C.ar      1 <0>        -0.1561
     26 C19        18.7663    6.6219   -1.2135 C.ar      1 <0>        -0.0874
     27 C20        19.9057    6.7869   -0.4444 C.ar      1 <0>        -0.0582
     28 C21        20.8573    5.7832   -0.3823 C.ar      1 <0>        -0.0875
     29 C22        20.6722    4.6091   -1.0825 C.ar      1 <0>        -0.1239
     30 Cl2        20.1423    8.2587    0.4453 Cl        1 <0>        -0.0714
     31 N7         18.0894    1.3712   -3.0205 N.pl3     1 <0>        -0.8467
     32 N8         16.7821    0.5248   -1.0981 N.2       1 <0>        -0.8077
     33 N9          7.7854    1.6840    6.3892 N.pl3     1 <0>        -0.8328
     34 N10         8.1703   -2.3798    6.0203 N.pl3     1 <0>        -0.8322
     35 H1          4.9509   -0.6063    7.0181 H         1 <0>         0.1470
     36 H2          4.1916   -2.7671    3.4068 H         1 <0>         0.1175
     37 H3          2.0408   -1.5959    3.1636 H         1 <0>         0.1226
     38 H4          2.8005    0.5635    6.7649 H         1 <0>         0.1219
     39 H5          9.2676    1.8598    4.0608 H         1 <0>         0.0613
     40 H6         10.3318    1.4195    5.4179 H         1 <0>         0.0596
     41 H7         11.2692   -0.4445    4.0779 H         1 <0>         0.0686
     42 H8         10.2050   -0.0041    2.7208 H         1 <0>         0.0699
     43 H9         11.2689    2.2330    2.6124 H         1 <0>         0.0668
     44 H10        12.3332    1.7926    3.9695 H         1 <0>         0.0662
     45 H11        13.2706   -0.0714    2.6295 H         1 <0>         0.0673
     46 H12        12.2063    0.3690    1.2724 H         1 <0>         0.0677
     47 H13        13.2703    2.6062    1.1640 H         1 <0>         0.0694
     48 H14        14.3345    2.1658    2.5211 H         1 <0>         0.0692
     49 H15        15.2719    0.3018    1.1811 H         1 <0>         0.0689
     50 H16        14.2077    0.7422   -0.1760 H         1 <0>         0.0691
     51 H17        17.6835    5.3273   -2.5227 H         1 <0>         0.1276
     52 H18        18.0279    7.4088   -1.2585 H         1 <0>         0.1338
     53 H19        21.7442    5.9180    0.2191 H         1 <0>         0.1351
     54 H20        21.4130    3.8249   -1.0295 H         1 <0>         0.1331
     55 H21        17.2117    0.9601   -2.9808 H         1 <0>         0.4194
     56 H22        18.7645    1.0164   -3.6198 H         1 <0>         0.4218
     57 H23        17.5204    0.2472   -1.6626 H         1 <0>         0.3560
     58 H24         7.0917    1.9409    7.0166 H         1 <0>         0.4163
     59 H25         8.4542    2.3304    6.1142 H         1 <0>         0.4018
     60 H26         8.9320   -1.9177    6.4041 H         1 <0>         0.4075
     61 H27         8.2571   -3.3021    5.7328 H         1 <0>         0.3919
     62 H28         8.8407   -0.8626    4.6794 H         1 <0>         0.4090
     63 H29        15.6988    3.0243    0.5625 H         1 <0>         0.4039
     64 H30        17.7902    3.4918   -0.5689 H         1 <0>         0.4145
     65 H31         6.0143   -3.3522    5.0976 H         1 <0>         0.4039
@<TRIPOS>BOND
     1    1    6 ar
     2    1    2 ar
     3    1   35 1
     4    2    3 ar
     5    2    8 1
     6    3    4 ar
     7    3   36 1
     8    4    5 ar
     9    4   37 1
    10    5    6 ar
    11    5    7 1
    12    6   38 1
    13    8    9 1
    14    8   65 1
    15    9   10 1
    16    9   34 2
    17   10   11 2
    18   11   12 1
    19   11   33 1
    20   12   13 1
    21   12   62 1
    22   13   14 1
    23   13   39 1
    24   13   40 1
    25   14   15 1
    26   14   41 1
    27   14   42 1
    28   15   16 1
    29   15   43 1
    30   15   44 1
    31   16   17 1
    32   16   45 1
    33   16   46 1
    34   17   18 1
    35   17   47 1
    36   17   48 1
    37   18   19 1
    38   18   49 1
    39   18   50 1
    40   19   20 1
    41   19   63 1
    42   20   21 1
    43   20   32 2
    44   21   22 1
    45   21   64 1
    46   22   23 2
    47   22   31 1
    48   23   24 1
    49   24   29 ar
    50   24   25 ar
    51   25   26 ar
    52   25   51 1
    53   26   27 ar
    54   26   52 1
    55   27   28 ar
    56   27   30 1
    57   28   29 ar
    58   28   53 1
    59   29   54 1
    60   31   55 1
    61   31   56 1
    62   32   57 1
    63   33   58 1
    64   33   59 1
    65   34   60 1
    66   34   61 1
@<TRIPOS>MOLECULE
ZINC18098320
   64    65     0     0     0
SMALL
NO_CHARGES

@<TRIPOS>ATOM
      1 C1         -3.8238   -2.6937    8.4621 C.ar      1 <0>        -0.1247
      2 C2         -2.8193   -2.0374    7.7489 C.ar      1 <0>         0.1609
      3 C3         -1.7827   -2.7754    7.1747 C.ar      1 <0>        -0.1884
      4 C4         -1.7568   -4.1475    7.3151 C.ar      1 <0>        -0.0818
      5 C5         -2.7564   -4.7928    8.0234 C.ar      1 <0>        -0.0681
      6 C6         -3.7868   -4.0663    8.5955 C.ar      1 <0>        -0.0821
      7 Cl1        -2.7171   -6.5198    8.1952 Cl        1 <0>        -0.0758
      8 N1         -2.8508   -0.6742    7.6125 N.2       1 <0>        -0.6290
      9 C7         -1.8339    0.0491    8.0171 C.2       1 <0>         0.6722
     10 N2         -0.7402   -0.5603    8.5905 N.pl3     1 <0>        -0.6778
     11 C8          0.2736    0.2056    9.1273 C.2       1 <0>         0.6407
     12 N3          1.4295   -0.3947    9.5670 N.pl3     1 <0>        -0.7605
     13 C9          2.5062    0.4188   10.1372 C.3       1 <0>         0.1236
     14 C10         3.6695   -0.4878   10.5443 C.3       1 <0>        -0.1298
     15 C11         4.7940    0.3618   11.1398 C.3       1 <0>        -0.1160
     16 C12         5.9573   -0.5448   11.5469 C.3       1 <0>        -0.1146
     17 C13         7.0818    0.3048   12.1424 C.3       1 <0>        -0.1355
     18 C14         8.2451   -0.6018   12.5495 C.3       1 <0>         0.1458
     19 N4          9.3218    0.2117   13.1197 N.pl3     1 <0>        -0.7178
     20 C15        10.4777   -0.3885   13.5594 C.2       1 <0>         0.6282
     21 N5         11.4915    0.3774   14.0963 N.pl3     1 <0>        -0.7211
     22 C16        12.7747   -0.1193   14.1510 C.2       1 <0>         0.6582
     23 N6         13.7144    0.5577   14.7671 N.2       1 <0>        -0.6049
     24 C17        13.4516    1.8143   15.2461 C.ar      1 <0>         0.1451
     25 C18        13.0777    2.8344   14.3696 C.ar      1 <0>        -0.1664
     26 C19        12.8139    4.0974   14.8580 C.ar      1 <0>        -0.0857
     27 C20        12.9194    4.3541   16.2144 C.ar      1 <0>        -0.0599
     28 C21        13.2902    3.3466   17.0888 C.ar      1 <0>        -0.0858
     29 C22        13.5510    2.0782   16.6133 C.ar      1 <0>        -0.1211
     30 Cl2        12.5858    5.9460   16.8214 Cl        1 <0>        -0.0717
     31 N7         13.0705   -1.3226   13.5608 N.pl3     1 <0>        -0.8440
     32 N8         10.6156   -1.6806   13.4691 N.2       1 <0>        -0.8078
     33 N9          0.1357    1.4977    9.2177 N.2       1 <0>        -0.8110
     34 N10        -1.8600    1.4133    7.8690 N.pl3     1 <0>        -0.8128
     35 H1         -4.6259   -2.1278    8.9123 H         1 <0>         0.1340
     36 H2         -1.0029   -2.2733    6.6214 H         1 <0>         0.1260
     37 H3         -0.9554   -4.7196    6.8714 H         1 <0>         0.1311
     38 H4         -4.5634   -4.5753    9.1471 H         1 <0>         0.1338
     39 H5          2.8496    1.1391    9.3947 H         1 <0>         0.0677
     40 H6          2.1352    0.9497   11.0140 H         1 <0>         0.0675
     41 H7          3.3262   -1.2081   11.2869 H         1 <0>         0.0734
     42 H8          4.0405   -1.0186    9.6676 H         1 <0>         0.0734
     43 H9          5.1374    1.0821   10.3973 H         1 <0>         0.0677
     44 H10         4.4230    0.8927   12.0166 H         1 <0>         0.0678
     45 H11         5.6140   -1.2651   12.2895 H         1 <0>         0.0685
     46 H12         6.3283   -1.0756   10.6702 H         1 <0>         0.0684
     47 H13         7.4251    1.0252   11.3999 H         1 <0>         0.0696
     48 H14         6.7108    0.8357   13.0192 H         1 <0>         0.0698
     49 H15         7.9017   -1.3221   13.2921 H         1 <0>         0.0697
     50 H16         8.6161   -1.1326   11.6728 H         1 <0>         0.0697
     51 H17        12.9955    2.6355   13.3113 H         1 <0>         0.1269
     52 H18        12.5249    4.8875   14.1808 H         1 <0>         0.1334
     53 H19        13.3710    3.5531   18.1458 H         1 <0>         0.1355
     54 H20        13.8355    1.2919   17.2969 H         1 <0>         0.1341
     55 H21        12.4569   -1.7112   12.9178 H         1 <0>         0.4193
     56 H22        13.8930   -1.7844   13.7868 H         1 <0>         0.4217
     57 H23        11.3983   -2.1123   13.8458 H         1 <0>         0.3552
     58 H24         0.8486    2.0363    9.5952 H         1 <0>         0.3547
     59 H25        -2.6225    1.8410    7.4486 H         1 <0>         0.4065
     60 H26        -1.1161    1.9498    8.1846 H         1 <0>         0.4283
     61 H27         1.5322   -1.3569    9.4997 H         1 <0>         0.3986
     62 H28         9.2191    1.1739   13.1870 H         1 <0>         0.4045
     63 H29        11.3005    1.2659   14.4354 H         1 <0>         0.4159
     64 H30        -0.6827   -1.5283    8.6168 H         1 <0>         0.4269
@<TRIPOS>BOND
     1    1    6 ar
     2    1    2 ar
     3    1   35 1
     4    2    3 ar
     5    2    8 1
     6    3    4 ar
     7    3   36 1
     8    4    5 ar
     9    4   37 1
    10    5    6 ar
    11    5    7 1
    12    6   38 1
    13    8    9 2
    14    9   10 1
    15    9   34 1
    16   10   11 1
    17   10   64 1
    18   11   12 1
    19   11   33 2
    20   12   13 1
    21   12   61 1
    22   13   14 1
    23   13   39 1
    24   13   40 1
    25   14   15 1
    26   14   41 1
    27   14   42 1
    28   15   16 1
    29   15   43 1
    30   15   44 1
    31   16   17 1
    32   16   45 1
    33   16   46 1
    34   17   18 1
    35   17   47 1
    36   17   48 1
    37   18   19 1
    38   18   49 1
    39   18   50 1
    40   19   20 1
    41   19   62 1
    42   20   21 1
    43   20   32 2
    44   21   22 1
    45   21   63 1
    46   22   23 2
    47   22   31 1
    48   23   24 1
    49   24   29 ar
    50   24   25 ar
    51   25   26 ar
    52   25   51 1
    53   26   27 ar
    54   26   52 1
    55   27   28 ar
    56   27   30 1
    57   28   29 ar
    58   28   53 1
    59   29   54 1
    60   31   55 1
    61   31   56 1
    62   32   57 1
    63   33   58 1
    64   34   59 1
    65   34   60 1
@<TRIPOS>MOLECULE
ZINC18098320
   64    65     0     0     0
SMALL
NO_CHARGES

@<TRIPOS>ATOM
      1 C1          0.1581   -5.4400    6.8734 C.ar      1 <0>        -0.1209
      2 C2          1.0725   -4.7501    6.0756 C.ar      1 <0>         0.1511
      3 C3          2.4257   -5.0898    6.1215 C.ar      1 <0>        -0.1733
      4 C4          2.8514   -6.1042    6.9540 C.ar      1 <0>        -0.0833
      5 C5          1.9395   -6.7851    7.7425 C.ar      1 <0>        -0.0614
      6 C6          0.5961   -6.4525    7.7018 C.ar      1 <0>        -0.0839
      7 Cl1         2.4828   -8.0608    8.7871 Cl        1 <0>        -0.0720
      8 N1          0.6435   -3.7437    5.2504 N.2       1 <0>        -0.6016
      9 C7          1.1019   -2.5249    5.4093 C.2       1 <0>         0.6570
     10 N2          1.9296   -2.2335    6.4705 N.pl3     1 <0>        -0.7300
     11 C8          1.9971   -0.9453    6.9591 C.2       1 <0>         0.6247
     12 N3          3.0723   -0.5548    7.7216 N.pl3     1 <0>        -0.7194
     13 C9          3.1439    0.8134    8.2405 C.3       1 <0>         0.1469
     14 C10         4.4308    0.9850    9.0500 C.3       1 <0>        -0.1354
     15 C11         4.5057    2.4139    9.5920 C.3       1 <0>        -0.1145
     16 C12         5.7926    2.5855   10.4015 C.3       1 <0>        -0.1144
     17 C13         5.8674    4.0144   10.9434 C.3       1 <0>        -0.1355
     18 C14         7.1543    4.1861   11.7530 C.3       1 <0>         0.1462
     19 N4          7.2260    5.5542   12.2719 N.pl3     1 <0>        -0.7188
     20 C15         8.3011    5.9447   13.0344 C.2       1 <0>         0.6239
     21 N5          8.3686    7.2329   13.5230 N.pl3     1 <0>        -0.7225
     22 C16         9.5871    7.7783   13.8605 C.2       1 <0>         0.6585
     23 N6          9.6416    8.9536   14.4408 N.2       1 <0>        -0.6015
     24 C17         8.4997    9.6954   14.5946 C.ar      1 <0>         0.1443
     25 C18         7.7627   10.0873   13.4757 C.ar      1 <0>        -0.1670
     26 C19         6.6137   10.8336   13.6371 C.ar      1 <0>        -0.0855
     27 C20         6.1912   11.1939   14.9054 C.ar      1 <0>        -0.0597
     28 C21         6.9181   10.8085   16.0190 C.ar      1 <0>        -0.0858
     29 C22         8.0656   10.0572   15.8710 C.ar      1 <0>        -0.1203
     30 Cl2         4.7442   12.1331   15.1002 Cl        1 <0>        -0.0716
     31 N7         10.7446    7.0923   13.5899 N.pl3     1 <0>        -0.8454
     32 N8          9.2561    5.0983   13.2955 N.2       1 <0>        -0.8013
     33 N9          1.0421   -0.0988    6.6980 N.2       1 <0>        -0.7974
     34 N10         0.7564   -1.5402    4.5179 N.pl3     1 <0>        -0.8346
     35 H1         -0.8895   -5.1787    6.8456 H         1 <0>         0.1335
     36 H2          3.1379   -4.5599    5.5063 H         1 <0>         0.1268
     37 H3          3.8980   -6.3680    6.9904 H         1 <0>         0.1336
     38 H4         -0.1104   -6.9870    8.3195 H         1 <0>         0.1353
     39 H5          3.1411    1.5180    7.4089 H         1 <0>         0.0687
     40 H6          2.2833    1.0044    8.8815 H         1 <0>         0.0685
     41 H7          4.4337    0.2804    9.8817 H         1 <0>         0.0696
     42 H8          5.2915    0.7940    8.4090 H         1 <0>         0.0693
     43 H9          4.5028    3.1185    8.7604 H         1 <0>         0.0673
     44 H10         3.6450    2.6049   10.2330 H         1 <0>         0.0674
     45 H11         5.7954    1.8809   11.2331 H         1 <0>         0.0675
     46 H12         6.6532    2.3945    9.7605 H         1 <0>         0.0673
     47 H13         5.8646    4.7190   10.1118 H         1 <0>         0.0694
     48 H14         5.0067    4.2054   11.5844 H         1 <0>         0.0696
     49 H15         7.1571    3.4814   12.5846 H         1 <0>         0.0689
     50 H16         8.0150    3.9950   11.1120 H         1 <0>         0.0689
     51 H17         8.0914    9.8072   12.4858 H         1 <0>         0.1271
     52 H18         6.0428   11.1378   12.7722 H         1 <0>         0.1336
     53 H19         6.5836   11.0929   17.0057 H         1 <0>         0.1355
     54 H20         8.6292    9.7531   16.7407 H         1 <0>         0.1342
     55 H21        10.7573    6.4187   12.8921 H         1 <0>         0.4180
     56 H22        11.5500    7.2811   14.0965 H         1 <0>         0.4224
     57 H23         9.9790    5.3512   13.8907 H         1 <0>         0.3547
     58 H24         0.2342   -0.4009    6.2542 H         1 <0>         0.3504
     59 H25         0.0464   -1.6949    3.8754 H         1 <0>         0.4238
     60 H26         1.2224   -0.6895    4.5303 H         1 <0>         0.4159
     61 H27         3.7834   -1.1851    7.9160 H         1 <0>         0.4037
     62 H28         6.5148    6.1845   12.0774 H         1 <0>         0.4041
     63 H29         7.5577    7.7546   13.6288 H         1 <0>         0.4153
     64 H30         2.4653   -2.9340    6.8744 H         1 <0>         0.4144
@<TRIPOS>BOND
     1    1    6 ar
     2    1    2 ar
     3    1   35 1
     4    2    3 ar
     5    2    8 1
     6    3    4 ar
     7    3   36 1
     8    4    5 ar
     9    4   37 1
    10    5    6 ar
    11    5    7 1
    12    6   38 1
    13    8    9 2
    14    9   10 1
    15    9   34 1
    16   10   11 1
    17   10   64 1
    18   11   12 1
    19   11   33 2
    20   12   13 1
    21   12   61 1
    22   13   14 1
    23   13   39 1
    24   13   40 1
    25   14   15 1
    26   14   41 1
    27   14   42 1
    28   15   16 1
    29   15   43 1
    30   15   44 1
    31   16   17 1
    32   16   45 1
    33   16   46 1
    34   17   18 1
    35   17   47 1
    36   17   48 1
    37   18   19 1
    38   18   49 1
    39   18   50 1
    40   19   20 1
    41   19   62 1
    42   20   21 1
    43   20   32 2
    44   21   22 1
    45   21   63 1
    46   22   23 2
    47   22   31 1
    48   23   24 1
    49   24   29 ar
    50   24   25 ar
    51   25   26 ar
    52   25   51 1
    53   26   27 ar
    54   26   52 1
    55   27   28 ar
    56   27   30 1
    57   28   29 ar
    58   28   53 1
    59   29   54 1
    60   31   55 1
    61   31   56 1
    62   32   57 1
    63   33   58 1
    64   34   59 1
    65   34   60 1
@<TRIPOS>MOLECULE
ZINC18098320
   64    65     0     0     0
SMALL
NO_CHARGES

@<TRIPOS>ATOM
      1 C1         -4.1874    4.0316    5.2060 C.ar      1 <0>        -0.1185
      2 C2         -3.2861    4.5782    4.2909 C.ar      1 <0>         0.1414
      3 C3         -2.8194    3.8004    3.2299 C.ar      1 <0>        -0.1677
      4 C4         -3.2509    2.4973    3.0917 C.ar      1 <0>        -0.0834
      5 C5         -4.1449    1.9608    4.0026 C.ar      1 <0>        -0.0598
      6 C6         -4.6114    2.7273    5.0571 C.ar      1 <0>        -0.0860
      7 Cl1        -4.6832    0.3203    3.8219 Cl        1 <0>        -0.0732
      8 N1         -2.8615    5.8733    4.4333 N.2       1 <0>        -0.6007
      9 C7         -1.5811    6.1351    4.5472 C.2       1 <0>         0.6520
     10 N2         -0.6660    5.1061    4.5555 N.pl3     1 <0>        -0.6706
     11 C8          0.6850    5.3845    4.5612 C.2       1 <0>         0.5951
     12 N3          1.5489    4.4168    4.6784 N.2       1 <0>        -0.5867
     13 C9          2.9774    4.7202    4.7944 C.3       1 <0>         0.0649
     14 C10         3.4848    4.2699    6.1657 C.3       1 <0>        -0.1130
     15 C11         4.9767    4.5868    6.2868 C.3       1 <0>        -0.1167
     16 C12         5.4841    4.1365    7.6582 C.3       1 <0>        -0.1144
     17 C13         6.9760    4.4534    7.7792 C.3       1 <0>        -0.1343
     18 C14         7.4834    4.0031    9.1506 C.3       1 <0>         0.1470
     19 N4          8.9119    4.3065    9.2665 N.pl3     1 <0>        -0.7201
     20 C15         9.5905    3.9901   10.4195 C.2       1 <0>         0.6216
     21 N5         10.9356    4.2758   10.5286 N.pl3     1 <0>        -0.7312
     22 C16        11.7060    3.6168   11.4605 C.2       1 <0>         0.6569
     23 N6         12.7866    4.1863   11.9391 N.2       1 <0>        -0.5985
     24 C17        13.2214    5.3770   11.4186 C.ar      1 <0>         0.1526
     25 C18        13.4946    5.4873   10.0541 C.ar      1 <0>        -0.1772
     26 C19        13.9316    6.6889    9.5360 C.ar      1 <0>        -0.0823
     27 C20        14.0993    7.7840   10.3664 C.ar      1 <0>        -0.0621
     28 C21        13.8305    7.6808   11.7207 C.ar      1 <0>        -0.0830
     29 C22        13.3874    6.4862   12.2498 C.ar      1 <0>        -0.1200
     30 Cl2        14.6496    9.2926    9.7069 Cl        1 <0>        -0.0721
     31 N7         11.3434    2.3643   11.8886 N.pl3     1 <0>        -0.8363
     32 N8          8.9633    3.4205   11.4088 N.2       1 <0>        -0.7924
     33 N9          1.1196    6.6834    4.4431 N.pl3     1 <0>        -0.9166
     34 N10        -1.1535    7.4345    4.6582 N.pl3     1 <0>        -0.8427
     35 H1         -4.5486    4.6270    6.0315 H         1 <0>         0.1342
     36 H2         -2.1223    4.2179    2.5185 H         1 <0>         0.1268
     37 H3         -2.8908    1.8946    2.2710 H         1 <0>         0.1326
     38 H4         -5.3084    2.3031    5.7646 H         1 <0>         0.1352
     39 H5          3.5253    4.1933    4.0132 H         1 <0>         0.0779
     40 H6          3.1309    5.7938    4.6847 H         1 <0>         0.0473
     41 H7          2.9369    4.7969    6.9469 H         1 <0>         0.0579
     42 H8          3.3313    3.1964    6.2754 H         1 <0>         0.0713
     43 H9          5.5246    4.0598    5.5057 H         1 <0>         0.0644
     44 H10         5.1302    5.6604    6.1772 H         1 <0>         0.0613
     45 H11         4.9362    4.6635    8.4393 H         1 <0>         0.0659
     46 H12         5.3306    3.0630    7.7678 H         1 <0>         0.0679
     47 H13         7.5240    3.9264    6.9981 H         1 <0>         0.0687
     48 H14         7.1295    5.5270    7.6696 H         1 <0>         0.0680
     49 H15         6.9355    4.5301    9.9317 H         1 <0>         0.0679
     50 H16         7.3299    2.9296    9.2602 H         1 <0>         0.0689
     51 H17        13.3644    4.6337    9.4054 H         1 <0>         0.1265
     52 H18        14.1436    6.7754    8.4806 H         1 <0>         0.1336
     53 H19        13.9636    8.5384   12.3634 H         1 <0>         0.1355
     54 H20        13.1735    6.4083   13.3055 H         1 <0>         0.1342
     55 H21        10.7109    1.8398   11.3731 H         1 <0>         0.4157
     56 H22        11.7197    2.0035   12.7066 H         1 <0>         0.4239
     57 H23         9.4312    3.2374   12.2385 H         1 <0>         0.3500
     58 H24         1.6656    7.0775    5.1413 H         1 <0>         0.4077
     59 H25         0.8802    7.2057    3.6616 H         1 <0>         0.4067
     60 H26        -1.6929    8.1551    4.2966 H         1 <0>         0.4146
     61 H27        -0.3120    7.6323    5.0982 H         1 <0>         0.4126
     62 H28         9.3790    4.7308    8.5298 H         1 <0>         0.4033
     63 H29        11.3387    4.9409    9.9489 H         1 <0>         0.4143
     64 H30        -0.9715    4.1854    4.5574 H         1 <0>         0.4332
@<TRIPOS>BOND
     1    1    6 ar
     2    1    2 ar
     3    1   35 1
     4    2    3 ar
     5    2    8 1
     6    3    4 ar
     7    3   36 1
     8    4    5 ar
     9    4   37 1
    10    5    6 ar
    11    5    7 1
    12    6   38 1
    13    8    9 2
    14    9   10 1
    15    9   34 1
    16   10   11 1
    17   10   64 1
    18   11   12 2
    19   11   33 1
    20   12   13 1
    21   13   14 1
    22   13   39 1
    23   13   40 1
    24   14   15 1
    25   14   41 1
    26   14   42 1
    27   15   16 1
    28   15   43 1
    29   15   44 1
    30   16   17 1
    31   16   45 1
    32   16   46 1
    33   17   18 1
    34   17   47 1
    35   17   48 1
    36   18   19 1
    37   18   49 1
    38   18   50 1
    39   19   20 1
    40   19   62 1
    41   20   21 1
    42   20   32 2
    43   21   22 1
    44   21   63 1
    45   22   23 2
    46   22   31 1
    47   23   24 1
    48   24   29 ar
    49   24   25 ar
    50   25   26 ar
    51   25   51 1
    52   26   27 ar
    53   26   52 1
    54   27   28 ar
    55   27   30 1
    56   28   29 ar
    57   28   53 1
    58   29   54 1
    59   31   55 1
    60   31   56 1
    61   32   57 1
    62   33   58 1
    63   33   59 1
    64   34   60 1
    65   34   61 1
@<TRIPOS>MOLECULE
ZINC18098320
   64    65     0     0     0
SMALL
NO_CHARGES

@<TRIPOS>ATOM
      1 C1         11.6789   -9.2555   -7.8268 C.ar      1 <0>        -0.1360
      2 C2         12.8676   -9.0028   -7.1378 C.ar      1 <0>         0.1703
      3 C3         13.7925  -10.0331   -6.9519 C.ar      1 <0>        -0.1387
      4 C4         13.5270  -11.2920   -7.4490 C.ar      1 <0>        -0.0907
      5 C5         12.3468  -11.5357   -8.1311 C.ar      1 <0>        -0.0693
      6 C6         11.4258  -10.5189   -8.3188 C.ar      1 <0>        -0.0910
      7 Cl1        12.0205  -13.1231   -8.7535 Cl        1 <0>        -0.0839
      8 N1         13.1250   -7.7520   -6.6478 N.2       1 <0>        -0.6421
      9 C7         13.4362   -7.5931   -5.3753 C.2       1 <0>         0.6343
     10 N2         13.3837   -8.6414   -4.5340 N.2       1 <0>        -0.6933
     11 C8         12.2174   -9.0756   -4.0919 C.2       1 <0>         0.6987
     12 N3         11.0593   -8.5299   -4.5701 N.pl3     1 <0>        -0.7471
     13 C9          9.7686   -8.9564   -4.0240 C.3       1 <0>         0.1066
     14 C10         8.6385   -8.2488   -4.7744 C.3       1 <0>        -0.1304
     15 C11         7.2979   -8.5987   -4.1253 C.3       1 <0>        -0.1143
     16 C12         6.1594   -7.9896   -4.9461 C.3       1 <0>        -0.1153
     17 C13         4.8281   -8.2368   -4.2337 C.3       1 <0>        -0.1340
     18 C14         3.6896   -7.6277   -5.0545 C.3       1 <0>         0.1500
     19 N4          2.4149   -7.8644   -4.3724 N.pl3     1 <0>        -0.7242
     20 C15         1.2435   -7.4048   -4.9258 C.2       1 <0>         0.6291
     21 N5          0.0433   -7.6277   -4.2835 N.pl3     1 <0>        -0.7363
     22 C16        -1.1406   -7.2863   -4.8986 C.2       1 <0>         0.6482
     23 N6         -2.1778   -8.0850   -4.8140 N.2       1 <0>        -0.5280
     24 C17        -2.0724   -9.2765   -4.1455 C.ar      1 <0>         0.1127
     25 C18        -1.0928  -10.2013   -4.5116 C.ar      1 <0>        -0.1365
     26 C19        -0.9914  -11.3989   -3.8343 C.ar      1 <0>        -0.0919
     27 C20        -1.8586  -11.6844   -2.7935 C.ar      1 <0>        -0.0496
     28 C21        -2.8325  -10.7715   -2.4259 C.ar      1 <0>        -0.0922
     29 C22        -2.9403   -9.5680   -3.0917 C.ar      1 <0>        -0.1073
     30 Cl2        -1.7247  -13.1936   -1.9461 Cl        1 <0>        -0.0688
     31 N7         -1.2353   -6.1104   -5.5999 N.pl3     1 <0>        -0.8741
     32 N8          1.2669   -6.7587   -6.0566 N.2       1 <0>        -0.8057
     33 N9         12.1687  -10.0705   -3.1563 N.pl3     1 <0>        -0.8270
     34 N10        13.8153   -6.3526   -4.9080 N.pl3     1 <0>        -0.8349
     35 H1         10.9578   -8.4644   -7.9700 H         1 <0>         0.1238
     36 H2         14.7135   -9.8443   -6.4205 H         1 <0>         0.1262
     37 H3         14.2414  -12.0894   -7.3063 H         1 <0>         0.1252
     38 H4         10.5072  -10.7156   -8.8517 H         1 <0>         0.1271
     39 H5          9.6629  -10.0349   -4.1411 H         1 <0>         0.0688
     40 H6          9.7189   -8.6992   -2.9659 H         1 <0>         0.0678
     41 H7          8.7927   -7.1706   -4.7309 H         1 <0>         0.0712
     42 H8          8.6341   -8.5735   -5.8149 H         1 <0>         0.0744
     43 H9          7.1823   -9.6820   -4.0916 H         1 <0>         0.0672
     44 H10         7.2695   -8.1986   -3.1118 H         1 <0>         0.0663
     45 H11         6.3212   -6.9168   -5.0517 H         1 <0>         0.0677
     46 H12         6.1349   -8.4522   -5.9327 H         1 <0>         0.0686
     47 H13         4.6663   -9.3095   -4.1281 H         1 <0>         0.0685
     48 H14         4.8526   -7.7742   -3.2471 H         1 <0>         0.0680
     49 H15         3.8515   -6.5550   -5.1601 H         1 <0>         0.0665
     50 H16         3.6652   -8.0903   -6.0411 H         1 <0>         0.0663
     51 H17        -0.4161   -9.9798   -5.3235 H         1 <0>         0.1270
     52 H18        -0.2343  -12.1153   -4.1168 H         1 <0>         0.1339
     53 H19        -3.5063  -11.0001   -1.6134 H         1 <0>         0.1377
     54 H20        -3.6973   -8.8547   -2.8010 H         1 <0>         0.1365
     55 H21        -1.1570   -5.2617   -5.1368 H         1 <0>         0.4144
     56 H22        -1.3806   -6.1280   -6.5588 H         1 <0>         0.4157
     57 H23         0.4605   -6.3349   -6.3897 H         1 <0>         0.3511
     58 H24        12.9907  -10.4578   -2.8169 H         1 <0>         0.4238
     59 H25        11.3121  -10.3893   -2.8316 H         1 <0>         0.4101
     60 H26        13.8531   -5.5966   -5.5146 H         1 <0>         0.4092
     61 H27        14.0441   -6.2357   -3.9727 H         1 <0>         0.4071
     62 H28        11.0920   -7.8603   -5.2711 H         1 <0>         0.4174
     63 H29         2.3975   -8.3455   -3.5303 H         1 <0>         0.4011
     64 H30         0.0331   -8.0249   -3.3986 H         1 <0>         0.4043
@<TRIPOS>BOND
     1    1    6 ar
     2    1    2 ar
     3    1   35 1
     4    2    3 ar
     5    2    8 1
     6    3    4 ar
     7    3   36 1
     8    4    5 ar
     9    4   37 1
    10    5    6 ar
    11    5    7 1
    12    6   38 1
    13    8    9 2
    14    9   10 1
    15    9   34 1
    16   10   11 2
    17   11   12 1
    18   11   33 1
    19   12   13 1
    20   12   62 1
    21   13   14 1
    22   13   39 1
    23   13   40 1
    24   14   15 1
    25   14   41 1
    26   14   42 1
    27   15   16 1
    28   15   43 1
    29   15   44 1
    30   16   17 1
    31   16   45 1
    32   16   46 1
    33   17   18 1
    34   17   47 1
    35   17   48 1
    36   18   19 1
    37   18   49 1
    38   18   50 1
    39   19   20 1
    40   19   63 1
    41   20   21 1
    42   20   32 2
    43   21   22 1
    44   21   64 1
    45   22   23 2
    46   22   31 1
    47   23   24 1
    48   24   29 ar
    49   24   25 ar
    50   25   26 ar
    51   25   51 1
    52   26   27 ar
    53   26   52 1
    54   27   28 ar
    55   27   30 1
    56   28   29 ar
    57   28   53 1
    58   29   54 1
    59   31   55 1
    60   31   56 1
    61   32   57 1
    62   33   58 1
    63   33   59 1
    64   34   60 1
    65   34   61 1
@<TRIPOS>MOLECULE
ZINC18098320
   66    67     0     0     0
SMALL
USER_CHARGES

@<TRIPOS>ATOM
      1 C1          1.2773    0.6066    1.2415 C.ar      1 <0>        -0.1354
      2 C2          1.7346    1.5098    0.3021 C.ar      1 <0>        -0.0782
      3 C3          2.6926    2.4460    0.6495 C.ar      1 <0>        -0.0207
      4 C4          3.1950    2.4799    1.9385 C.ar      1 <0>        -0.0772
      5 C5          2.7411    1.5790    2.8818 C.ar      1 <0>        -0.0926
      6 C6          1.7794    0.6387    2.5359 C.ar      1 <0>         0.0865
      7 N1          1.3175   -0.2749    3.4898 N.pl3     1 <0>        -0.6027
      8 C7          0.9792   -1.5460    3.1122 C.cat     1 <0>         0.7488
      9 N2          0.4118   -2.3629    3.9793 N.pl3     1 <0>        -0.6335
     10 C8          0.2102   -3.6560    3.6551 C.2       1 <0>         0.6032
     11 N3         -0.7999   -4.3714    4.2660 N.pl3     1 <0>        -0.7006
     12 C9         -1.0189   -5.7764    3.9138 C.3       1 <0>         0.1385
     13 C10        -2.1896   -6.3300    4.7286 C.3       1 <0>        -0.1369
     14 C11        -2.4183   -7.7974    4.3607 C.3       1 <0>        -0.1167
     15 C12        -3.5890   -8.3510    5.1756 C.3       1 <0>        -0.1154
     16 C13        -3.8177   -9.8184    4.8077 C.3       1 <0>        -0.1411
     17 C14        -4.9884  -10.3719    5.6226 C.3       1 <0>         0.1072
     18 N4         -5.2074  -11.7770    5.2703 N.pl3     1 <0>        -0.6312
     19 C15        -6.1661  -12.4559    5.8502 C.cat     1 <0>         0.7155
     20 N5         -6.3725  -13.7798    5.5182 N.pl3     1 <0>        -0.8497
     21 N6         -6.9512  -11.8615    6.7712 N.2       1 <0>        -0.6443
     22 C16        -7.2770  -12.5062    7.8754 C.2       1 <0>         0.7258
     23 N7         -8.1229  -11.9278    8.7805 N.pl3     1 <0>        -0.7872
     24 N8         -6.7683  -13.7538    8.1147 N.pl3     1 <0>        -0.6841
     25 C17        -7.3992  -14.6028    9.0308 C.ar      1 <0>         0.1105
     26 C18        -8.7770  -14.5474    9.1957 C.ar      1 <0>        -0.1398
     27 C19        -9.3972  -15.3865   10.1006 C.ar      1 <0>        -0.0761
     28 C20        -8.6470  -16.2818   10.8425 C.ar      1 <0>        -0.0343
     29 C21        -7.2739  -16.3390   10.6801 C.ar      1 <0>        -0.0767
     30 C22        -6.6493  -15.5062    9.7725 C.ar      1 <0>        -0.1144
     31 Cl1        -9.4296  -17.3346   11.9795 Cl        1 <0>        -0.0380
     32 N9          0.9730   -4.2336    2.7602 N.2       1 <0>        -0.7515
     33 N10         1.2290   -1.9695    1.8365 N.pl3     1 <0>        -0.8107
     34 Cl2         3.2657    3.5795   -0.5339 Cl        1 <0>        -0.0274
     35 H1          0.5266   -0.1212    0.9709 H         1 <0>         0.1449
     36 H2          1.3444    1.4852   -0.7047 H         1 <0>         0.1554
     37 H3          3.9429    3.2113    2.2070 H         1 <0>         0.1573
     38 H4          3.1340    1.6054    3.8875 H         1 <0>         0.1516
     39 H5         -1.2478   -5.8531    2.8508 H         1 <0>         0.0792
     40 H6         -0.1191   -6.3508    4.1341 H         1 <0>         0.0796
     41 H7         -1.9608   -6.2534    5.7916 H         1 <0>         0.0740
     42 H8         -3.0894   -5.7557    4.5083 H         1 <0>         0.0742
     43 H9         -2.6472   -7.8740    3.2978 H         1 <0>         0.0720
     44 H10        -1.5185   -8.3717    4.5810 H         1 <0>         0.0716
     45 H11        -3.3602   -8.2743    6.2386 H         1 <0>         0.0715
     46 H12        -4.4888   -7.7766    4.9553 H         1 <0>         0.0730
     47 H13        -4.0466   -9.8950    3.7447 H         1 <0>         0.0804
     48 H14        -2.9179  -10.3927    5.0280 H         1 <0>         0.0788
     49 H15        -4.7596  -10.2953    6.6855 H         1 <0>         0.0948
     50 H16        -5.8882   -9.7976    5.4023 H         1 <0>         0.1026
     51 H17        -5.7425  -14.2389    4.9410 H         1 <0>         0.4237
     52 H18        -7.1475  -14.2509    5.8622 H         1 <0>         0.4333
     53 H19        -8.6435  -11.1489    8.5289 H         1 <0>         0.4389
     54 H20        -8.2025  -12.2962    9.6743 H         1 <0>         0.4318
     55 H21        -5.9703  -14.0496    7.6492 H         1 <0>         0.4273
     56 H22        -9.3630  -13.8486    8.6171 H         1 <0>         0.1414
     57 H23       -10.4686  -15.3436   10.2295 H         1 <0>         0.1502
     58 H24        -6.6907  -17.0387   11.2604 H         1 <0>         0.1502
     59 H25        -5.5782  -15.5544    9.6428 H         1 <0>         0.1418
     60 H26         1.6822   -3.7306    2.3300 H         1 <0>         0.3592
     61 H27         1.9245   -1.5434    1.3114 H         1 <0>         0.4456
     62 H28         0.7108   -2.6960    1.4564 H         1 <0>         0.4454
     63 H29        -1.3647   -3.9438    4.9287 H         1 <0>         0.4137
     64 H30        -4.6426  -12.2046    4.6077 H         1 <0>         0.4293
     65 H31         0.1398   -2.0331    4.8500 H         1 <0>         0.4405
     66 H32         1.2371   -0.0073    4.4187 H         1 <0>         0.4470
@<TRIPOS>BOND
     1    1    6 ar
     2    1    2 ar
     3    1   35 1
     4    2    3 ar
     5    2   36 1
     6    3    4 ar
     7    3   34 1
     8    4    5 ar
     9    4   37 1
    10    5    6 ar
    11    5   38 1
    12    6    7 1
    13    7    8 1
    14    7   66 1
    15    8    9 2
    16    8   33 1
    17    9   10 1
    18    9   65 1
    19   10   11 1
    20   10   32 2
    21   11   12 1
    22   11   63 1
    23   12   13 1
    24   12   39 1
    25   12   40 1
    26   13   14 1
    27   13   41 1
    28   13   42 1
    29   14   15 1
    30   14   43 1
    31   14   44 1
    32   15   16 1
    33   15   45 1
    34   15   46 1
    35   16   17 1
    36   16   47 1
    37   16   48 1
    38   17   18 1
    39   17   49 1
    40   17   50 1
    41   18   19 2
    42   18   64 1
    43   19   20 1
    44   19   21 1
    45   20   51 1
    46   20   52 1
    47   21   22 2
    48   22   23 1
    49   22   24 1
    50   23   53 1
    51   23   54 1
    52   24   25 1
    53   24   55 1
    54   25   30 ar
    55   25   26 ar
    56   26   27 ar
    57   26   56 1
    58   27   28 ar
    59   27   57 1
    60   28   29 ar
    61   28   31 1
    62   29   30 ar
    63   29   58 1
    64   30   59 1
    65   32   60 1
    66   33   61 1
    67   33   62 1
@<TRIPOS>MOLECULE
ZINC18098320
   65    66     0     0     0
SMALL
USER_CHARGES

@<TRIPOS>ATOM
      1 C1          2.0265    6.9575    3.8328 C.ar      1 <0>        -0.0867
      2 C2          2.2180    5.6449    3.4213 C.ar      1 <0>         0.1132
      3 C3          1.2065    4.9782    2.7422 C.ar      1 <0>        -0.1090
      4 C4          0.0134    5.6216    2.4779 C.ar      1 <0>        -0.0911
      5 C5         -0.1746    6.9296    2.8887 C.ar      1 <0>        -0.0285
      6 C6          0.8314    7.5962    3.5659 C.ar      1 <0>        -0.0943
      7 Cl1        -1.6754    7.7356    2.5543 Cl        1 <0>        -0.0471
      8 N1          3.4277    4.9957    3.6900 N.pl3     1 <0>        -0.6116
      9 C7          4.6124    5.7063    3.6697 C.cat     1 <0>         0.7238
     10 N2          4.6076    7.0160    3.3488 N.2       1 <0>        -0.6506
     11 C8          5.5450    7.5052    2.5594 C.2       1 <0>         0.7194
     12 N3          6.4653    6.6691    1.9916 N.pl3     1 <0>        -0.7431
     13 C9          7.5423    7.2188    1.1645 C.3       1 <0>         0.0885
     14 C10         8.4264    6.0788    0.6548 C.3       1 <0>        -0.1329
     15 C11         9.5512    6.6529   -0.2090 C.3       1 <0>        -0.1173
     16 C12        10.4354    5.5130   -0.7186 C.3       1 <0>        -0.1150
     17 C13        11.5601    6.0870   -1.5824 C.3       1 <0>        -0.1310
     18 C14        12.4443    4.9471   -2.0921 C.3       1 <0>         0.1425
     19 N4         13.5213    5.4967   -2.9192 N.pl3     1 <0>        -0.7041
     20 C15        14.4469    4.6559   -3.4902 C.2       1 <0>         0.6419
     21 N5         15.5357    5.1791   -4.1562 N.pl3     1 <0>        -0.6786
     22 C16        15.7737    6.5351   -4.1279 C.2       1 <0>         0.6539
     23 N6         15.0377    7.3146   -3.3718 N.2       1 <0>        -0.6205
     24 C17        15.3286    8.6503   -3.2769 C.ar      1 <0>         0.1417
     25 C18        16.5995    9.0639   -2.8739 C.ar      1 <0>        -0.1490
     26 C19        16.8864   10.4100   -2.7808 C.ar      1 <0>        -0.0888
     27 C20        15.9168   11.3501   -3.0860 C.ar      1 <0>        -0.0558
     28 C21        14.6543   10.9462   -3.4858 C.ar      1 <0>        -0.0901
     29 C22        14.3569    9.6030   -3.5883 C.ar      1 <0>        -0.1203
     30 Cl2        16.2856   13.0423   -2.9663 Cl        1 <0>        -0.0694
     31 N7         16.7808    7.0711   -4.8907 N.pl3     1 <0>        -0.8762
     32 N8         14.2957    3.3651   -3.4024 N.2       1 <0>        -0.8026
     33 N9          5.5956    8.8481    2.3094 N.pl3     1 <0>        -0.7858
     34 N10         5.7404    5.1077    3.9623 N.pl3     1 <0>        -0.8044
     35 H1          2.8098    7.4768    4.3650 H         1 <0>         0.1568
     36 H2          1.3529    3.9576    2.4208 H         1 <0>         0.1413
     37 H3         -0.7735    5.1035    1.9499 H         1 <0>         0.1474
     38 H4          0.6819    8.6168    3.8860 H         1 <0>         0.1456
     39 H5          7.1129    7.7525    0.3166 H         1 <0>         0.0859
     40 H6          8.1431    7.9061    1.7600 H         1 <0>         0.0894
     41 H7          8.8558    5.5451    1.5027 H         1 <0>         0.0760
     42 H8          7.8256    5.3915    0.0593 H         1 <0>         0.0766
     43 H9          9.1219    7.1866   -1.0569 H         1 <0>         0.0709
     44 H10        10.1520    7.3403    0.3866 H         1 <0>         0.0713
     45 H11        10.8647    4.9792    0.1293 H         1 <0>         0.0674
     46 H12         9.8346    4.8256   -1.3142 H         1 <0>         0.0676
     47 H13        11.1308    6.6207   -2.4303 H         1 <0>         0.0672
     48 H14        12.1609    6.7744   -0.9869 H         1 <0>         0.0700
     49 H15        12.8736    4.4133   -1.2442 H         1 <0>         0.0589
     50 H16        11.8435    4.2597   -2.6876 H         1 <0>         0.0619
     51 H17        17.3565    8.3315   -2.6352 H         1 <0>         0.1277
     52 H18        17.8692   10.7313   -2.4688 H         1 <0>         0.1330
     53 H19        13.9021   11.6843   -3.7222 H         1 <0>         0.1345
     54 H20        13.3732    9.2892   -3.9049 H         1 <0>         0.1317
     55 H21        16.7535    8.0078   -5.1412 H         1 <0>         0.4193
     56 H22        17.5200    6.5132   -5.1794 H         1 <0>         0.4044
     57 H23        14.9846    2.7720   -3.7409 H         1 <0>         0.3408
     58 H24         4.9425    9.4414    2.7124 H         1 <0>         0.4391
     59 H25         6.2847    9.2077    1.7291 H         1 <0>         0.4284
     60 H26         6.5736    5.6036    3.9366 H         1 <0>         0.4373
     61 H27         5.7423    4.1684    4.2048 H         1 <0>         0.4289
     62 H28         6.4053    5.7118    2.1363 H         1 <0>         0.4163
     63 H29        13.5813    6.4540   -3.0639 H         1 <0>         0.4249
     64 H30        16.1337    4.5918   -4.6444 H         1 <0>         0.4241
     65 H31         3.4347    4.0467    3.8905 H         1 <0>         0.4341
@<TRIPOS>BOND
     1    1    6 ar
     2    1    2 ar
     3    1   35 1
     4    2    3 ar
     5    2    8 1
     6    3    4 ar
     7    3   36 1
     8    4    5 ar
     9    4   37 1
    10    5    6 ar
    11    5    7 1
    12    6   38 1
    13    8    9 1
    14    8   65 1
    15    9   10 1
    16    9   34 2
    17   10   11 2
    18   11   12 1
    19   11   33 1
    20   12   13 1
    21   12   62 1
    22   13   14 1
    23   13   39 1
    24   13   40 1
    25   14   15 1
    26   14   41 1
    27   14   42 1
    28   15   16 1
    29   15   43 1
    30   15   44 1
    31   16   17 1
    32   16   45 1
    33   16   46 1
    34   17   18 1
    35   17   47 1
    36   17   48 1
    37   18   19 1
    38   18   49 1
    39   18   50 1
    40   19   20 1
    41   19   63 1
    42   20   21 1
    43   20   32 2
    44   21   22 1
    45   21   64 1
    46   22   23 2
    47   22   31 1
    48   23   24 1
    49   24   29 ar
    50   24   25 ar
    51   25   26 ar
    52   25   51 1
    53   26   27 ar
    54   26   52 1
    55   27   28 ar
    56   27   30 1
    57   28   29 ar
    58   28   53 1
    59   29   54 1
    60   31   55 1
    61   31   56 1
    62   32   57 1
    63   33   58 1
    64   33   59 1
    65   34   60 1
    66   34   61 1
@<TRIPOS>MOLECULE
ZINC18098320
   64    65     0     0     0
SMALL
NO_CHARGES

@<TRIPOS>ATOM
      1 C1         -3.5705    2.7789   -0.2130 C.ar      1 <0>        -0.1280
      2 C2         -2.6191    3.7778   -0.2220 C.ar      1 <0>        -0.0846
      3 C3         -1.2809    3.4647   -0.0544 C.ar      1 <0>        -0.0667
      4 C4         -0.8889    2.1488    0.1237 C.ar      1 <0>        -0.0841
      5 C5         -1.8309    1.1410    0.1350 C.ar      1 <0>        -0.1753
      6 C6         -3.1816    1.4502   -0.0340 C.ar      1 <0>         0.1576
      7 N1         -4.1220    0.4536   -0.0236 N.2       1 <0>        -0.6296
      8 C7         -4.0652   -0.5111   -0.9109 C.2       1 <0>         0.6754
      9 N2         -3.1757   -0.4310   -1.9591 N.pl3     1 <0>        -0.6754
     10 C8         -3.2146   -1.3689   -2.9698 C.2       1 <0>         0.6370
     11 N3         -2.2617   -1.3517   -3.9605 N.pl3     1 <0>        -0.7614
     12 C9         -2.3029   -2.3478   -5.0339 C.3       1 <0>         0.1243
     13 C10        -1.1392   -2.1074   -5.9977 C.3       1 <0>        -0.1294
     14 C11        -1.1823   -3.1477   -7.1188 C.3       1 <0>        -0.1155
     15 C12        -0.0186   -2.9073   -8.0826 C.3       1 <0>        -0.1144
     16 C13        -0.0617   -3.9476   -9.2037 C.3       1 <0>        -0.1300
     17 C14         1.1020   -3.7072  -10.1675 C.3       1 <0>         0.1416
     18 N4          1.0608   -4.7033  -11.2410 N.pl3     1 <0>        -0.7029
     19 C15         2.0137   -4.6861  -12.2317 C.2       1 <0>         0.6414
     20 N5          3.0100   -3.8498  -12.1625 N.2       1 <0>        -0.8025
     21 N6          1.9148   -5.5543  -13.2989 N.pl3     1 <0>        -0.6788
     22 C16         0.7981   -6.3476  -13.4400 C.2       1 <0>         0.6535
     23 N7          0.7582   -7.3086  -14.4190 N.pl3     1 <0>        -0.8735
     24 N8         -0.2277   -6.1847  -12.6386 N.2       1 <0>        -0.6217
     25 C17        -1.3680   -6.9209  -12.8269 C.ar      1 <0>         0.1437
     26 C18        -2.0410   -6.8705  -14.0489 C.ar      1 <0>        -0.1529
     27 C19        -3.1881   -7.6144  -14.2325 C.ar      1 <0>        -0.0887
     28 C20        -3.6725   -8.4095  -13.2077 C.ar      1 <0>        -0.0567
     29 C21        -3.0098   -8.4634  -11.9932 C.ar      1 <0>        -0.0885
     30 C22        -1.8581   -7.7289  -11.7995 C.ar      1 <0>        -0.1197
     31 Cl1        -5.1170   -9.3423  -13.4462 Cl        1 <0>        -0.0715
     32 N9         -4.1541   -2.2709   -2.9855 N.2       1 <0>        -0.8094
     33 N10        -4.8923   -1.6001   -0.7945 N.pl3     1 <0>        -0.8115
     34 Cl2        -0.0894    4.7272   -0.0680 Cl        1 <0>        -0.0763
     35 H1         -4.6145    3.0248   -0.3398 H         1 <0>         0.1328
     36 H2         -2.9187    4.8061   -0.3605 H         1 <0>         0.1330
     37 H3          0.1565    1.9108    0.2536 H         1 <0>         0.1309
     38 H4         -1.5239    0.1149    0.2736 H         1 <0>         0.1258
     39 H5         -2.2197   -3.3468   -4.6059 H         1 <0>         0.0671
     40 H6         -3.2458   -2.2612   -5.5739 H         1 <0>         0.0669
     41 H7         -1.2224   -1.1084   -6.4257 H         1 <0>         0.0727
     42 H8         -0.1963   -2.1940   -5.4577 H         1 <0>         0.0728
     43 H9         -1.0991   -4.1467   -6.6908 H         1 <0>         0.0670
     44 H10        -2.1251   -3.0611   -7.6588 H         1 <0>         0.0673
     45 H11        -0.1017   -1.9083   -8.5106 H         1 <0>         0.0666
     46 H12         0.9243   -2.9939   -7.5426 H         1 <0>         0.0667
     47 H13         0.0215   -4.9466   -8.7757 H         1 <0>         0.0660
     48 H14        -1.0045   -3.8610   -9.7437 H         1 <0>         0.0687
     49 H15         1.0189   -2.7082  -10.5955 H         1 <0>         0.0600
     50 H16         2.0449   -3.7938   -9.6275 H         1 <0>         0.0622
     51 H17         3.6417   -3.7864  -12.8958 H         1 <0>         0.3388
     52 H18         0.0948   -8.0151  -14.3784 H         1 <0>         0.4191
     53 H19         1.3936   -7.2814  -15.1515 H         1 <0>         0.4030
     54 H20        -1.6645   -6.2502  -14.8488 H         1 <0>         0.1275
     55 H21        -3.7097   -7.5763  -15.1774 H         1 <0>         0.1323
     56 H22        -3.3928   -9.0849  -11.1974 H         1 <0>         0.1350
     57 H23        -1.3396   -7.7752  -10.8532 H         1 <0>         0.1331
     58 H24        -4.1814   -2.9304   -3.6963 H         1 <0>         0.3530
     59 H25        -5.6233   -1.5880   -0.1569 H         1 <0>         0.4078
     60 H26        -4.7460   -2.3819   -1.3497 H         1 <0>         0.4274
     61 H27        -1.5620   -0.6800   -3.9488 H         1 <0>         0.3978
     62 H28         0.3611   -5.3750  -11.2527 H         1 <0>         0.4249
     63 H29         2.6319   -5.6061  -13.9500 H         1 <0>         0.4230
     64 H30        -2.5219    0.2849   -1.9866 H         1 <0>         0.4253
@<TRIPOS>BOND
     1    1    6 ar
     2    1    2 ar
     3    1   35 1
     4    2    3 ar
     5    2   36 1
     6    3    4 ar
     7    3   34 1
     8    4    5 ar
     9    4   37 1
    10    5    6 ar
    11    5   38 1
    12    6    7 1
    13    7    8 2
    14    8    9 1
    15    8   33 1
    16    9   10 1
    17    9   64 1
    18   10   11 1
    19   10   32 2
    20   11   12 1
    21   11   61 1
    22   12   13 1
    23   12   39 1
    24   12   40 1
    25   13   14 1
    26   13   41 1
    27   13   42 1
    28   14   15 1
    29   14   43 1
    30   14   44 1
    31   15   16 1
    32   15   45 1
    33   15   46 1
    34   16   17 1
    35   16   47 1
    36   16   48 1
    37   17   18 1
    38   17   49 1
    39   17   50 1
    40   18   19 1
    41   18   62 1
    42   19   20 2
    43   19   21 1
    44   20   51 1
    45   21   22 1
    46   21   63 1
    47   22   23 1
    48   22   24 2
    49   23   52 1
    50   23   53 1
    51   24   25 1
    52   25   30 ar
    53   25   26 ar
    54   26   27 ar
    55   26   54 1
    56   27   28 ar
    57   27   55 1
    58   28   29 ar
    59   28   31 1
    60   29   30 ar
    61   29   56 1
    62   30   57 1
    63   32   58 1
    64   33   59 1
    65   33   60 1
@<TRIPOS>MOLECULE
ZINC18098320
   64    65     0     0     0
SMALL
NO_CHARGES

@<TRIPOS>ATOM
      1 C1         -3.9038    6.9848   -7.3081 C.ar      1 <0>        -0.1245
      2 C2         -3.2480    7.5277   -8.3937 C.ar      1 <0>        -0.0867
      3 C3         -1.8641    7.5427   -8.4336 C.ar      1 <0>        -0.0589
      4 C4         -1.1298    7.0142   -7.3855 C.ar      1 <0>        -0.0863
      5 C5         -1.7740    6.4690   -6.2942 C.ar      1 <0>        -0.1572
      6 C6         -3.1691    6.4504   -6.2483 C.ar      1 <0>         0.1459
      7 N1         -3.8146    5.9102   -5.1670 N.2       1 <0>        -0.5998
      8 C7         -3.7971    4.6128   -4.9735 C.2       1 <0>         0.6586
      9 N2         -3.2954    3.7781   -5.9470 N.pl3     1 <0>        -0.7266
     10 C8         -3.7651    2.4859   -6.0568 C.2       1 <0>         0.6266
     11 N3         -3.1593    1.6054   -6.9213 N.pl3     1 <0>        -0.7192
     12 C9         -3.6582    0.2329   -7.0379 C.3       1 <0>         0.1477
     13 C10        -2.8142   -0.5315   -8.0598 C.3       1 <0>        -0.1349
     14 C11        -3.3353   -1.9649   -8.1815 C.3       1 <0>        -0.1142
     15 C12        -2.4913   -2.7293   -9.2034 C.3       1 <0>        -0.1140
     16 C13        -3.0124   -4.1627   -9.3251 C.3       1 <0>        -0.1296
     17 C14        -2.1684   -4.9271  -10.3470 C.3       1 <0>         0.1400
     18 N4         -2.6673   -6.2996  -10.4635 N.pl3     1 <0>        -0.7054
     19 C15        -2.0614   -7.1801  -11.3281 C.2       1 <0>         0.6391
     20 N5         -1.1047   -6.7699  -12.1110 N.2       1 <0>        -0.8038
     21 N6         -2.4668   -8.4980  -11.3666 N.pl3     1 <0>        -0.6783
     22 C16        -3.5765   -8.8981  -10.6560 C.2       1 <0>         0.6574
     23 N7         -4.1758   -8.0570   -9.8472 N.2       1 <0>        -0.6208
     24 C17        -5.3538   -8.4094   -9.2424 C.ar      1 <0>         0.1399
     25 C18        -6.4909   -8.6570  -10.0134 C.ar      1 <0>        -0.1405
     26 C19        -7.6739   -9.0114   -9.3986 C.ar      1 <0>        -0.0911
     27 C20        -7.7349   -9.1217   -8.0198 C.ar      1 <0>        -0.0540
     28 C21        -6.6106   -8.8774   -7.2496 C.ar      1 <0>        -0.0908
     29 C22        -5.4203   -8.5279   -7.8530 C.ar      1 <0>        -0.1196
     30 Cl1        -9.2275   -9.5675   -7.2535 Cl        1 <0>        -0.0716
     31 N8         -4.0554  -10.1769  -10.7941 N.pl3     1 <0>        -0.8768
     32 N9         -4.7828    2.0999   -5.3412 N.2       1 <0>        -0.8081
     33 N10        -4.2790    4.0874   -3.8007 N.pl3     1 <0>        -0.8375
     34 Cl2        -1.0462    8.2266   -9.8037 Cl        1 <0>        -0.0721
     35 H1         -4.9833    6.9773   -7.2763 H         1 <0>         0.1316
     36 H2         -3.8153    7.9414   -9.2143 H         1 <0>         0.1345
     37 H3         -0.0506    7.0286   -7.4225 H         1 <0>         0.1340
     38 H4         -1.2001    6.0567   -5.4774 H         1 <0>         0.1284
     39 H5         -3.5914   -0.2616   -6.0688 H         1 <0>         0.0685
     40 H6         -4.6976    0.2507   -7.3657 H         1 <0>         0.0681
     41 H7         -2.8811   -0.0371   -9.0289 H         1 <0>         0.0690
     42 H8         -1.7748   -0.5494   -7.7319 H         1 <0>         0.0689
     43 H9         -3.2684   -2.4594   -7.2124 H         1 <0>         0.0668
     44 H10        -4.3747   -1.9471   -8.5093 H         1 <0>         0.0668
     45 H11        -2.5581   -2.2349  -10.1725 H         1 <0>         0.0657
     46 H12        -1.4519   -2.7472   -8.8755 H         1 <0>         0.0655
     47 H13        -2.9455   -4.6571   -8.3560 H         1 <0>         0.0669
     48 H14        -4.0517   -4.1448   -9.6529 H         1 <0>         0.0666
     49 H15        -2.2352   -4.4327  -11.3161 H         1 <0>         0.0612
     50 H16        -1.1290   -4.9450  -10.0191 H         1 <0>         0.0592
     51 H17        -3.4251   -6.5871   -9.9307 H         1 <0>         0.4266
     52 H18        -0.7270   -7.3714  -12.7716 H         1 <0>         0.3381
     53 H19        -1.9701   -9.1430  -11.8941 H         1 <0>         0.4231
     54 H20        -6.4446   -8.5709  -11.0890 H         1 <0>         0.1267
     55 H21        -8.5544   -9.2029   -9.9940 H         1 <0>         0.1324
     56 H22        -6.6645   -8.9647   -6.1745 H         1 <0>         0.1348
     57 H23        -4.5428   -8.3419   -7.2515 H         1 <0>         0.1333
     58 H24        -4.5878  -10.5743  -10.0874 H         1 <0>         0.4181
     59 H25        -3.8614  -10.6832  -11.5984 H         1 <0>         0.4041
     60 H26        -5.2065    2.7194   -4.7267 H         1 <0>         0.3506
     61 H27        -4.8084    4.6388   -3.2036 H         1 <0>         0.4234
     62 H28        -4.0901    3.1646   -3.5689 H         1 <0>         0.4176
     63 H29        -2.4015    1.8928   -7.4542 H         1 <0>         0.4036
     64 H30        -2.6115    4.0989   -6.5556 H         1 <0>         0.4128
@<TRIPOS>BOND
     1    1    6 ar
     2    1    2 ar
     3    1   35 1
     4    2    3 ar
     5    2   36 1
     6    3    4 ar
     7    3   34 1
     8    4    5 ar
     9    4   37 1
    10    5    6 ar
    11    5   38 1
    12    6    7 1
    13    7    8 2
    14    8    9 1
    15    8   33 1
    16    9   10 1
    17    9   64 1
    18   10   11 1
    19   10   32 2
    20   11   12 1
    21   11   63 1
    22   12   13 1
    23   12   39 1
    24   12   40 1
    25   13   14 1
    26   13   41 1
    27   13   42 1
    28   14   15 1
    29   14   43 1
    30   14   44 1
    31   15   16 1
    32   15   45 1
    33   15   46 1
    34   16   17 1
    35   16   47 1
    36   16   48 1
    37   17   18 1
    38   17   49 1
    39   17   50 1
    40   18   19 1
    41   18   51 1
    42   19   20 2
    43   19   21 1
    44   20   52 1
    45   21   22 1
    46   21   53 1
    47   22   23 2
    48   22   31 1
    49   23   24 1
    50   24   29 ar
    51   24   25 ar
    52   25   26 ar
    53   25   54 1
    54   26   27 ar
    55   26   55 1
    56   27   28 ar
    57   27   30 1
    58   28   29 ar
    59   28   56 1
    60   29   57 1
    61   31   58 1
    62   31   59 1
    63   32   60 1
    64   33   61 1
    65   33   62 1
@<TRIPOS>MOLECULE
ZINC18098320
   66    67     0     0     0
SMALL
NO_CHARGES

@<TRIPOS>ATOM
      1 C1         -4.8510   -1.6940   -1.9875 C.ar      1 <0>        -0.1047
      2 C2         -5.8940   -0.8497   -1.6612 C.ar      1 <0>        -0.0928
      3 C3         -6.5153   -0.9595   -0.4295 C.ar      1 <0>        -0.0713
      4 C4         -6.0933   -1.9148    0.4784 C.ar      1 <0>        -0.0893
      5 C5         -5.0507   -2.7617    0.1571 C.ar      1 <0>        -0.1595
      6 C6         -4.4258   -2.6539   -1.0784 C.ar      1 <0>         0.1875
      7 N1         -3.3695   -3.5110   -1.4067 N.pl3     1 <0>        -0.6589
      8 C7         -2.3541   -3.0699   -2.2241 C.2       1 <0>         0.5599
      9 N2         -2.3516   -1.8403   -2.6540 N.2       1 <0>        -0.8436
     10 N3         -1.3388   -3.9300   -2.5883 N.pl3     1 <0>        -0.6216
     11 C8         -1.4068   -5.2633   -2.2416 C.cat     1 <0>         0.1383
     12 N4         -0.3123   -5.9509   -2.0805 N.pl3     1 <0>        -0.8256
     13 N5         -2.6295   -5.8663   -2.0660 N.pl3     1 <0>        -0.7215
     14 C9         -2.7033   -7.2394   -1.5606 C.3       1 <0>         0.1381
     15 C10        -4.1687   -7.6675   -1.4592 C.3       1 <0>        -0.1319
     16 C11        -4.2457   -9.1015   -0.9313 C.3       1 <0>        -0.1142
     17 C12        -5.7111   -9.5296   -0.8299 C.3       1 <0>        -0.1164
     18 C13        -5.7881  -10.9636   -0.3021 C.3       1 <0>        -0.1255
     19 C14        -7.2535  -11.3917   -0.2007 C.3       1 <0>         0.1048
     20 N6         -7.3272  -12.7648    0.3047 N.pl3     1 <0>        -0.6756
     21 C15        -8.5500  -13.3679    0.4803 C.cat     1 <0>         0.4925
     22 N7         -9.6353  -12.7678    0.0821 N.pl3     1 <0>        -0.8060
     23 N8         -8.6276  -14.6084    1.0782 N.pl3     1 <0>        -0.6076
     24 C16        -7.4990  -15.1816    1.6268 C.2       1 <0>         0.5747
     25 N9         -6.3958  -14.4946    1.7127 N.2       1 <0>        -0.8234
     26 N10        -7.5388  -16.4793    2.0832 N.pl3     1 <0>        -0.6840
     27 C17        -8.6871  -17.2547    1.8880 C.ar      1 <0>         0.1309
     28 C18        -9.3603  -17.2075    0.6742 C.ar      1 <0>        -0.1689
     29 C19       -10.4931  -17.9742    0.4840 C.ar      1 <0>        -0.0732
     30 C20       -10.9576  -18.7889    1.5016 C.ar      1 <0>        -0.0714
     31 C21       -10.2888  -18.8378    2.7121 C.ar      1 <0>        -0.0775
     32 C22        -9.1524  -18.0771    2.9057 C.ar      1 <0>        -0.1346
     33 Cl1       -12.3823  -19.7509    1.2594 Cl        1 <0>        -0.0692
     34 Cl2        -7.8261    0.1035   -0.0225 Cl        1 <0>        -0.0869
     35 H1         -4.3693   -1.6109   -2.9506 H         1 <0>         0.1553
     36 H2         -6.2248   -0.1028   -2.3677 H         1 <0>         0.1279
     37 H3         -6.5794   -1.9979    1.4392 H         1 <0>         0.1279
     38 H4         -4.7217   -3.5071    0.8660 H         1 <0>         0.1234
     39 H5         -3.3531   -4.4160   -1.0581 H         1 <0>         0.4128
     40 H6         -1.6771   -1.5494   -3.2875 H         1 <0>         0.3286
     41 H7         -0.3595   -6.9048   -1.9107 H         1 <0>         0.3914
     42 H8         -3.4436   -5.3827   -2.2767 H         1 <0>         0.3937
     43 H9         -2.1763   -7.9064   -2.2427 H         1 <0>         0.0462
     44 H10        -2.2412   -7.2890   -0.5746 H         1 <0>         0.0484
     45 H11        -4.6957   -7.0005   -0.7770 H         1 <0>         0.0667
     46 H12        -4.6307   -7.6179   -2.4451 H         1 <0>         0.0676
     47 H13        -3.7187   -9.7686   -1.6135 H         1 <0>         0.0657
     48 H14        -3.7836   -9.1511    0.0546 H         1 <0>         0.0662
     49 H15        -6.2381   -8.8626   -0.1477 H         1 <0>         0.0665
     50 H16        -6.1731   -9.4801   -1.8159 H         1 <0>         0.0660
     51 H17        -5.2610  -11.6307   -0.9843 H         1 <0>         0.0713
     52 H18        -5.3260  -11.0132    0.6839 H         1 <0>         0.0739
     53 H19        -7.7805  -10.7247    0.4815 H         1 <0>         0.0622
     54 H20        -7.7155  -11.3422   -1.1867 H         1 <0>         0.0622
     55 H21        -6.5132  -13.2485    0.5154 H         1 <0>         0.4339
     56 H22       -10.5028  -13.1576    0.2725 H         1 <0>         0.4128
     57 H23        -9.4758  -15.0779    1.1129 H         1 <0>         0.4258
     58 H24        -5.6238  -14.8711    2.1636 H         1 <0>         0.3513
     59 H25        -6.7708  -16.8564    2.5402 H         1 <0>         0.4223
     60 H26        -8.9984  -16.5716   -0.1201 H         1 <0>         0.1322
     61 H27       -11.0172  -17.9376   -0.4596 H         1 <0>         0.1360
     62 H28       -10.6533  -19.4745    3.5046 H         1 <0>         0.1362
     63 H29        -8.6284  -18.1188    3.8492 H         1 <0>         0.1331
     64 H30        -9.5760  -11.9310   -0.4050 H         1 <0>         0.4221
     65 H31         0.5498   -5.5092   -2.1303 H         1 <0>         0.3895
     66 H32        -0.5771   -3.5971   -3.0882 H         1 <0>         0.4092
@<TRIPOS>BOND
     1    1    6 ar
     2    1    2 ar
     3    1   35 1
     4    2    3 ar
     5    2   36 1
     6    3    4 ar
     7    3   34 1
     8    4    5 ar
     9    4   37 1
    10    5    6 ar
    11    5   38 1
    12    6    7 1
    13    7    8 1
    14    7   39 1
    15    8    9 2
    16    8   10 1
    17    9   40 1
    18   10   11 1
    19   10   66 1
    20   11   12 2
    21   11   13 1
    22   12   41 1
    23   12   65 1
    24   13   14 1
    25   13   42 1
    26   14   15 1
    27   14   43 1
    28   14   44 1
    29   15   16 1
    30   15   45 1
    31   15   46 1
    32   16   17 1
    33   16   47 1
    34   16   48 1
    35   17   18 1
    36   17   49 1
    37   17   50 1
    38   18   19 1
    39   18   51 1
    40   18   52 1
    41   19   20 1
    42   19   53 1
    43   19   54 1
    44   20   21 1
    45   20   55 1
    46   21   22 2
    47   21   23 1
    48   22   56 1
    49   22   64 1
    50   23   24 1
    51   23   57 1
    52   24   25 2
    53   24   26 1
    54   25   58 1
    55   26   27 1
    56   26   59 1
    57   27   32 ar
    58   27   28 ar
    59   28   29 ar
    60   28   60 1
    61   29   30 ar
    62   29   61 1
    63   30   31 ar
    64   30   33 1
    65   31   32 ar
    66   31   62 1
    67   32   63 1
@<TRIPOS>MOLECULE
ZINC18098320
   64    65     0     0     0
SMALL
USER_CHARGES

@<TRIPOS>ATOM
      1 C1          0.1669   -0.6887   -3.5802 C.ar      1 <0>        -0.1000
      2 C2          1.3248    0.0186   -3.8379 C.ar      1 <0>        -0.0921
      3 C3          2.0317    0.5943   -2.7968 C.ar      1 <0>        -0.0598
      4 C4          1.5808    0.4630   -1.4951 C.ar      1 <0>        -0.0904
      5 C5          0.4233   -0.2429   -1.2318 C.ar      1 <0>        -0.1487
      6 C6         -0.2880   -0.8216   -2.2748 C.ar      1 <0>         0.1820
      7 N1         -1.4609   -1.5371   -2.0109 N.pl3     1 <0>        -0.6543
      8 C7         -1.7968   -2.6255   -2.7928 C.2       1 <0>         0.6016
      9 N2         -2.9662   -3.2657   -2.5906 N.2       1 <0>        -0.6938
     10 C8         -2.9695   -4.5322   -2.2203 C.2       1 <0>         0.6862
     11 N3         -1.7920   -5.1620   -1.9284 N.pl3     1 <0>        -0.7518
     12 C9         -1.7831   -6.5958   -1.6281 C.3       1 <0>         0.1066
     13 C10        -0.3501   -7.0473   -1.3386 C.3       1 <0>        -0.1311
     14 C11        -0.3408   -8.5448   -1.0249 C.3       1 <0>        -0.1141
     15 C12         1.0921   -8.9963   -0.7355 C.3       1 <0>        -0.1154
     16 C13         1.1014  -10.4938   -0.4218 C.3       1 <0>        -0.1292
     17 C14         2.5343  -10.9453   -0.1323 C.3       1 <0>         0.1411
     18 N4          2.5433  -12.3792    0.1680 N.pl3     1 <0>        -0.7026
     19 C15         3.7275  -13.0126    0.4616 C.2       1 <0>         0.6406
     20 N5          4.8226  -12.3191    0.5902 N.2       1 <0>        -0.8015
     21 N6          3.7561  -14.3826    0.6199 N.pl3     1 <0>        -0.6784
     22 C16         2.6302  -15.1299    0.3551 C.2       1 <0>         0.6534
     23 N7          2.6206  -16.4755    0.6252 N.pl3     1 <0>        -0.8752
     24 N8          1.5668  -14.5558   -0.1553 N.2       1 <0>        -0.6199
     25 C17         0.4859  -15.3154   -0.5190 C.ar      1 <0>         0.1454
     26 C18         0.6541  -16.4151   -1.3624 C.ar      1 <0>        -0.1561
     27 C19        -0.4380  -17.1760   -1.7250 C.ar      1 <0>        -0.0881
     28 C20        -1.6989  -16.8507   -1.2545 C.ar      1 <0>        -0.0578
     29 C21        -1.8721  -15.7613   -0.4178 C.ar      1 <0>        -0.0882
     30 C22        -0.7870  -14.9963   -0.0430 C.ar      1 <0>        -0.1187
     31 Cl1        -3.0684  -17.8124   -1.7162 Cl        1 <0>        -0.0721
     32 N9         -4.1505   -5.2143   -2.1285 N.pl3     1 <0>        -0.8282
     33 N10        -0.9792   -3.0354   -3.7308 N.2       1 <0>        -0.8044
     34 Cl2         3.4871    1.4822   -3.1242 Cl        1 <0>        -0.0784
     35 H1         -0.3866   -1.1342   -4.3935 H         1 <0>         0.1522
     36 H2          1.6791    0.1223   -4.8529 H         1 <0>         0.1319
     37 H3          2.1348    0.9126   -0.6843 H         1 <0>         0.1327
     38 H4          0.0719   -0.3450   -0.2157 H         1 <0>         0.1292
     39 H5         -2.4078   -6.7882   -0.7559 H         1 <0>         0.0674
     40 H6         -2.1725   -7.1486   -2.4830 H         1 <0>         0.0692
     41 H7          0.2746   -6.8549   -2.2108 H         1 <0>         0.0736
     42 H8          0.0393   -6.4946   -0.4836 H         1 <0>         0.0717
     43 H9         -0.9656   -8.7372   -0.1527 H         1 <0>         0.0663
     44 H10        -0.7302   -9.0975   -1.8799 H         1 <0>         0.0670
     45 H11         1.7169   -8.8039   -1.6076 H         1 <0>         0.0671
     46 H12         1.4815   -8.4436    0.1195 H         1 <0>         0.0667
     47 H13         0.4766  -10.6862    0.4504 H         1 <0>         0.0657
     48 H14         0.7120  -11.0465   -1.2767 H         1 <0>         0.0685
     49 H15         3.1591  -10.7529   -1.0045 H         1 <0>         0.0600
     50 H16         2.9237  -10.3926    0.7227 H         1 <0>         0.0626
     51 H17         5.6700  -12.7714    0.7249 H         1 <0>         0.3389
     52 H18         1.7772  -16.9472    0.7099 H         1 <0>         0.4192
     53 H19         3.4572  -16.9549    0.7314 H         1 <0>         0.4032
     54 H20         1.6370  -16.6693   -1.7306 H         1 <0>         0.1279
     55 H21        -0.3092  -18.0269   -2.3774 H         1 <0>         0.1320
     56 H22        -2.8582  -15.5126   -0.0540 H         1 <0>         0.1348
     57 H23        -0.9226  -14.1497    0.6137 H         1 <0>         0.1334
     58 H24        -4.9861   -4.7673   -2.3357 H         1 <0>         0.4237
     59 H25        -4.1529   -6.1453   -1.8563 H         1 <0>         0.4101
     60 H26        -1.1813   -3.8407   -4.2324 H         1 <0>         0.3389
     61 H27        -0.9623   -4.6595   -1.9202 H         1 <0>         0.4176
     62 H28         1.7136  -12.8816    0.1598 H         1 <0>         0.4249
     63 H29         4.5693  -14.8195    0.9177 H         1 <0>         0.4230
     64 H30        -2.0382   -1.2691   -1.2789 H         1 <0>         0.4141
@<TRIPOS>BOND
     1    1    6 ar
     2    1    2 ar
     3    1   35 1
     4    2    3 ar
     5    2   36 1
     6    3    4 ar
     7    3   34 1
     8    4    5 ar
     9    4   37 1
    10    5    6 ar
    11    5   38 1
    12    6    7 1
    13    7    8 1
    14    7   64 1
    15    8    9 1
    16    8   33 2
    17    9   10 2
    18   10   11 1
    19   10   32 1
    20   11   12 1
    21   11   61 1
    22   12   13 1
    23   12   39 1
    24   12   40 1
    25   13   14 1
    26   13   41 1
    27   13   42 1
    28   14   15 1
    29   14   43 1
    30   14   44 1
    31   15   16 1
    32   15   45 1
    33   15   46 1
    34   16   17 1
    35   16   47 1
    36   16   48 1
    37   17   18 1
    38   17   49 1
    39   17   50 1
    40   18   19 1
    41   18   62 1
    42   19   20 2
    43   19   21 1
    44   20   51 1
    45   21   22 1
    46   21   63 1
    47   22   23 1
    48   22   24 2
    49   23   52 1
    50   23   53 1
    51   24   25 1
    52   25   30 ar
    53   25   26 ar
    54   26   27 ar
    55   26   54 1
    56   27   28 ar
    57   27   55 1
    58   28   29 ar
    59   28   31 1
    60   29   30 ar
    61   29   56 1
    62   30   57 1
    63   32   58 1
    64   32   59 1
    65   33   60 1
@<TRIPOS>MOLECULE
ZINC26639816
   41    42     0     0     0
SMALL
USER_CHARGES

@<TRIPOS>ATOM
      1 C1         -0.0187    1.5258    0.0104 C.3       1 <0>        -0.1420
      2 C2          0.0021   -0.0041    0.0020 C.3       1 <0>        -0.0834
      3 C3          0.7421   -0.5109    1.2415 C.3       1 <0>        -0.1432
      4 C4         -1.4333   -0.5336    0.0129 C.3       1 <0>         0.0854
      5 H1         -1.9605   -0.1726   -0.8702 H         1 <0>         0.0718
      6 C5         -2.1387   -0.0476    1.2528 C.2       1 <0>         0.4973
      7 O1         -2.7455    1.0097    1.2340 O.co2     1 <0>        -0.6923
      8 O2         -2.1025   -0.7118    2.2746 O.co2     1 <0>        -0.6812
      9 N1         -1.4134   -1.9985    0.0048 N.pl3     1 <0>        -1.0834
     10 S1         -2.5847   -2.8380   -0.8111 S.o2      1 <0>         2.6876
     11 O3         -2.2793   -4.2170   -0.6549 O.2       1 <0>        -0.9731
     12 O4         -3.8319   -2.2842   -0.4148 O.2       1 <0>        -0.9442
     13 C6         -2.3918   -2.4703   -2.5235 C.ar      1 <0>        -0.6684
     14 C7         -3.0596   -1.3925   -3.0763 C.ar      1 <0>        -0.0136
     15 C8         -2.9125   -1.1002   -4.4172 C.ar      1 <0>        -0.1294
     16 C9         -2.0891   -1.8929   -5.2141 C.ar      1 <0>        -0.0033
     17 C10        -1.4185   -2.9772   -4.6519 C.ar      1 <0>        -0.1336
     18 C11        -1.5688   -3.2573   -3.3088 C.ar      1 <0>        -0.0165
     19 C12        -1.9275   -1.5839   -6.6564 C.ar      1 <0>        -0.0451
     20 C13        -2.5941   -0.4964   -7.2172 C.ar      1 <0>        -0.0923
     21 C14        -2.4402   -0.2128   -8.5589 C.ar      1 <0>        -0.1078
     22 C15        -1.6255   -1.0070   -9.3476 C.ar      1 <0>        -0.0322
     23 C16        -0.9614   -2.0888   -8.7952 C.ar      1 <0>        -0.1090
     24 C17        -1.1040   -2.3769   -7.4532 C.ar      1 <0>        -0.0935
     25 Cl1        -1.4363   -0.6454  -11.0350 Cl        1 <0>        -0.0704
     26 H2          1.0039    1.9031    0.0027 H         1 <0>         0.0448
     27 H3         -0.5459    1.8868   -0.8726 H         1 <0>         0.0498
     28 H4         -0.5289    1.8773    0.9072 H         1 <0>         0.0736
     29 H5          0.5123   -0.3556   -0.8948 H         1 <0>         0.0592
     30 H6          0.7568   -1.6008    1.2356 H         1 <0>         0.0486
     31 H7          1.7647   -0.1336    1.2338 H         1 <0>         0.0430
     32 H8          0.2319   -0.1594    2.1383 H         1 <0>         0.0736
     33 H9         -0.7142   -2.4767    0.4774 H         1 <0>         0.4140
     34 H10        -3.6975   -0.7787   -2.4577 H         1 <0>         0.1473
     35 H11        -3.4349   -0.2588   -4.8479 H         1 <0>         0.1352
     36 H12        -0.7791   -3.5949   -5.2651 H         1 <0>         0.1332
     37 H13        -1.0460   -4.0948   -2.8710 H         1 <0>         0.1424
     38 H14        -3.2305    0.1234   -6.6029 H         1 <0>         0.1394
     39 H15        -2.9565    0.6299   -8.9945 H         1 <0>         0.1374
     40 H16        -0.3272   -2.7057   -9.4145 H         1 <0>         0.1366
     41 H17        -0.5817   -3.2182   -7.0221 H         1 <0>         0.1378
@<TRIPOS>BOND
     1    1    2 1
     2    1   26 1
     3    1   27 1
     4    1   28 1
     5    2    3 1
     6    2    4 1
     7    2   29 1
     8    3   30 1
     9    3   31 1
    10    3   32 1
    11    4    5 1
    12    4    6 1
    13    4    9 1
    14    6    7 2
    15    6    8 1
    16    9   10 1
    17    9   33 1
    18   10   11 2
    19   10   12 2
    20   10   13 1
    21   13   18 ar
    22   13   14 ar
    23   14   15 ar
    24   14   34 1
    25   15   16 ar
    26   15   35 1
    27   16   17 ar
    28   16   19 1
    29   17   18 ar
    30   17   36 1
    31   18   37 1
    32   19   24 ar
    33   19   20 ar
    34   20   21 ar
    35   20   38 1
    36   21   22 ar
    37   21   39 1
    38   22   23 ar
    39   22   25 1
    40   23   24 ar
    41   23   40 1
    42   24   41 1
@<TRIPOS>MOLECULE
ZINC26640858
   45    47     0     0     0
SMALL
USER_CHARGES

@<TRIPOS>ATOM
      1 C1         -0.0167    1.3781    0.0096 C.ar      1 <0>        -0.1307
      2 C2          1.1709    2.0855    0.0021 C.ar      1 <0>        -0.1152
      3 C3          2.3773    1.4107   -0.0130 C.ar      1 <0>        -0.1177
      4 C4          2.3960    0.0285   -0.0201 C.ar      1 <0>        -0.0638
      5 C5          1.2084   -0.6789   -0.0117 C.ar      1 <0>        -0.1172
      6 C6          0.0021   -0.0041    0.0020 C.ar      1 <0>        -0.1196
      7 C7          3.7112   -0.7071   -0.0376 C.3       1 <0>        -0.0752
      8 C8          4.1714   -0.9633    1.3989 C.3       1 <0>         0.0963
      9 H1          4.2087   -0.0191    1.9423 H         1 <0>         0.0752
     10 C9          5.5425   -1.5884    1.3832 C.2       1 <0>         0.4899
     11 O1          6.5098   -0.9278    1.0449 O.co2     1 <0>        -0.6954
     12 O2          5.6845   -2.7547    1.7088 O.co2     1 <0>        -0.6743
     13 N1          3.2289   -1.8699    2.0593 N.pl3     1 <0>        -1.0793
     14 S1          2.8971   -1.6886    3.6716 S.o2      1 <0>         2.6898
     15 O3          1.9415   -2.6862    4.0043 O.2       1 <0>        -0.9744
     16 O4          4.1495   -1.5821    4.3344 O.2       1 <0>        -0.9437
     17 C10         2.0907   -0.1341    3.8659 C.ar      1 <0>        -0.6654
     18 C11         2.8390    1.0065    4.0953 C.ar      1 <0>        -0.0139
     19 C12         2.2125    2.2266    4.2487 C.ar      1 <0>        -0.1284
     20 C13         0.8236    2.3083    4.1717 C.ar      1 <0>        -0.0006
     21 C14         0.0748    1.1563    3.9400 C.ar      1 <0>        -0.1280
     22 C15         0.7121   -0.0578    3.7829 C.ar      1 <0>        -0.0103
     23 C16         0.1444    3.6173    4.3364 C.ar      1 <0>        -0.0416
     24 C17         0.8938    4.7701    4.5628 C.ar      1 <0>        -0.0932
     25 C18         0.2576    5.9851    4.7148 C.ar      1 <0>        -0.1079
     26 C19        -1.1229    6.0599    4.6431 C.ar      1 <0>        -0.0329
     27 C20        -1.8719    4.9174    4.4188 C.ar      1 <0>        -0.1088
     28 C21        -1.2445    3.6987    4.2593 C.ar      1 <0>        -0.0934
     29 Cl1        -1.9175    7.5913    4.8357 Cl        1 <0>        -0.0715
     30 H2         -0.9591    1.9053    0.0259 H         1 <0>         0.1121
     31 H3          1.1563    3.1654    0.0076 H         1 <0>         0.1133
     32 H4          3.3051    1.9634   -0.0196 H         1 <0>         0.1202
     33 H5          1.2231   -1.7588   -0.0176 H         1 <0>         0.1195
     34 H6         -0.9258   -0.5567    0.0082 H         1 <0>         0.1157
     35 H7          3.5884   -1.6586   -0.5549 H         1 <0>         0.0761
     36 H8          4.4573   -0.1052   -0.5563 H         1 <0>         0.0898
     37 H9          2.7992   -2.5763    1.5522 H         1 <0>         0.4122
     38 H10         3.9154    0.9420    4.1548 H         1 <0>         0.1434
     39 H11         2.7976    3.1164    4.4285 H         1 <0>         0.1325
     40 H12        -1.0019    1.2140    3.8794 H         1 <0>         0.1301
     41 H13         0.1330   -0.9507    3.5989 H         1 <0>         0.1387
     42 H14         1.9708    4.7126    4.6196 H         1 <0>         0.1383
     43 H15         0.8376    6.8791    4.8903 H         1 <0>         0.1364
     44 H16        -2.9486    4.9808    4.3640 H         1 <0>         0.1357
     45 H17        -1.8294    2.8087    4.0795 H         1 <0>         0.1368
@<TRIPOS>BOND
     1    1    6 ar
     2    1    2 ar
     3    1   30 1
     4    2    3 ar
     5    2   31 1
     6    3    4 ar
     7    3   32 1
     8    4    5 ar
     9    4    7 1
    10    5    6 ar
    11    5   33 1
    12    6   34 1
    13    7    8 1
    14    7   35 1
    15    7   36 1
    16    8    9 1
    17    8   10 1
    18    8   13 1
    19   10   11 2
    20   10   12 1
    21   13   14 1
    22   13   37 1
    23   14   15 2
    24   14   16 2
    25   14   17 1
    26   17   22 ar
    27   17   18 ar
    28   18   19 ar
    29   18   38 1
    30   19   20 ar
    31   19   39 1
    32   20   21 ar
    33   20   23 1
    34   21   22 ar
    35   21   40 1
    36   22   41 1
    37   23   28 ar
    38   23   24 ar
    39   24   25 ar
    40   24   42 1
    41   25   26 ar
    42   25   43 1
    43   26   27 ar
    44   26   29 1
    45   27   28 ar
    46   27   44 1
    47   28   45 1
@<TRIPOS>MOLECULE
ZINC26640862
   45    47     0     0     0
SMALL
USER_CHARGES

@<TRIPOS>ATOM
      1 C1         -0.0167    1.3781    0.0096 C.ar      1 <0>        -0.1333
      2 C2          1.1709    2.0855    0.0021 C.ar      1 <0>        -0.1219
      3 C3          2.3773    1.4107   -0.0130 C.ar      1 <0>        -0.1182
      4 C4          2.3960    0.0285   -0.0201 C.ar      1 <0>        -0.0654
      5 C5          1.2084   -0.6789   -0.0117 C.ar      1 <0>        -0.1160
      6 C6          0.0021   -0.0041    0.0020 C.ar      1 <0>        -0.1183
      7 C7          3.7112   -0.7071   -0.0376 C.3       1 <0>        -0.0705
      8 C8          4.1714   -0.9633    1.3989 C.3       1 <0>         0.0870
      9 H1          3.3868   -1.4885    1.9436 H         1 <0>         0.0834
     10 C9          5.4216   -1.8045    1.3834 C.2       1 <0>         0.4853
     11 O1          6.5163   -1.2690    1.3447 O.co2     1 <0>        -0.6780
     12 O2          5.3385   -3.0206    1.4096 O.co2     1 <0>        -0.6908
     13 N1          4.4511    0.3151    2.0574 N.pl3     1 <0>        -1.0824
     14 S1          4.1242    0.5051    3.6697 S.o2      1 <0>         2.6952
     15 O3          4.5243    1.8248    4.0125 O.2       1 <0>        -0.9744
     16 O4          2.7993    0.0335    3.8737 O.2       1 <0>        -0.9636
     17 C10         5.1892   -0.5886    4.5496 C.ar      1 <0>        -0.6600
     18 C11         4.7772   -1.8807    4.8219 C.ar      1 <0>        -0.0027
     19 C12         5.6072   -2.7415    5.5112 C.ar      1 <0>        -0.1232
     20 C13         6.8623   -2.3069    5.9325 C.ar      1 <0>        -0.0022
     21 C14         7.2723   -1.0045    5.6550 C.ar      1 <0>        -0.1308
     22 C15         6.4363   -0.1538    4.9605 C.ar      1 <0>        -0.0055
     23 C16         7.7587   -3.2277    6.6743 C.ar      1 <0>        -0.0382
     24 C17         7.3506   -4.5318    6.9471 C.ar      1 <0>        -0.0924
     25 C18         8.1880   -5.3845    7.6369 C.ar      1 <0>        -0.1081
     26 C19         9.4317   -4.9460    8.0582 C.ar      1 <0>        -0.0347
     27 C20         9.8416   -3.6511    7.7901 C.ar      1 <0>        -0.1091
     28 C21         9.0138   -2.7929    7.0955 C.ar      1 <0>        -0.0940
     29 Cl1        10.4805   -6.0233    8.9261 Cl        1 <0>        -0.0749
     30 H2         -0.9591    1.9053    0.0259 H         1 <0>         0.1156
     31 H3          1.1563    3.1654    0.0076 H         1 <0>         0.1175
     32 H4          3.3051    1.9634   -0.0196 H         1 <0>         0.1194
     33 H5          1.2231   -1.7588   -0.0176 H         1 <0>         0.1222
     34 H6         -0.9258   -0.5567    0.0082 H         1 <0>         0.1176
     35 H7          3.5884   -1.6586   -0.5549 H         1 <0>         0.0855
     36 H8          4.4573   -0.1052   -0.5563 H         1 <0>         0.0781
     37 H9          4.8278    1.0503    1.5490 H         1 <0>         0.4134
     38 H10         3.8042   -2.2164    4.4949 H         1 <0>         0.1386
     39 H11         5.2843   -3.7499    5.7239 H         1 <0>         0.1319
     40 H12         8.2441   -0.6625    5.9792 H         1 <0>         0.1311
     41 H13         6.7548    0.8546    4.7410 H         1 <0>         0.1386
     42 H14         6.3802   -4.8746    6.6194 H         1 <0>         0.1389
     43 H15         7.8725   -6.3954    7.8487 H         1 <0>         0.1360
     44 H16        10.8126   -3.3136    8.1211 H         1 <0>         0.1354
     45 H17         9.3364   -1.7844    6.8825 H         1 <0>         0.1378
@<TRIPOS>BOND
     1    1    6 ar
     2    1    2 ar
     3    1   30 1
     4    2    3 ar
     5    2   31 1
     6    3    4 ar
     7    3   32 1
     8    4    5 ar
     9    4    7 1
    10    5    6 ar
    11    5   33 1
    12    6   34 1
    13    7    8 1
    14    7   35 1
    15    7   36 1
    16    8    9 1
    17    8   10 1
    18    8   13 1
    19   10   11 2
    20   10   12 1
    21   13   14 1
    22   13   37 1
    23   14   15 2
    24   14   16 2
    25   14   17 1
    26   17   22 ar
    27   17   18 ar
    28   18   19 ar
    29   18   38 1
    30   19   20 ar
    31   19   39 1
    32   20   21 ar
    33   20   23 1
    34   21   22 ar
    35   21   40 1
    36   22   41 1
    37   23   28 ar
    38   23   24 ar
    39   24   25 ar
    40   24   42 1
    41   25   26 ar
    42   25   43 1
    43   26   27 ar
    44   26   29 1
    45   27   28 ar
    46   27   44 1
    47   28   45 1
@<TRIPOS>MOLECULE
ZINC13561076
   12    11     0     0     0
SMALL
USER_CHARGES
methylcarbamoylphosphonic acid
@<TRIPOS>ATOM
      1 C1         -1.0763    2.2074    3.9258 C.3       1 <0>         0.0758
      2 N1         -0.3906    1.7349    2.7205 N.am      1 <0>        -0.7375
      3 C2         -0.8671    2.0608    1.5026 C.2       1 <0>        -0.0024
      4 O1         -1.8635    2.7451    1.4045 O.2       1 <0>        -0.5771
      5 P1         -0.0180    1.4758    0.0102 P.3       1 <0>         2.1587
      6 O2          0.0021   -0.0041    0.0020 O.2       1 <0>        -1.1267
      7 H1         -1.0911    3.2973    3.9318 H         1 <0>         0.0372
      8 H2         -2.0989    1.8301    3.9336 H         1 <0>         0.0369
      9 H3         -0.5491    1.8463    4.8089 H         1 <0>         0.0534
     10 H4          0.4064    1.1876    2.7990 H         1 <0>         0.3985
     11 O3          1.4924    2.0330   -0.0013 O.3       1 <0>        -1.1615
     12 O4         -0.7967    2.0091   -1.2942 O.3       1 <0>        -1.1553
@<TRIPOS>BOND
     1    1    2 1
     2    1    7 1
     3    1    8 1
     4    1    9 1
     5    2    3 am
     6    2   10 1
     7    3    4 2
     8    3    5 1
     9    5    6 2
    10    5   11 1
    11    5   12 1
