@<TRIPOS>MOLECULE
ZINC01544157
   52    51     0     0     0
SMALL
USER_CHARGES
(2R)-N-[(1S)-2,2-dimethyl-1-(methylcarbamoyl)propyl]-2-[(1S)-1-hydroxy-2-(hydroxyamino)-2-oxo-ethyl]-4-methyl-pentanamide
@<TRIPOS>ATOM
      1 C1          3.0091    4.5674    0.8752 C.3       1 <0>        -0.1725
      2 C2          2.8370    3.3040    1.7207 C.3       1 <0>        -0.1114
      3 C3          3.7850    3.3601    2.9204 C.3       1 <0>        -0.1515
      4 C4          1.3922    3.2147    2.2162 C.3       1 <0>        -0.1277
      5 C5          0.4588    2.9800    1.0268 C.3       1 <0>        -0.1436
      6 H1         -0.5517    2.7917    1.3896 H         1 <0>         0.1129
      7 C6          0.9468    1.7708    0.2264 C.3       1 <0>         0.1266
      8 H2          1.9895    1.9182   -0.0550 H         1 <0>         0.1368
      9 C7          0.8250    0.5278    1.0698 C.2       1 <0>         0.4947
     10 O1         -0.0196   -0.3023    0.8080 O.2       1 <0>        -0.5059
     11 N1          1.6547    0.3386    2.1149 N.am      1 <0>        -0.5951
     12 O2          1.6054   -0.8719    2.8479 O.3       1 <0>        -0.3178
     13 O3          0.1511    1.6269   -0.9518 O.3       1 <0>        -0.5050
     14 C8          0.4558    4.2000    0.1421 C.2       1 <0>         0.5376
     15 O4          0.7344    4.0970   -1.0337 O.2       1 <0>        -0.5056
     16 N2          0.1435    5.4054    0.6577 N.am      1 <0>        -0.7140
     17 C9          0.0346    6.5722   -0.2215 C.3       1 <0>         0.1387
     18 H3          0.7694    6.4932   -1.0227 H         1 <0>         0.1119
     19 C10         0.2914    7.8262    0.5738 C.2       1 <0>         0.5166
     20 O5          0.1388    7.8231    1.7769 O.2       1 <0>        -0.5316
     21 N3          0.6907    8.9512   -0.0520 N.am      1 <0>        -0.7302
     22 C11         1.0400   10.1397    0.7300 C.3       1 <0>         0.0849
     23 C12        -1.3712    6.6284   -0.8226 C.3       1 <0>        -0.0724
     24 C13        -2.3961    6.8315    0.2951 C.3       1 <0>        -0.1441
     25 C14        -1.4571    7.7931   -1.8111 C.3       1 <0>        -0.1546
     26 C15        -1.6664    5.3168   -1.5531 C.3       1 <0>        -0.1327
     27 H4          2.5718    5.4175    1.3989 H         1 <0>         0.0600
     28 H5          4.0704    4.7508    0.7077 H         1 <0>         0.0593
     29 H6          2.5076    4.4342   -0.0834 H         1 <0>         0.0774
     30 H7          3.0684    2.4275    1.1155 H         1 <0>         0.0727
     31 H8          3.6624    2.4600    3.5228 H         1 <0>         0.0526
     32 H9          4.8143    3.4237    2.5674 H         1 <0>         0.0633
     33 H10         3.5536    4.2366    3.5256 H         1 <0>         0.0627
     34 H11         1.1203    4.1460    2.7131 H         1 <0>         0.0885
     35 H12         1.2997    2.3871    2.9195 H         1 <0>         0.0814
     36 H13         2.2857    1.0316    2.3649 H         1 <0>         0.4083
     37 H14         2.2374   -0.9154    3.5784 H         1 <0>         0.3884
     38 H15        -0.7903    1.4920   -0.7766 H         1 <0>         0.3809
     39 H16        -0.0092    5.5005    1.6109 H         1 <0>         0.4088
     40 H17         0.7467    8.9738   -1.0201 H         1 <0>         0.4052
     41 H18         0.1766   10.4562    1.3153 H         1 <0>         0.0629
     42 H19         1.8665    9.9037    1.4002 H         1 <0>         0.0614
     43 H20         1.3367   10.9436    0.0563 H         1 <0>         0.0787
     44 H21        -2.1858    7.7659    0.8155 H         1 <0>         0.0563
     45 H22        -3.3976    6.8716   -0.1331 H         1 <0>         0.0602
     46 H23        -2.3349    6.0018    0.9993 H         1 <0>         0.0579
     47 H24        -0.7527    7.6300   -2.6268 H         1 <0>         0.0633
     48 H25        -2.4688    7.8559   -2.2117 H         1 <0>         0.0678
     49 H26        -1.2108    8.7232   -1.2989 H         1 <0>         0.0593
     50 H27        -1.6053    4.4871   -0.8489 H         1 <0>         0.0527
     51 H28        -2.6680    5.3569   -1.9813 H         1 <0>         0.0548
     52 H29        -0.9363    5.1721   -2.3494 H         1 <0>         0.0702
@<TRIPOS>BOND
     1    1    2 1
     2    1   27 1
     3    1   28 1
     4    1   29 1
     5    2    3 1
     6    2    4 1
     7    2   30 1
     8    3   31 1
     9    3   32 1
    10    3   33 1
    11    4    5 1
    12    4   34 1
    13    4   35 1
    14    5    6 1
    15    5    7 1
    16    5   14 1
    17    7    8 1
    18    7    9 1
    19    7   13 1
    20    9   10 2
    21    9   11 am
    22   11   12 1
    23   11   36 1
    24   12   37 1
    25   13   38 1
    26   14   15 2
    27   14   16 am
    28   16   17 1
    29   16   39 1
    30   17   18 1
    31   17   19 1
    32   17   23 1
    33   19   20 2
    34   19   21 am
    35   21   22 1
    36   21   40 1
    37   22   41 1
    38   22   42 1
    39   22   43 1
    40   23   24 1
    41   23   25 1
    42   23   26 1
    43   24   44 1
    44   24   45 1
    45   24   46 1
    46   25   47 1
    47   25   48 1
    48   25   49 1
    49   26   50 1
    50   26   51 1
    51   26   52 1
@<TRIPOS>MOLECULE
ZINC27079413
   52    51     0     0     0
SMALL
USER_CHARGES
(2R)-N-[(1R)-2,2-dimethyl-1-(methylcarbamoyl)propyl]-2-[(1S)-1-hydroxy-2-(hydroxyamino)-2-oxo-ethyl]-4-methyl-pentanamide
@<TRIPOS>ATOM
      1 C1          2.3780   -0.2951   -1.3458 C.3       1 <0>        -0.1494
      2 C2          1.1159   -1.1242   -1.5916 C.3       1 <0>        -0.1207
      3 C3          1.1613   -1.7164   -3.0016 C.3       1 <0>        -0.1713
      4 C4          1.0413   -2.2563   -0.5651 C.3       1 <0>        -0.1281
      5 C5         -0.3905   -2.7914   -0.4990 C.3       1 <0>        -0.0961
      6 H1         -0.5487   -3.3198    0.4527 H         1 <0>         0.1133
      7 C6         -0.6330   -3.7454   -1.6703 C.3       1 <0>         0.1246
      8 H2         -0.4451   -3.2573   -2.6380 H         1 <0>         0.1008
      9 C7          0.2421   -4.9626   -1.5162 C.2       1 <0>         0.4890
     10 O1         -0.2224   -5.9911   -1.0719 O.2       1 <0>        -0.5099
     11 N1          1.5408   -4.9083   -1.8721 N.am      1 <0>        -0.5972
     12 O2          2.3876   -6.0177   -1.6327 O.3       1 <0>        -0.3525
     13 O3         -2.0053   -4.1439   -1.6838 O.3       1 <0>        -0.5474
     14 C8         -1.3608   -1.6411   -0.5789 C.2       1 <0>         0.5327
     15 O4         -2.2680   -1.6677   -1.3835 O.2       1 <0>        -0.5096
     16 N2         -1.2206   -0.5827    0.2437 N.am      1 <0>        -0.7291
     17 C9         -2.2380    0.4712    0.2614 C.3       1 <0>         0.1408
     18 H3         -3.1982    0.0098   -0.0129 H         1 <0>         0.1105
     19 C10        -2.3304    1.0570    1.6468 C.2       1 <0>         0.5168
     20 O5         -1.4133    0.9150    2.4276 O.2       1 <0>        -0.5378
     21 N3         -3.4322    1.7386    2.0181 N.am      1 <0>        -0.7413
     22 C11        -3.4700    2.4196    3.3147 C.3       1 <0>         0.0866
     23 C12        -1.8523    1.5691   -0.7319 C.3       1 <0>        -0.0667
     24 C13        -0.4271    2.0432   -0.4400 C.3       1 <0>        -0.1495
     25 C14        -1.9241    1.0162   -2.1567 C.3       1 <0>        -0.1371
     26 C15        -2.8198    2.7461   -0.5923 C.3       1 <0>        -0.1570
     27 H4          2.3453    0.1307   -0.3321 H         1 <0>         0.0597
     28 H5          2.4315    0.5188   -2.0838 H         1 <0>         0.0593
     29 H6          3.2645   -0.9387   -1.4448 H         1 <0>         0.0566
     30 H7          0.2294   -0.4805   -1.4926 H         1 <0>         0.0958
     31 H8          0.2539   -2.3125   -3.1783 H         1 <0>         0.0712
     32 H9          2.0479   -2.3600   -3.1006 H         1 <0>         0.0524
     33 H10         1.2148   -0.9024   -3.7396 H         1 <0>         0.0686
     34 H11         1.7223   -3.0671   -0.8633 H         1 <0>         0.0831
     35 H12         1.3361   -1.8748    0.4236 H         1 <0>         0.0875
     36 H13         1.9430   -4.0021   -2.3486 H         1 <0>         0.4194
     37 H14         3.4476   -5.9733   -1.9232 H         1 <0>         0.4177
     38 H15        -2.3702   -4.8334   -2.4593 H         1 <0>         0.4149
     39 H16        -0.3422   -0.5103    0.9018 H         1 <0>         0.4297
     40 H17        -4.3031    1.7836    1.3476 H         1 <0>         0.4261
     41 H18        -4.4430    2.9173    3.4392 H         1 <0>         0.0776
     42 H19        -2.6663    3.1694    3.3586 H         1 <0>         0.0589
     43 H20        -3.3291    1.6834    4.1198 H         1 <0>         0.0598
     44 H21        -0.1498    2.8326   -1.1542 H         1 <0>         0.0583
     45 H22         0.2686    1.1970   -0.5403 H         1 <0>         0.0651
     46 H23        -0.3755    2.4408    0.5843 H         1 <0>         0.0567
     47 H24        -1.6468    1.8057   -2.8707 H         1 <0>         0.0527
     48 H25        -2.9487    0.6754   -2.3665 H         1 <0>         0.0623
     49 H26        -1.2284    0.1701   -2.2571 H         1 <0>         0.0631
     50 H27        -2.5424    3.5354   -1.3065 H         1 <0>         0.0644
     51 H28        -2.7681    3.1437    0.4320 H         1 <0>         0.0650
     52 H29        -3.8444    2.4053   -0.8021 H         1 <0>         0.0600
@<TRIPOS>BOND
     1    1    2 1
     2    1   27 1
     3    1   28 1
     4    1   29 1
     5    2    3 1
     6    2    4 1
     7    2   30 1
     8    3   31 1
     9    3   32 1
    10    3   33 1
    11    4    5 1
    12    4   34 1
    13    4   35 1
    14    5    6 1
    15    5    7 1
    16    5   14 1
    17    7    8 1
    18    7    9 1
    19    7   13 1
    20    9   10 2
    21    9   11 am
    22   11   12 1
    23   11   36 1
    24   12   37 1
    25   13   38 1
    26   14   15 2
    27   14   16 am
    28   16   17 1
    29   16   39 1
    30   17   18 1
    31   17   19 1
    32   17   23 1
    33   19   20 2
    34   19   21 am
    35   21   22 1
    36   21   40 1
    37   22   41 1
    38   22   42 1
    39   22   43 1
    40   23   24 1
    41   23   25 1
    42   23   26 1
    43   24   44 1
    44   24   45 1
    45   24   46 1
    46   25   47 1
    47   25   48 1
    48   25   49 1
    49   26   50 1
    50   26   51 1
    51   26   52 1
@<TRIPOS>MOLECULE
ZINC03873570
   61    63     0     0     0
SMALL
USER_CHARGES

@<TRIPOS>ATOM
      1 C1         -0.0229    1.5191   -0.2856 C.3       1 <0>        -0.1419
      2 C2         -0.0116   -0.0108   -0.3010 C.3       1 <0>        -0.0895
      3 C3          0.9396   -0.5043   -1.3960 C.3       1 <0>         0.1305
      4 N1          1.0116   -1.9711   -1.3384 N.pl3     1 <0>        -1.0080
      5 C4          1.3814   -2.6049   -0.0629 C.3       1 <0>         0.3885
      6 N2          0.5619   -1.9981    0.9981 N.pl3     1 <0>        -1.0004
      7 C5          0.4674   -0.5326    1.0575 C.3       1 <0>         0.1255
      8 S1         -0.2355   -2.9441    2.0988 S.o2      1 <0>         2.6634
      9 O1         -1.3482   -2.1869    2.5545 O.2       1 <0>        -0.9434
     10 O2         -0.3791   -4.2265    1.5036 O.2       1 <0>        -0.9211
     11 C6          0.8355   -3.1484    3.4829 C.ar      1 <0>        -0.7169
     12 C7          1.6491   -4.2632    3.5674 C.ar      1 <0>         0.0275
     13 C8          2.4893   -4.4259    4.6518 C.ar      1 <0>        -0.1698
     14 C9          2.5168   -3.4694    5.6562 C.ar      1 <0>         0.1866
     15 C10         1.6999   -2.3515    5.5689 C.ar      1 <0>        -0.2312
     16 C11         0.8652   -2.1909    4.4799 C.ar      1 <0>         0.0208
     17 O3          3.3422   -3.6274    6.7242 O.3       1 <0>        -0.3093
     18 C12         3.3179   -2.6029    7.7201 C.3       1 <0>         0.0217
     19 C13         1.1108   -4.0858   -0.1320 C.2       1 <0>         0.5323
     20 O4          1.9582   -4.8747    0.2293 O.2       1 <0>        -0.4899
     21 N3         -0.0730   -4.5336   -0.5954 N.am      1 <0>        -0.5462
     22 O5         -0.3695   -5.9177   -0.5595 O.3       1 <0>        -0.2805
     23 S2          0.6838   -2.8890   -2.6772 S.o2      1 <0>         2.6635
     24 O6          1.1186   -4.2090   -2.3810 O.2       1 <0>        -0.9249
     25 O7         -0.6543   -2.5942   -3.0540 O.2       1 <0>        -0.9450
     26 C14         1.7150   -2.2992   -3.9785 C.ar      1 <0>        -0.7132
     27 C15         1.2683   -1.2875   -4.8084 C.ar      1 <0>         0.0150
     28 C16         2.0747   -0.8236   -5.8296 C.ar      1 <0>        -0.1698
     29 C17         3.3339   -1.3735   -6.0218 C.ar      1 <0>         0.1890
     30 C18         3.7799   -2.3882   -5.1875 C.ar      1 <0>        -0.2280
     31 C19         2.9717   -2.8450   -4.1644 C.ar      1 <0>         0.0287
     32 O8          4.1289   -0.9192   -7.0261 O.3       1 <0>        -0.3086
     33 C20         5.4125   -1.5316   -7.1649 C.3       1 <0>         0.0206
     34 C21        -1.4241   -0.5293   -0.5784 C.3       1 <0>        -0.1439
     35 H1          0.9839    1.8879   -0.0894 H         1 <0>         0.0630
     36 H2         -0.3637    1.8897   -1.2523 H         1 <0>         0.0668
     37 H3         -0.6969    1.8696    0.4961 H         1 <0>         0.0681
     38 H4          0.5647   -0.1952   -2.3717 H         1 <0>         0.0906
     39 H5          1.9320   -0.0834   -1.2343 H         1 <0>         0.0866
     40 H6          2.4378   -2.4316    0.1425 H         1 <0>         0.1395
     41 H7          1.4471   -0.1125    1.2851 H         1 <0>         0.0845
     42 H8         -0.2442   -0.2437    1.8310 H         1 <0>         0.1049
     43 H9          1.6273   -5.0075    2.7852 H         1 <0>         0.1555
     44 H10         3.1241   -5.2972    4.7177 H         1 <0>         0.1438
     45 H11         1.7194   -1.6055    6.3496 H         1 <0>         0.1396
     46 H12         0.2322   -1.3186    4.4092 H         1 <0>         0.1399
     47 H13         3.6006   -1.6515    7.2697 H         1 <0>         0.0608
     48 H14         2.3132   -2.5239    8.1356 H         1 <0>         0.0610
     49 H15         4.0211   -2.8519    8.5148 H         1 <0>         0.1065
     50 H16        -0.7218   -3.9077   -0.9535 H         1 <0>         0.3804
     51 H17        -1.2410   -6.1426   -0.9132 H         1 <0>         0.3797
     52 H18         0.2881   -0.8598   -4.6583 H         1 <0>         0.1478
     53 H19         1.7251   -0.0339   -6.4780 H         1 <0>         0.1448
     54 H20         4.7596   -2.8179   -5.3351 H         1 <0>         0.1418
     55 H21         3.3202   -3.6318   -3.5119 H         1 <0>         0.1464
     56 H22         5.9854   -1.3861   -6.2491 H         1 <0>         0.0621
     57 H23         5.2879   -2.5986   -7.3498 H         1 <0>         0.0624
     58 H24         5.9432   -1.0774   -8.0016 H         1 <0>         0.1077
     59 H25        -1.7637   -0.1590   -1.5456 H         1 <0>         0.0685
     60 H26        -1.4154   -1.6192   -0.5893 H         1 <0>         0.0469
     61 H27        -2.0994   -0.1792    0.2023 H         1 <0>         0.0680
@<TRIPOS>BOND
     1    1    2 1
     2    1   35 1
     3    1   36 1
     4    1   37 1
     5    2    7 1
     6    2    3 1
     7    2   34 1
     8    3    4 1
     9    3   38 1
    10    3   39 1
    11    4    5 1
    12    4   23 1
    13    5    6 1
    14    5   19 1
    15    5   40 1
    16    6    7 1
    17    6    8 1
    18    7   41 1
    19    7   42 1
    20    8    9 2
    21    8   10 2
    22    8   11 1
    23   11   16 ar
    24   11   12 ar
    25   12   13 ar
    26   12   43 1
    27   13   14 ar
    28   13   44 1
    29   14   15 ar
    30   14   17 1
    31   15   16 ar
    32   15   45 1
    33   16   46 1
    34   17   18 1
    35   18   47 1
    36   18   48 1
    37   18   49 1
    38   19   20 2
    39   19   21 am
    40   21   22 1
    41   21   50 1
    42   22   51 1
    43   23   24 2
    44   23   25 2
    45   23   26 1
    46   26   31 ar
    47   26   27 ar
    48   27   28 ar
    49   27   52 1
    50   28   29 ar
    51   28   53 1
    52   29   30 ar
    53   29   32 1
    54   30   31 ar
    55   30   54 1
    56   31   55 1
    57   32   33 1
    58   33   56 1
    59   33   57 1
    60   33   58 1
    61   34   59 1
    62   34   60 1
    63   34   61 1
@<TRIPOS>MOLECULE
ZINC03924338
   84    86     0     0     0
SMALL
USER_CHARGES
N-[2,2-dimethyl-1-(1-phenylethylcarbamoyl)propyl]-2-(hydroxycarbamoylmethyl)-5-(3-methyl-4-phenyl-phenyl)-pentanamide
@<TRIPOS>ATOM
      1 C1         -7.5706    2.3330   -5.1220 C.3       1 <0>        -0.1160
      2 C2         -6.6629    3.0383   -4.1475 C.ar      1 <0>        -0.0684
      3 C3         -6.3363    2.4383   -2.9480 C.ar      1 <0>        -0.1175
      4 C4         -5.5042    3.0850   -2.0524 C.ar      1 <0>        -0.0693
      5 C5         -4.9984    4.3376   -2.3508 C.ar      1 <0>        -0.1193
      6 C6         -5.3137    4.9442   -3.5495 C.ar      1 <0>        -0.0997
      7 C7         -6.1521    4.2974   -4.4554 C.ar      1 <0>        -0.0596
      8 C8         -6.5000    4.9476   -5.7432 C.ar      1 <0>        -0.0408
      9 C9         -5.4924    5.3660   -6.6099 C.ar      1 <0>        -0.1081
     10 C10        -5.8218    5.9658   -7.8085 C.ar      1 <0>        -0.1190
     11 C11        -7.1490    6.1615   -8.1452 C.ar      1 <0>        -0.1204
     12 C12        -8.1532    5.7528   -7.2862 C.ar      1 <0>        -0.1195
     13 C13        -7.8353    5.1471   -6.0874 C.ar      1 <0>        -0.1058
     14 C14        -5.1521    2.4253   -0.7440 C.3       1 <0>        -0.0781
     15 C15        -3.8860    1.5847   -0.9211 C.3       1 <0>        -0.1134
     16 C16        -3.5285    0.9150    0.4072 C.3       1 <0>        -0.1019
     17 C17        -2.1991    0.1717    0.2621 C.3       1 <0>        -0.0904
     18 H1         -2.2512   -0.5024   -0.5929 H         1 <0>         0.1120
     19 C18        -1.9251   -0.6360    1.5324 C.3       1 <0>        -0.1235
     20 C19        -2.9523   -1.7309    1.6629 C.2       1 <0>         0.5262
     21 O1         -3.7422   -1.9315    0.7647 O.2       1 <0>        -0.5091
     22 N1         -2.9932   -2.4872    2.7777 N.am      1 <0>        -0.5975
     23 O2         -3.9584   -3.5160    2.9003 O.3       1 <0>        -0.3169
     24 C20        -1.0876    1.1670    0.0501 C.2       1 <0>         0.5234
     25 O3         -1.3345    2.3540    0.0183 O.2       1 <0>        -0.5164
     26 N2          0.1807    0.7381   -0.1040 N.am      1 <0>        -0.7143
     27 C21         1.2604    1.7054   -0.3161 C.3       1 <0>         0.1381
     28 H2          0.8875    2.5425   -0.9063 H         1 <0>         0.1088
     29 C22         2.3949    1.0388   -1.0507 C.2       1 <0>         0.5198
     30 O4          2.5547   -0.1600   -0.9600 O.2       1 <0>        -0.5300
     31 N3          3.2320    1.7748   -1.8083 N.am      1 <0>        -0.7198
     32 C23         4.2665    1.1154   -2.6090 C.3       1 <0>         0.1851
     33 H3          3.8871    0.1631   -2.9796 H         1 <0>         0.0971
     34 C24         5.5029    0.8692   -1.7421 C.3       1 <0>        -0.1582
     35 C25         4.6373    1.9961   -3.7743 C.ar      1 <0>        -0.0954
     36 C26         4.7396    3.3639   -3.6019 C.ar      1 <0>        -0.1154
     37 C27         5.0840    4.1713   -4.6697 C.ar      1 <0>        -0.1145
     38 C28         5.3172    3.6119   -5.9122 C.ar      1 <0>        -0.1169
     39 C29         5.2098    2.2447   -6.0858 C.ar      1 <0>        -0.1141
     40 C30         4.8696    1.4369   -5.0169 C.ar      1 <0>        -0.1069
     41 C31         1.7595    2.2173    1.0366 C.3       1 <0>        -0.0702
     42 C32         2.3545    1.0549    1.8338 C.3       1 <0>        -0.1434
     43 C33         2.8326    3.2848    0.8134 C.3       1 <0>        -0.1531
     44 C34         0.5905    2.8242    1.8151 C.3       1 <0>        -0.1316
     45 H4         -8.5953    2.6748   -4.9768 H         1 <0>         0.0703
     46 H5         -7.2539    2.5565   -6.1407 H         1 <0>         0.0683
     47 H6         -7.5190    1.2573   -4.9533 H         1 <0>         0.0654
     48 H7         -6.7317    1.4623   -2.7083 H         1 <0>         0.1226
     49 H8         -4.3526    4.8400   -1.6459 H         1 <0>         0.1231
     50 H9         -4.9150    5.9203   -3.7832 H         1 <0>         0.1213
     51 H10        -4.4557    5.2174   -6.3461 H         1 <0>         0.1219
     52 H11        -5.0416    6.2868   -8.4829 H         1 <0>         0.1230
     53 H12        -7.4022    6.6347   -9.0824 H         1 <0>         0.1218
     54 H13        -9.1879    5.9083   -7.5538 H         1 <0>         0.1232
     55 H14        -8.6202    4.8281   -5.4176 H         1 <0>         0.1224
     56 H15        -5.9738    1.7825   -0.4285 H         1 <0>         0.0694
     57 H16        -4.9776    3.1899    0.0130 H         1 <0>         0.0723
     58 H17        -3.0643    2.2275   -1.2367 H         1 <0>         0.0791
     59 H18        -4.0605    0.8201   -1.6781 H         1 <0>         0.0585
     60 H19        -4.3121    0.2081    0.6802 H         1 <0>         0.0809
     61 H20        -3.4374    1.6742    1.1840 H         1 <0>         0.0701
     62 H21        -0.9297   -1.0765    1.4752 H         1 <0>         0.1048
     63 H22        -1.9822    0.0212    2.4001 H         1 <0>         0.1057
     64 H23        -2.3614   -2.3267    3.4961 H         1 <0>         0.4084
     65 H24        -3.9098   -4.0036    3.7340 H         1 <0>         0.3888
     66 H25         0.3782   -0.2112   -0.0785 H         1 <0>         0.4089
     67 H26         3.1495    2.7412   -1.8234 H         1 <0>         0.4020
     68 H27         5.8822    1.8215   -1.3715 H         1 <0>         0.0597
     69 H28         5.2347    0.2322   -0.8993 H         1 <0>         0.0670
     70 H29         6.2725    0.3786   -2.3379 H         1 <0>         0.0690
     71 H30         4.5537    3.8013   -2.6321 H         1 <0>         0.1194
     72 H31         5.1682    5.2394   -4.5340 H         1 <0>         0.1248
     73 H32         5.5837    4.2430   -6.7471 H         1 <0>         0.1240
     74 H33         5.3920    1.8077   -7.0565 H         1 <0>         0.1254
     75 H34         4.7857    0.3687   -5.1526 H         1 <0>         0.1247
     76 H35         3.1873    0.6225    1.2792 H         1 <0>         0.0586
     77 H36         2.7101    1.4196    2.7975 H         1 <0>         0.0589
     78 H37         1.5900    0.2944    1.9928 H         1 <0>         0.0573
     79 H38         2.4380    4.0667    0.1647 H         1 <0>         0.0605
     80 H39         3.1190    3.7180    1.7718 H         1 <0>         0.0677
     81 H40         3.7055    2.8301    0.3449 H         1 <0>         0.0592
     82 H41        -0.1740    2.0637    1.9740 H         1 <0>         0.0543
     83 H42         0.9461    3.1889    2.7787 H         1 <0>         0.0525
     84 H43         0.1667    3.6523    1.2471 H         1 <0>         0.0688
@<TRIPOS>BOND
     1    1    2 1
     2    1   45 1
     3    1   46 1
     4    1   47 1
     5    2    7 ar
     6    2    3 ar
     7    3    4 ar
     8    3   48 1
     9    4    5 ar
    10    4   14 1
    11    5    6 ar
    12    5   49 1
    13    6    7 ar
    14    6   50 1
    15    7    8 1
    16    8   13 ar
    17    8    9 ar
    18    9   10 ar
    19    9   51 1
    20   10   11 ar
    21   10   52 1
    22   11   12 ar
    23   11   53 1
    24   12   13 ar
    25   12   54 1
    26   13   55 1
    27   14   15 1
    28   14   56 1
    29   14   57 1
    30   15   16 1
    31   15   58 1
    32   15   59 1
    33   16   17 1
    34   16   60 1
    35   16   61 1
    36   17   18 1
    37   17   19 1
    38   17   24 1
    39   19   20 1
    40   19   62 1
    41   19   63 1
    42   20   21 2
    43   20   22 am
    44   22   23 1
    45   22   64 1
    46   23   65 1
    47   24   25 2
    48   24   26 am
    49   26   27 1
    50   26   66 1
    51   27   28 1
    52   27   29 1
    53   27   41 1
    54   29   30 2
    55   29   31 am
    56   31   32 1
    57   31   67 1
    58   32   33 1
    59   32   34 1
    60   32   35 1
    61   34   68 1
    62   34   69 1
    63   34   70 1
    64   35   40 ar
    65   35   36 ar
    66   36   37 ar
    67   36   71 1
    68   37   38 ar
    69   37   72 1
    70   38   39 ar
    71   38   73 1
    72   39   40 ar
    73   39   74 1
    74   40   75 1
    75   41   42 1
    76   41   43 1
    77   41   44 1
    78   42   76 1
    79   42   77 1
    80   42   78 1
    81   43   79 1
    82   43   80 1
    83   43   81 1
    84   44   82 1
    85   44   83 1
    86   44   84 1
@<TRIPOS>MOLECULE
ZINC03871391
   62    62     0     0     0
SMALL
USER_CHARGES

@<TRIPOS>ATOM
      1 C1          2.3387    1.7536    5.3875 C.3       1 <0>        -0.1532
      2 C2          2.9033    0.4162    4.9042 C.3       1 <0>        -0.1245
      3 C3          1.7512   -0.5413    4.5931 C.3       1 <0>        -0.1167
      4 C4          2.3159   -1.8786    4.1099 C.3       1 <0>        -0.1204
      5 C5          1.1637   -2.8361    3.7988 C.3       1 <0>        -0.1032
      6 C6          1.7219   -4.1266    3.1955 C.3       1 <0>        -0.0894
      7 H1          2.3719   -3.8833    2.3550 H         1 <0>         0.1097
      8 C7          0.5663   -5.0037    2.7092 C.3       1 <0>        -0.1237
      9 C8         -0.1138   -4.3365    1.5416 C.2       1 <0>         0.5258
     10 O1          0.2746   -3.2565    1.1498 O.2       1 <0>        -0.5081
     11 N1         -1.1537   -4.9402    0.9327 N.am      1 <0>        -0.5978
     12 O2         -1.7927   -4.3133   -0.1645 O.3       1 <0>        -0.3171
     13 C9          2.5110   -4.8702    4.2421 C.2       1 <0>         0.5227
     14 O3          2.6165   -4.4130    5.3604 O.2       1 <0>        -0.5166
     15 N2          3.0993   -6.0433    3.9353 N.am      1 <0>        -0.7138
     16 C10         3.8664   -6.7662    4.9528 C.3       1 <0>         0.1375
     17 H2          4.3747   -6.0517    5.6003 H         1 <0>         0.1095
     18 C11         2.9187   -7.6281    5.7893 C.3       1 <0>        -0.1001
     19 C12         1.9651   -6.7242    6.5731 C.3       1 <0>        -0.1383
     20 C13         2.1112   -8.5421    4.8654 C.3       1 <0>        -0.1478
     21 C14         4.8863   -7.6486    4.2803 C.2       1 <0>         0.5332
     22 O4          4.6991   -8.0365    3.1465 O.2       1 <0>        -0.5371
     23 N3          6.0065   -8.0066    4.9387 N.am      1 <0>        -0.6025
     24 C15         6.3116   -7.6960    6.3472 C.3       1 <0>         0.0957
     25 C16         7.3191   -8.7883    6.7848 C.3       1 <0>        -0.1319
     26 C17         8.1648   -8.9663    5.4962 C.3       1 <0>        -0.1269
     27 C18         7.1236   -8.7770    4.3731 C.3       1 <0>         0.1391
     28 H3          6.7674   -9.7476    4.0279 H         1 <0>         0.0900
     29 C19         7.7512   -8.0061    3.2100 C.3       1 <0>         0.0622
     30 O5          8.3399   -6.7999    3.7005 O.3       1 <0>        -0.5674
     31 H4          1.7460    1.5936    6.2881 H         1 <0>         0.0528
     32 H5          3.1595    2.4357    5.6091 H         1 <0>         0.0520
     33 H6          1.7084    2.1842    4.6095 H         1 <0>         0.0528
     34 H7          3.4961    0.5762    4.0036 H         1 <0>         0.0588
     35 H8          3.5337   -0.0145    5.6823 H         1 <0>         0.0599
     36 H9          1.1585   -0.7013    5.4938 H         1 <0>         0.0597
     37 H10         1.1209   -0.1106    3.8151 H         1 <0>         0.0589
     38 H11         2.9086   -1.7186    3.2092 H         1 <0>         0.0553
     39 H12         2.9462   -2.3093    4.8879 H         1 <0>         0.0758
     40 H13         0.6256   -3.0678    4.7179 H         1 <0>         0.0680
     41 H14         0.4835   -2.3671    3.0878 H         1 <0>         0.0838
     42 H15         0.9528   -5.9743    2.3985 H         1 <0>         0.1022
     43 H16        -0.1514   -5.1404    3.5181 H         1 <0>         0.1080
     44 H17        -1.4643   -5.8040    1.2460 H         1 <0>         0.4084
     45 H18        -2.5271   -4.8218   -0.5349 H         1 <0>         0.3887
     46 H19         3.0149   -6.4090    3.0409 H         1 <0>         0.4082
     47 H20         3.4981   -8.2351    6.4850 H         1 <0>         0.0800
     48 H21         1.2899   -7.3383    7.1691 H         1 <0>         0.0523
     49 H22         2.5404   -6.0731    7.2313 H         1 <0>         0.0631
     50 H23         1.3856   -6.1172    5.8775 H         1 <0>         0.0604
     51 H24         2.7906   -9.1861    4.3070 H         1 <0>         0.0579
     52 H25         1.4360   -9.1562    5.4614 H         1 <0>         0.0588
     53 H26         1.5317   -7.9351    4.1698 H         1 <0>         0.0572
     54 H27         6.7644   -6.7079    6.4283 H         1 <0>         0.0768
     55 H28         5.4066   -7.7504    6.9523 H         1 <0>         0.0788
     56 H29         7.9370   -8.4407    7.6128 H         1 <0>         0.0879
     57 H30         6.8042   -9.7131    7.0450 H         1 <0>         0.0767
     58 H31         8.9432   -8.2055    5.4377 H         1 <0>         0.0919
     59 H32         8.5972   -9.9660    5.4537 H         1 <0>         0.0816
     60 H33         8.5192   -8.6200    2.7395 H         1 <0>         0.0557
     61 H34         6.9813   -7.7630    2.4778 H         1 <0>         0.0585
     62 H35         8.7576   -6.2594    3.0160 H         1 <0>         0.3803
@<TRIPOS>BOND
     1    1    2 1
     2    1   31 1
     3    1   32 1
     4    1   33 1
     5    2    3 1
     6    2   34 1
     7    2   35 1
     8    3    4 1
     9    3   36 1
    10    3   37 1
    11    4    5 1
    12    4   38 1
    13    4   39 1
    14    5    6 1
    15    5   40 1
    16    5   41 1
    17    6    7 1
    18    6    8 1
    19    6   13 1
    20    8    9 1
    21    8   42 1
    22    8   43 1
    23    9   10 2
    24    9   11 am
    25   11   12 1
    26   11   44 1
    27   12   45 1
    28   13   14 2
    29   13   15 am
    30   15   16 1
    31   15   46 1
    32   16   17 1
    33   16   18 1
    34   16   21 1
    35   18   19 1
    36   18   20 1
    37   18   47 1
    38   19   48 1
    39   19   49 1
    40   19   50 1
    41   20   51 1
    42   20   52 1
    43   20   53 1
    44   21   22 2
    45   21   23 am
    46   23   27 1
    47   23   24 1
    48   24   25 1
    49   24   54 1
    50   24   55 1
    51   25   26 1
    52   25   56 1
    53   25   57 1
    54   26   27 1
    55   26   58 1
    56   26   59 1
    57   27   28 1
    58   27   29 1
    59   29   30 1
    60   29   60 1
    61   29   61 1
    62   30   62 1
@<TRIPOS>MOLECULE
ZINC03979014
   62    62     0     0     0
SMALL
USER_CHARGES

@<TRIPOS>ATOM
      1 C1          3.2541    2.1779    2.6729 C.3       1 <0>        -0.1533
      2 C2          3.5223    0.6722    2.6297 C.3       1 <0>        -0.1245
      3 C3          2.1925   -0.0837    2.6626 C.3       1 <0>        -0.1167
      4 C4          2.4606   -1.5894    2.6195 C.3       1 <0>        -0.1220
      5 C5          1.1309   -2.3454    2.6523 C.3       1 <0>        -0.1012
      6 C6          1.3906   -3.8423    2.4715 C.3       1 <0>        -0.0906
      7 H1          1.9759   -4.0028    1.5661 H         1 <0>         0.1121
      8 C7          0.0559   -4.5810    2.3536 C.3       1 <0>        -0.1229
      9 C8         -0.6306   -4.1768    1.0744 C.2       1 <0>         0.5261
     10 O1         -0.0560   -3.4677    0.2757 O.2       1 <0>        -0.5085
     11 N1         -1.8830   -4.6035    0.8179 N.am      1 <0>        -0.5979
     12 O2         -2.5281   -4.2238   -0.3841 O.3       1 <0>        -0.3170
     13 C9          2.1519   -4.3674    3.6614 C.2       1 <0>         0.5240
     14 O3          2.4567   -3.6181    4.5650 O.2       1 <0>        -0.5188
     15 N2          2.4941   -5.6696    3.7213 N.am      1 <0>        -0.7120
     16 C10         3.2342   -6.1801    4.8780 C.3       1 <0>         0.1368
     17 H2          3.9252   -5.4157    5.2334 H         1 <0>         0.1131
     18 C11         2.2515   -6.5381    5.9947 C.3       1 <0>        -0.1069
     19 C12         1.4658   -5.2901    6.4022 C.3       1 <0>        -0.1379
     20 C13         1.2815   -7.6111    5.4959 C.3       1 <0>        -0.1463
     21 C14         4.0080   -7.4094    4.4766 C.2       1 <0>         0.5325
     22 O4          3.9473   -7.8188    3.3366 O.2       1 <0>        -0.5380
     23 N3          4.7676   -8.0538    5.3845 N.am      1 <0>        -0.6013
     24 C15         4.9262   -7.6706    6.7992 C.3       1 <0>         0.0968
     25 C16         6.2883   -8.2744    7.2233 C.3       1 <0>        -0.1335
     26 C17         6.2883   -9.6182    6.4476 C.3       1 <0>        -0.1268
     27 C18         5.5701   -9.2590    5.1296 C.3       1 <0>         0.1392
     28 H3          6.3063   -9.0564    4.3518 H         1 <0>         0.0890
     29 C19         4.6583  -10.4101    4.7002 C.3       1 <0>         0.0623
     30 O5          3.7918  -10.7602    5.7813 O.3       1 <0>        -0.5666
     31 H4          2.7180    2.4254    3.5891 H         1 <0>         0.0527
     32 H5          4.2015    2.7165    2.6495 H         1 <0>         0.0520
     33 H6          2.6518    2.4646    1.8108 H         1 <0>         0.0528
     34 H7          4.0583    0.4248    1.7135 H         1 <0>         0.0590
     35 H8          4.1246    0.3856    3.4918 H         1 <0>         0.0600
     36 H9          1.6564    0.1637    3.5789 H         1 <0>         0.0596
     37 H10         1.5902    0.2029    1.8006 H         1 <0>         0.0585
     38 H11         2.9967   -1.8369    1.7032 H         1 <0>         0.0556
     39 H12         3.0630   -1.8761    3.4815 H         1 <0>         0.0786
     40 H13         0.6396   -2.1750    3.6103 H         1 <0>         0.0680
     41 H14         0.4897   -1.9880    1.8466 H         1 <0>         0.0795
     42 H15         0.2351   -5.6561    2.3458 H         1 <0>         0.1035
     43 H16        -0.5776   -4.3244    3.2027 H         1 <0>         0.1055
     44 H17        -2.3426   -5.1707    1.4566 H         1 <0>         0.4082
     45 H18        -3.4228   -4.5780   -0.4792 H         1 <0>         0.3886
     46 H19         2.2503   -6.2689    2.9986 H         1 <0>         0.4080
     47 H20         2.8021   -6.9179    6.8553 H         1 <0>         0.0882
     48 H21         0.7657   -5.5451    7.1978 H         1 <0>         0.0518
     49 H22         2.1568   -4.5257    6.7576 H         1 <0>         0.0658
     50 H23         0.9152   -4.9103    5.5416 H         1 <0>         0.0555
     51 H24         1.8412   -8.5002    5.2056 H         1 <0>         0.0560
     52 H25         0.5814   -7.8661    6.2915 H         1 <0>         0.0598
     53 H26         0.7308   -7.2313    4.6353 H         1 <0>         0.0542
     54 H27         4.9450   -6.5853    6.8985 H         1 <0>         0.0785
     55 H28         4.1205   -8.0934    7.3994 H         1 <0>         0.0793
     56 H29         7.1140   -7.6388    6.9035 H         1 <0>         0.0768
     57 H30         6.3222   -8.4445    8.2994 H         1 <0>         0.0878
     58 H31         7.3078   -9.9524    6.2553 H         1 <0>         0.0815
     59 H32         5.7286  -10.3782    6.9928 H         1 <0>         0.0913
     60 H33         4.0618  -10.1004    3.8421 H         1 <0>         0.0611
     61 H34         5.2662  -11.2729    4.4278 H         1 <0>         0.0544
     62 H35         3.1843  -11.4850    5.5795 H         1 <0>         0.3790
@<TRIPOS>BOND
     1    1    2 1
     2    1   31 1
     3    1   32 1
     4    1   33 1
     5    2    3 1
     6    2   34 1
     7    2   35 1
     8    3    4 1
     9    3   36 1
    10    3   37 1
    11    4    5 1
    12    4   38 1
    13    4   39 1
    14    5    6 1
    15    5   40 1
    16    5   41 1
    17    6    7 1
    18    6    8 1
    19    6   13 1
    20    8    9 1
    21    8   42 1
    22    8   43 1
    23    9   10 2
    24    9   11 am
    25   11   12 1
    26   11   44 1
    27   12   45 1
    28   13   14 2
    29   13   15 am
    30   15   16 1
    31   15   46 1
    32   16   17 1
    33   16   18 1
    34   16   21 1
    35   18   19 1
    36   18   20 1
    37   18   47 1
    38   19   48 1
    39   19   49 1
    40   19   50 1
    41   20   51 1
    42   20   52 1
    43   20   53 1
    44   21   22 2
    45   21   23 am
    46   23   27 1
    47   23   24 1
    48   24   25 1
    49   24   54 1
    50   24   55 1
    51   25   26 1
    52   25   56 1
    53   25   57 1
    54   26   27 1
    55   26   58 1
    56   26   59 1
    57   27   28 1
    58   27   29 1
    59   29   30 1
    60   29   60 1
    61   29   61 1
    62   30   62 1
@<TRIPOS>MOLECULE
ZINC13804669
   60    63     0     0     0
SMALL
USER_CHARGES

@<TRIPOS>ATOM
      1 C1          2.7760   -8.3026   -8.8748 C.3       1 <0>         0.0223
      2 O1          3.1385   -6.9702   -9.2425 O.3       1 <0>        -0.3114
      3 C2          3.1026   -6.0285   -8.2632 C.ar      1 <0>         0.1854
      4 C3          2.7317   -6.3810   -6.9737 C.ar      1 <0>        -0.2345
      5 C4          2.6964   -5.4220   -5.9799 C.ar      1 <0>         0.0360
      6 C5          3.0299   -4.1119   -6.2696 C.ar      1 <0>        -0.7153
      7 C6          3.3994   -3.7580   -7.5542 C.ar      1 <0>         0.0138
      8 C7          3.4423   -4.7144   -8.5501 C.ar      1 <0>        -0.1769
      9 S1          2.9834   -2.8910   -5.0000 S.o2      1 <0>         2.6831
     10 O2          2.8119   -1.6379   -5.6476 O.2       1 <0>        -0.9512
     11 O3          2.0807   -3.3675   -4.0114 O.2       1 <0>        -0.9291
     12 N1          4.4821   -2.8590   -4.2964 N.pl3     1 <0>        -0.9894
     13 C8          5.5863   -2.1179   -4.9218 C.3       1 <0>         0.1089
     14 C9          6.7666   -3.0760   -5.1249 C.3       1 <0>         0.0938
     15 N2          7.0161   -3.7877   -3.8636 N.am      1 <0>        -0.6047
     16 C10         5.9119   -4.5288   -3.2381 C.3       1 <0>         0.0927
     17 C11         4.7301   -3.5661   -3.0321 C.3       1 <0>         0.1332
     18 H1          4.9738   -2.8453   -2.2515 H         1 <0>         0.1065
     19 C12         3.5020   -4.3461   -2.6395 C.2       1 <0>         0.5382
     20 O4          3.1464   -5.2940   -3.3074 O.2       1 <0>        -0.5123
     21 N3          2.7987   -3.9904   -1.5462 N.am      1 <0>        -0.5719
     22 O5          1.6447   -4.7234   -1.1773 O.3       1 <0>        -0.3016
     23 C13         8.2359   -3.7616   -3.2909 C.2       1 <0>         0.5663
     24 O6          9.1092   -3.0531   -3.7527 O.2       1 <0>        -0.5234
     25 C14         8.5117   -4.5939   -2.1021 C.ar      1 <0>        -0.1380
     26 C15         7.9037   -5.8446   -1.9680 C.ar      1 <0>        -0.0925
     27 C16         8.1618   -6.6196   -0.8599 C.ar      1 <0>        -0.1177
     28 C17         9.0300   -6.1566    0.1289 C.ar      1 <0>        -0.0138
     29 C18         9.6373   -4.9077   -0.0037 C.ar      1 <0>        -0.1170
     30 C19         9.3851   -4.1335   -1.1137 C.ar      1 <0>        -0.0554
     31 C20         9.3072   -6.9922    1.3220 C.ar      1 <0>        -0.0579
     32 C21         8.7063   -8.2430    1.4551 C.ar      1 <0>        -0.1054
     33 C22         8.9684   -9.0166    2.5674 C.ar      1 <0>        -0.1184
     34 C23         9.8256   -8.5530    3.5492 C.ar      1 <0>        -0.1125
     35 C24        10.4248   -7.3127    3.4225 C.ar      1 <0>        -0.1183
     36 C25        10.1743   -6.5326    2.3120 C.ar      1 <0>        -0.1053
     37 H2          3.4514   -8.6618   -8.0983 H         1 <0>         0.0607
     38 H3          1.7530   -8.3102   -8.4987 H         1 <0>         0.0610
     39 H4          2.8472   -8.9523   -9.7472 H         1 <0>         0.1056
     40 H5          2.4705   -7.4041   -6.7470 H         1 <0>         0.1370
     41 H6          2.4078   -5.6959   -4.9759 H         1 <0>         0.1712
     42 H7          3.6591   -2.7339   -7.7781 H         1 <0>         0.1433
     43 H8          3.7352   -4.4384   -9.5523 H         1 <0>         0.1407
     44 H9          5.2636   -1.7254   -5.8862 H         1 <0>         0.1080
     45 H10         5.8896   -1.2964   -4.2727 H         1 <0>         0.0896
     46 H11         6.5242   -3.7940   -5.9084 H         1 <0>         0.0807
     47 H12         7.6538   -2.5089   -5.4067 H         1 <0>         0.1137
     48 H13         5.6087   -5.3503   -3.8872 H         1 <0>         0.0972
     49 H14         6.2346   -4.9213   -2.2738 H         1 <0>         0.1189
     50 H15         3.0830   -3.2323   -1.0120 H         1 <0>         0.4057
     51 H16         1.2075   -4.3938   -0.3802 H         1 <0>         0.3863
     52 H17         7.2312   -6.2032   -2.7333 H         1 <0>         0.1375
     53 H18         7.6916   -7.5864   -0.7560 H         1 <0>         0.1342
     54 H19        10.3090   -4.5500    0.7627 H         1 <0>         0.1346
     55 H20         9.8588   -3.1685   -1.2183 H         1 <0>         0.1367
     56 H21         8.0366   -8.6057    0.6894 H         1 <0>         0.1267
     57 H22         8.5031   -9.9856    2.6718 H         1 <0>         0.1262
     58 H23        10.0275   -9.1617    4.4182 H         1 <0>         0.1247
     59 H24        11.0929   -6.9557    4.1923 H         1 <0>         0.1263
     60 H25        10.6459   -5.5661    2.2122 H         1 <0>         0.1270
@<TRIPOS>BOND
     1    1    2 1
     2    1   37 1
     3    1   38 1
     4    1   39 1
     5    2    3 1
     6    3    8 ar
     7    3    4 ar
     8    4    5 ar
     9    4   40 1
    10    5    6 ar
    11    5   41 1
    12    6    7 ar
    13    6    9 1
    14    7    8 ar
    15    7   42 1
    16    8   43 1
    17    9   10 2
    18    9   11 2
    19    9   12 1
    20   12   17 1
    21   12   13 1
    22   13   14 1
    23   13   44 1
    24   13   45 1
    25   14   15 1
    26   14   46 1
    27   14   47 1
    28   15   16 1
    29   15   23 am
    30   16   17 1
    31   16   48 1
    32   16   49 1
    33   17   18 1
    34   17   19 1
    35   19   20 2
    36   19   21 am
    37   21   22 1
    38   21   50 1
    39   22   51 1
    40   23   24 2
    41   23   25 1
    42   25   30 ar
    43   25   26 ar
    44   26   27 ar
    45   26   52 1
    46   27   28 ar
    47   27   53 1
    48   28   29 ar
    49   28   31 1
    50   29   30 ar
    51   29   54 1
    52   30   55 1
    53   31   36 ar
    54   31   32 ar
    55   32   33 ar
    56   32   56 1
    57   33   34 ar
    58   33   57 1
    59   34   35 ar
    60   34   58 1
    61   35   36 ar
    62   35   59 1
    63   36   60 1
@<TRIPOS>MOLECULE
ZINC13804672
   60    63     0     0     0
SMALL
USER_CHARGES

@<TRIPOS>ATOM
      1 C1          1.9760    2.9793    1.0028 C.3       1 <0>         0.0217
      2 O1          1.8028    1.5697    1.1611 O.3       1 <0>        -0.3102
      3 C2          2.0595    0.7910    0.0774 C.ar      1 <0>         0.1869
      4 C3          2.4752    1.3711   -1.1123 C.ar      1 <0>        -0.2272
      5 C4          2.7360    0.5772   -2.2124 C.ar      1 <0>         0.0272
      6 C5          2.5826   -0.7943   -2.1286 C.ar      1 <0>        -0.7139
      7 C6          2.1680   -1.3749   -0.9442 C.ar      1 <0>         0.0192
      8 C7          1.9119   -0.5860    0.1605 C.ar      1 <0>        -0.1695
      9 S1          2.9155   -1.8040   -3.5337 S.o2      1 <0>         2.6936
     10 O2          2.1724   -3.0024   -3.3580 O.2       1 <0>        -0.9519
     11 O3          2.7623   -0.9732   -4.6763 O.2       1 <0>        -0.9442
     12 N1          4.5157   -2.2252   -3.4659 N.pl3     1 <0>        -0.9739
     13 C8          5.5386   -1.3816   -4.0997 C.3       1 <0>         0.0952
     14 C9          6.3499   -2.2440   -5.0746 C.3       1 <0>         0.1007
     15 N2          6.7724   -3.4678   -4.3792 N.am      1 <0>        -0.6062
     16 C10         5.7494   -4.3114   -3.7454 C.3       1 <0>         0.0949
     17 C11         4.9387   -3.4461   -2.7657 C.3       1 <0>         0.1270
     18 H1          4.0609   -3.9973   -2.4285 H         1 <0>         0.1449
     19 C12         5.7953   -3.0788   -1.5814 C.2       1 <0>         0.5149
     20 O4          6.0317   -1.9136   -1.3421 O.2       1 <0>        -0.4939
     21 N3          6.2987   -4.0453   -0.7883 N.am      1 <0>        -0.5915
     22 O5          7.1035   -3.7002    0.3245 O.3       1 <0>        -0.3105
     23 C13         8.0747   -3.8105   -4.3240 C.2       1 <0>         0.5656
     24 O6          8.9050   -3.1395   -4.9056 O.2       1 <0>        -0.5203
     25 C14         8.4931   -5.0016   -3.5569 C.ar      1 <0>        -0.1288
     26 C15         7.8596   -6.2284   -3.7699 C.ar      1 <0>        -0.0949
     27 C16         8.2506   -7.3378   -3.0548 C.ar      1 <0>        -0.1165
     28 C17         9.2791   -7.2374   -2.1177 C.ar      1 <0>        -0.0194
     29 C18         9.9121   -6.0128   -1.9038 C.ar      1 <0>        -0.1131
     30 C19         9.5266   -4.9033   -2.6219 C.ar      1 <0>        -0.0566
     31 C20         9.6995   -8.4330   -1.3480 C.ar      1 <0>        -0.0569
     32 C21         9.0727   -9.6595   -1.5630 C.ar      1 <0>        -0.1062
     33 C22         9.4684  -10.7690   -0.8441 C.ar      1 <0>        -0.1180
     34 C23        10.4849  -10.6658    0.0884 C.ar      1 <0>        -0.1126
     35 C24        11.1106   -9.4513    0.3060 C.ar      1 <0>        -0.1178
     36 C25        10.7268   -8.3362   -0.4108 C.ar      1 <0>        -0.1063
     37 H2          3.0098    3.1899    0.7291 H         1 <0>         0.0613
     38 H3          1.3115    3.3411    0.2181 H         1 <0>         0.0613
     39 H4          1.7386    3.4821    1.9403 H         1 <0>         0.1065
     40 H5          2.5945    2.4424   -1.1784 H         1 <0>         0.1395
     41 H6          3.0597    1.0284   -3.1387 H         1 <0>         0.1425
     42 H7          2.0486   -2.4464   -0.8814 H         1 <0>         0.1429
     43 H8          1.5923   -1.0403    1.0868 H         1 <0>         0.1413
     44 H9          5.0571   -0.5690   -4.6437 H         1 <0>         0.1119
     45 H10         6.1999   -0.9724   -3.3359 H         1 <0>         0.0959
     46 H11         5.7314   -2.5060   -5.9330 H         1 <0>         0.0831
     47 H12         7.2280   -1.6912   -5.4084 H         1 <0>         0.1114
     48 H13         5.0882   -4.7206   -4.5092 H         1 <0>         0.1035
     49 H14         6.2310   -5.1240   -3.2014 H         1 <0>         0.1095
     50 H15         6.1096   -4.9772   -0.9798 H         1 <0>         0.4057
     51 H16         7.4181   -4.4601    0.8330 H         1 <0>         0.3877
     52 H17         7.0631   -6.3063   -4.4951 H         1 <0>         0.1344
     53 H18         7.7608   -8.2862   -3.2191 H         1 <0>         0.1350
     54 H19        10.7080   -5.9360   -1.1778 H         1 <0>         0.1335
     55 H20        10.0198   -3.9564   -2.4594 H         1 <0>         0.1315
     56 H21         8.2787   -9.7411   -2.2906 H         1 <0>         0.1268
     57 H22         8.9833  -11.7196   -1.0096 H         1 <0>         0.1262
     58 H23        10.7911  -11.5366    0.6490 H         1 <0>         0.1245
     59 H24        11.9034   -9.3765    1.0356 H         1 <0>         0.1260
     60 H25        11.2187   -7.3895   -0.2430 H         1 <0>         0.1264
@<TRIPOS>BOND
     1    1    2 1
     2    1   37 1
     3    1   38 1
     4    1   39 1
     5    2    3 1
     6    3    8 ar
     7    3    4 ar
     8    4    5 ar
     9    4   40 1
    10    5    6 ar
    11    5   41 1
    12    6    7 ar
    13    6    9 1
    14    7    8 ar
    15    7   42 1
    16    8   43 1
    17    9   10 2
    18    9   11 2
    19    9   12 1
    20   12   17 1
    21   12   13 1
    22   13   14 1
    23   13   44 1
    24   13   45 1
    25   14   15 1
    26   14   46 1
    27   14   47 1
    28   15   16 1
    29   15   23 am
    30   16   17 1
    31   16   48 1
    32   16   49 1
    33   17   18 1
    34   17   19 1
    35   19   20 2
    36   19   21 am
    37   21   22 1
    38   21   50 1
    39   22   51 1
    40   23   24 2
    41   23   25 1
    42   25   30 ar
    43   25   26 ar
    44   26   27 ar
    45   26   52 1
    46   27   28 ar
    47   27   53 1
    48   28   29 ar
    49   28   31 1
    50   29   30 ar
    51   29   54 1
    52   30   55 1
    53   31   36 ar
    54   31   32 ar
    55   32   33 ar
    56   32   56 1
    57   33   34 ar
    58   33   57 1
    59   34   35 ar
    60   34   58 1
    61   35   36 ar
    62   35   59 1
    63   36   60 1
@<TRIPOS>MOLECULE
ZINC13911809
   54    53     0     0     0
SMALL
USER_CHARGES
(2R,4R)-N-[(1S)-2,2-dimethyl-1-(methylcarbamoyl)propyl]-4-hydroxy-2-isobutyl-5-sulfanyl-pentanamide
@<TRIPOS>ATOM
      1 C1         -0.6180    4.6112    2.9682 C.3       1 <0>        -0.1499
      2 C2          0.1097    3.2658    3.0046 C.3       1 <0>        -0.0968
      3 C3          1.3618    3.3866    3.8755 C.3       1 <0>        -0.1461
      4 C4         -0.8182    2.1997    3.5906 C.3       1 <0>        -0.1022
      5 C5         -1.9995    1.9760    2.6444 C.3       1 <0>        -0.1011
      6 H1         -2.4934    2.9277    2.4485 H         1 <0>         0.1027
      7 C6         -2.9939    1.0088    3.2899 C.3       1 <0>        -0.1369
      8 C7         -3.5938    1.6537    4.5410 C.3       1 <0>         0.1255
      9 H2         -2.7913    1.9632    5.2106 H         1 <0>         0.1168
     10 C8         -4.4924    0.6422    5.2552 C.3       1 <0>        -0.1098
     11 S1         -5.2037    1.4068    6.7385 S.3       1 <0>        -0.2212
     12 O1         -4.3668    2.7951    4.1644 O.3       1 <0>        -0.5435
     13 C9         -1.5009    1.3924    1.3475 C.2       1 <0>         0.5237
     14 O2         -0.5676    0.6179    1.3502 O.2       1 <0>        -0.5273
     15 N1         -2.0921    1.7313    0.1847 N.am      1 <0>        -0.7135
     16 C10        -1.5435    1.2467   -1.0844 C.3       1 <0>         0.1383
     17 H3         -0.4567    1.1999   -1.0161 H         1 <0>         0.1068
     18 C11        -1.9372    2.1877   -2.1937 C.2       1 <0>         0.5156
     19 O3         -2.9386    2.8638   -2.0887 O.2       1 <0>        -0.5299
     20 N2         -1.1764    2.2780   -3.3025 N.am      1 <0>        -0.7307
     21 C12        -1.4968    3.2698   -4.3320 C.3       1 <0>         0.0849
     22 C13        -2.0966   -0.1490   -1.3792 C.3       1 <0>        -0.0713
     23 C14        -1.4422   -0.6993   -2.6480 C.3       1 <0>        -0.1536
     24 C15        -1.7898   -1.0782   -0.2030 C.3       1 <0>        -0.1302
     25 C16        -3.6109   -0.0653   -1.5815 C.3       1 <0>        -0.1432
     26 H4          0.0431    5.3706    2.5507 H         1 <0>         0.0520
     27 H5         -1.5100    4.5251    2.3477 H         1 <0>         0.0543
     28 H6         -0.9055    4.8962    3.9802 H         1 <0>         0.0582
     29 H7          0.3972    2.9807    1.9925 H         1 <0>         0.0661
     30 H8          1.8803    2.4282    3.9014 H         1 <0>         0.0550
     31 H9          2.0229    4.1461    3.4580 H         1 <0>         0.0532
     32 H10         1.0744    3.6717    4.8875 H         1 <0>         0.0554
     33 H11        -1.1875    2.5329    4.5604 H         1 <0>         0.0761
     34 H12        -0.2683    1.2665    3.7122 H         1 <0>         0.0772
     35 H13        -3.7902    0.7799    2.5817 H         1 <0>         0.0735
     36 H14        -2.4785    0.0890    3.5668 H         1 <0>         0.0849
     37 H15        -5.2949    0.3327    4.5856 H         1 <0>         0.0858
     38 H16        -3.9028   -0.2284    5.5424 H         1 <0>         0.0934
     39 H17        -5.9634    0.4344    7.2734 H         1 <0>         0.0800
     40 H18        -5.1004    2.5937    3.5675 H         1 <0>         0.3751
     41 H19        -2.8807    2.2959    0.1881 H         1 <0>         0.4096
     42 H20        -0.4166    1.6862   -3.4189 H         1 <0>         0.4046
     43 H21        -0.7767    3.1936   -5.1467 H         1 <0>         0.0787
     44 H22        -2.5001    3.0843   -4.7154 H         1 <0>         0.0629
     45 H23        -1.4521    4.2695   -3.8999 H         1 <0>         0.0618
     46 H24        -0.3744   -0.8351   -2.4766 H         1 <0>         0.0626
     47 H25        -1.8940   -1.6579   -2.9034 H         1 <0>         0.0666
     48 H26        -1.5921    0.0029   -3.4681 H         1 <0>         0.0584
     49 H27        -2.2560   -0.6861    0.7009 H         1 <0>         0.0545
     50 H28        -2.1838   -2.0725   -0.4131 H         1 <0>         0.0501
     51 H29        -0.7110   -1.1378   -0.0589 H         1 <0>         0.0698
     52 H30        -3.8294    0.5966   -2.4195 H         1 <0>         0.0573
     53 H31        -4.0049   -1.0597   -1.7916 H         1 <0>         0.0585
     54 H32        -4.0771    0.3267   -0.6776 H         1 <0>         0.0575
@<TRIPOS>BOND
     1    1    2 1
     2    1   26 1
     3    1   27 1
     4    1   28 1
     5    2    3 1
     6    2    4 1
     7    2   29 1
     8    3   30 1
     9    3   31 1
    10    3   32 1
    11    4    5 1
    12    4   33 1
    13    4   34 1
    14    5    6 1
    15    5    7 1
    16    5   13 1
    17    7    8 1
    18    7   35 1
    19    7   36 1
    20    8    9 1
    21    8   10 1
    22    8   12 1
    23   10   11 1
    24   10   37 1
    25   10   38 1
    26   11   39 1
    27   12   40 1
    28   13   14 2
    29   13   15 am
    30   15   16 1
    31   15   41 1
    32   16   17 1
    33   16   18 1
    34   16   22 1
    35   18   19 2
    36   18   20 am
    37   20   21 1
    38   20   42 1
    39   21   43 1
    40   21   44 1
    41   21   45 1
    42   22   23 1
    43   22   24 1
    44   22   25 1
    45   23   46 1
    46   23   47 1
    47   23   48 1
    48   24   49 1
    49   24   50 1
    50   24   51 1
    51   25   52 1
    52   25   53 1
    53   25   54 1
@<TRIPOS>MOLECULE
ZINC13831240
   54    55     0     0     0
SMALL
USER_CHARGES

@<TRIPOS>ATOM
      1 C1          1.6084    1.4471   -0.3501 C.3       1 <0>        -0.1491
      2 C2          1.3061    0.0344    0.1538 C.3       1 <0>        -0.0899
      3 C3          1.6377   -0.0572    1.6446 C.3       1 <0>        -0.1615
      4 C4         -0.1769   -0.2764   -0.0588 C.3       1 <0>         0.1448
      5 H1         -0.7815    0.4342    0.5048 H         1 <0>         0.1278
      6 C5         -0.4704   -1.6753    0.4185 C.2       1 <0>         0.5128
      7 O1         -0.3600   -2.6119   -0.3440 O.2       1 <0>        -0.4950
      8 N1         -0.8555   -1.8856    1.6929 N.am      1 <0>        -0.5916
      9 O2         -1.0372   -3.2068    2.1687 O.3       1 <0>        -0.3150
     10 N2         -0.4988   -0.1691   -1.4840 N.pl3     1 <0>        -0.8509
     11 O3          0.2740   -0.8727   -2.4394 O.3       1 <0>        -0.0949
     12 C6         -0.2971   -2.1180   -2.8457 C.3       1 <0>         0.0570
     13 C7         -0.6610   -2.0519   -4.3303 C.3       1 <0>        -0.1792
     14 C8          0.7159   -3.2419   -2.6184 C.3       1 <0>        -0.1501
     15 S1         -1.7666    0.7751   -1.9776 S.o2      1 <0>         2.6873
     16 O4         -2.1981    0.2545   -3.2275 O.2       1 <0>        -0.9296
     17 O5         -2.6385    0.8998   -0.8625 O.2       1 <0>        -0.9419
     18 C9         -1.1243    2.3844   -2.2971 C.ar      1 <0>        -0.6741
     19 C10        -1.0799    3.3227   -1.2818 C.ar      1 <0>        -0.0145
     20 C11        -0.5777    4.5847   -1.5264 C.ar      1 <0>        -0.1336
     21 C12        -0.1150    4.9129   -2.7991 C.ar      1 <0>         0.0227
     22 C13        -0.1621    3.9639   -3.8182 C.ar      1 <0>        -0.1334
     23 C14        -0.6610    2.7030   -3.5609 C.ar      1 <0>        -0.0031
     24 C15         0.4256    6.2684   -3.0683 C.ar      1 <0>        -0.0668
     25 C16         0.4776    7.2158   -2.0478 C.ar      1 <0>        -0.1006
     26 C17         0.9817    8.4749   -2.3037 C.ar      1 <0>        -0.1196
     27 C18         1.4345    8.7971   -3.5703 C.ar      1 <0>        -0.1077
     28 C19         1.3848    7.8607   -4.5871 C.ar      1 <0>        -0.1191
     29 C20         0.8883    6.5966   -4.3409 C.ar      1 <0>        -0.1003
     30 H2          2.6649    1.6685   -0.1986 H         1 <0>         0.0659
     31 H3          1.3722    1.5124   -1.4121 H         1 <0>         0.0667
     32 H4          1.0036    2.1668    0.2016 H         1 <0>         0.0556
     33 H5          1.9109   -0.6853   -0.3979 H         1 <0>         0.0953
     34 H6          1.0694    0.6961    2.1902 H         1 <0>         0.0619
     35 H7          1.3760   -1.0484    2.0148 H         1 <0>         0.0608
     36 H8          2.7039    0.1155    1.7909 H         1 <0>         0.0710
     37 H9         -1.0082   -1.1319    2.2840 H         1 <0>         0.4083
     38 H10        -1.3137   -3.2570    3.0940 H         1 <0>         0.3892
     39 H11        -1.1951   -2.3143   -2.2598 H         1 <0>         0.0884
     40 H12        -0.9718   -3.0391   -4.6724 H         1 <0>         0.0678
     41 H13        -1.4776   -1.3442   -4.4730 H         1 <0>         0.0852
     42 H14         0.2070   -1.7255   -4.9030 H         1 <0>         0.0601
     43 H15         0.9752   -3.2889   -1.5607 H         1 <0>         0.0819
     44 H16         0.2803   -4.1918   -2.9283 H         1 <0>         0.0627
     45 H17         1.6139   -3.0456   -3.2042 H         1 <0>         0.0511
     46 H18        -1.4392    3.0673   -0.2958 H         1 <0>         0.1407
     47 H19        -0.5439    5.3167   -0.7330 H         1 <0>         0.1371
     48 H20         0.1950    4.2131   -4.8065 H         1 <0>         0.1373
     49 H21        -0.6936    1.9651   -4.3488 H         1 <0>         0.1448
     50 H22         0.1237    6.9655   -1.0587 H         1 <0>         0.1279
     51 H23         1.0225    9.2100   -1.5135 H         1 <0>         0.1276
     52 H24         1.8279    9.7837   -3.7662 H         1 <0>         0.1261
     53 H25         1.7393    8.1177   -5.5744 H         1 <0>         0.1277
     54 H26         0.8541    5.8648   -5.1344 H         1 <0>         0.1282
@<TRIPOS>BOND
     1    1    2 1
     2    1   30 1
     3    1   31 1
     4    1   32 1
     5    2    3 1
     6    2    4 1
     7    2   33 1
     8    3   34 1
     9    3   35 1
    10    3   36 1
    11    4    5 1
    12    4    6 1
    13    4   10 1
    14    6    7 2
    15    6    8 am
    16    8    9 1
    17    8   37 1
    18    9   38 1
    19   10   11 1
    20   10   15 1
    21   11   12 1
    22   12   13 1
    23   12   14 1
    24   12   39 1
    25   13   40 1
    26   13   41 1
    27   13   42 1
    28   14   43 1
    29   14   44 1
    30   14   45 1
    31   15   16 2
    32   15   17 2
    33   15   18 1
    34   18   23 ar
    35   18   19 ar
    36   19   20 ar
    37   19   46 1
    38   20   21 ar
    39   20   47 1
    40   21   22 ar
    41   21   24 1
    42   22   23 ar
    43   22   48 1
    44   23   49 1
    45   24   29 ar
    46   24   25 ar
    47   25   26 ar
    48   25   50 1
    49   26   27 ar
    50   26   51 1
    51   27   28 ar
    52   27   52 1
    53   28   29 ar
    54   28   53 1
    55   29   54 1
@<TRIPOS>MOLECULE
ZINC03818628
   45    46     0     0     0
SMALL
USER_CHARGES

@<TRIPOS>ATOM
      1 C1          2.6021   -2.0659    1.0178 C.3       1 <0>        -0.1558
      2 C2          2.1237   -0.7034    1.5234 C.3       1 <0>         0.0227
      3 C3          3.0258    0.3957    0.9583 C.3       1 <0>        -0.1646
      4 O1          0.7783   -0.4821    1.0958 O.3       1 <0>        -0.0944
      5 N1         -0.1653   -0.4599    2.1514 N.pl3     1 <0>        -0.8427
      6 C4         -0.9067   -1.6753    2.4967 C.3       1 <0>         0.0952
      7 C5         -0.1403   -2.4533    3.5352 C.2       1 <0>         0.4931
      8 O2          0.9208   -2.0339    3.9462 O.2       1 <0>        -0.5008
      9 N2         -0.6340   -3.6152    4.0070 N.am      1 <0>        -0.5914
     10 O3          0.0862   -4.3463    4.9827 O.3       1 <0>        -0.3153
     11 S1         -0.4306    0.9399    2.9954 S.o2      1 <0>         2.6901
     12 O4         -0.1309    2.0107    2.1107 O.2       1 <0>        -0.9261
     13 O5         -1.6983    0.8019    3.6225 O.2       1 <0>        -0.9379
     14 C6          0.7659    1.0040    4.2873 C.ar      1 <0>        -0.6759
     15 C7          0.4812    0.4421    5.5187 C.ar      1 <0>         0.0080
     16 C8          1.4148    0.4895    6.5342 C.ar      1 <0>        -0.1282
     17 C9          2.6459    1.1048    6.3170 C.ar      1 <0>         0.0214
     18 C10         2.9274    1.6693    5.0746 C.ar      1 <0>        -0.1336
     19 C11         1.9886    1.6112    4.0645 C.ar      1 <0>        -0.0153
     20 C12         3.6534    1.1593    7.4051 C.ar      1 <0>        -0.0633
     21 C13         3.3739    0.5902    8.6459 C.ar      1 <0>        -0.1010
     22 C14         4.3149    0.6433    9.6542 C.ar      1 <0>        -0.1194
     23 C15         5.5332    1.2605    9.4350 C.ar      1 <0>        -0.1096
     24 C16         5.8157    1.8275    8.2054 C.ar      1 <0>        -0.1194
     25 C17         4.8845    1.7747    7.1880 C.ar      1 <0>        -0.1016
     26 H1          2.4780   -2.1160   -0.0640 H         1 <0>         0.0640
     27 H2          3.6544   -2.1978    1.2693 H         1 <0>         0.0698
     28 H3          2.0146   -2.8546    1.4878 H         1 <0>         0.0564
     29 H4          2.1666   -0.6845    2.6124 H         1 <0>         0.1051
     30 H5          2.9829    0.3767   -0.1306 H         1 <0>         0.0703
     31 H6          2.6850    1.3663    1.3186 H         1 <0>         0.0666
     32 H7          4.0520    0.2269    1.2845 H         1 <0>         0.0761
     33 H8         -1.8845   -1.4037    2.8946 H         1 <0>         0.1437
     34 H9         -1.0350   -2.2885    1.6047 H         1 <0>         0.1359
     35 H10        -1.4827   -3.9507    3.6782 H         1 <0>         0.4108
     36 H11        -0.3469   -5.1654    5.2594 H         1 <0>         0.3896
     37 H12        -0.4735   -0.0343    5.6860 H         1 <0>         0.1339
     38 H13         1.1913    0.0507    7.4954 H         1 <0>         0.1333
     39 H14         3.8799    2.1478    4.9010 H         1 <0>         0.1354
     40 H15         2.2075    2.0442    3.0996 H         1 <0>         0.1403
     41 H16         2.4227    0.1087    8.8184 H         1 <0>         0.1271
     42 H17         4.0993    0.2025   10.6164 H         1 <0>         0.1270
     43 H18         6.2664    1.3001   10.2269 H         1 <0>         0.1256
     44 H19         6.7684    2.3084    8.0397 H         1 <0>         0.1272
     45 H20         5.1078    2.2138    6.2269 H         1 <0>         0.1276
@<TRIPOS>BOND
     1    1    2 1
     2    1   26 1
     3    1   27 1
     4    1   28 1
     5    2    3 1
     6    2    4 1
     7    2   29 1
     8    3   30 1
     9    3   31 1
    10    3   32 1
    11    4    5 1
    12    5    6 1
    13    5   11 1
    14    6    7 1
    15    6   33 1
    16    6   34 1
    17    7    8 2
    18    7    9 am
    19    9   10 1
    20    9   35 1
    21   10   36 1
    22   11   12 2
    23   11   13 2
    24   11   14 1
    25   14   19 ar
    26   14   15 ar
    27   15   16 ar
    28   15   37 1
    29   16   17 ar
    30   16   38 1
    31   17   18 ar
    32   17   20 1
    33   18   19 ar
    34   18   39 1
    35   19   40 1
    36   20   25 ar
    37   20   21 ar
    38   21   22 ar
    39   21   41 1
    40   22   23 ar
    41   22   42 1
    42   23   24 ar
    43   23   43 1
    44   24   25 ar
    45   24   44 1
    46   25   45 1
@<TRIPOS>MOLECULE
ZINC03780014
   56    57     0     0     0
SMALL
USER_CHARGES

@<TRIPOS>ATOM
      1 C1         -4.9014   -2.7959   -0.2874 C.3       1 <0>        -0.1475
      2 C2         -3.5376   -2.8042   -0.9809 C.3       1 <0>        -0.0930
      3 C3         -3.1945   -1.3884   -1.4484 C.3       1 <0>        -0.1554
      4 C4         -2.4693   -3.2902    0.0006 C.3       1 <0>        -0.1061
      5 C5         -1.1289   -3.4171   -0.7262 C.3       1 <0>        -0.1051
      6 H1         -0.8997   -2.4792   -1.2321 H         1 <0>         0.1276
      7 C6         -1.2122   -4.5451   -1.7565 C.3       1 <0>        -0.1172
      8 C7         -1.5195   -3.9649   -3.1129 C.2       1 <0>         0.5263
      9 O1         -1.2277   -2.8140   -3.3604 O.2       1 <0>        -0.5111
     10 N1         -2.1186   -4.7249   -4.0510 N.am      1 <0>        -0.5983
     11 O2         -2.4073   -4.1798   -5.3255 O.3       1 <0>        -0.3184
     12 C8         -0.0436   -3.7277    0.2721 C.2       1 <0>         0.5307
     13 O3          0.4797   -4.8218    0.2782 O.2       1 <0>        -0.5430
     14 N2          0.3456   -2.7896    1.1581 N.am      1 <0>        -0.6970
     15 C9          1.4614   -3.0597    2.0683 C.3       1 <0>         0.1359
     16 H2          2.1702   -3.7318    1.5846 H         1 <0>         0.1120
     17 C10         2.1624   -1.7460    2.4196 C.3       1 <0>        -0.0434
     18 C11         2.7912   -1.1648    1.1795 C.2       1 <0>        -0.1770
     19 C12         4.0613   -1.3280    0.7767 C.2       1 <0>         0.0630
     20 N3          4.2699   -0.6520   -0.3945 N.pl3     1 <0>        -0.5937
     21 H3          5.1101   -0.6216   -0.8783 H         1 <0>         0.4168
     22 C13         3.1096   -0.0211   -0.7839 C.ar      1 <0>         0.0948
     23 C14         2.1307   -0.3199    0.1817 C.ar      1 <0>        -0.0926
     24 C15         0.8375    0.1869    0.0425 C.ar      1 <0>        -0.0773
     25 C16         0.5277    0.9690   -1.0346 C.ar      1 <0>        -0.1349
     26 C17         1.4886    1.2632   -1.9919 C.ar      1 <0>        -0.0949
     27 C18         2.7736    0.7811   -1.8692 C.ar      1 <0>        -0.1271
     28 C19         0.9385   -3.7024    3.3271 C.2       1 <0>         0.5025
     29 O4         -0.2172   -3.5389    3.6565 O.2       1 <0>        -0.5287
     30 N4          1.7552   -4.4590    4.0868 N.am      1 <0>        -0.7323
     31 C20         1.2469   -5.0838    5.3105 C.3       1 <0>         0.0869
     32 H4         -5.6625   -2.4497   -0.9866 H         1 <0>         0.0552
     33 H5         -5.1458   -3.8046    0.0457 H         1 <0>         0.0533
     34 H6         -4.8674   -2.1275    0.5729 H         1 <0>         0.0568
     35 H7         -3.5716   -3.4727   -1.8412 H         1 <0>         0.0647
     36 H8         -3.2493   -0.7032   -0.6024 H         1 <0>         0.0525
     37 H9         -2.1857   -1.3764   -1.8609 H         1 <0>         0.0736
     38 H10        -3.9042   -1.0768   -2.2148 H         1 <0>         0.0517
     39 H11        -2.3735   -2.5744    0.8171 H         1 <0>         0.0747
     40 H12        -2.7588   -4.2617    0.4012 H         1 <0>         0.0715
     41 H13        -0.2596   -5.0735   -1.7946 H         1 <0>         0.1205
     42 H14        -2.0020   -5.2401   -1.4712 H         1 <0>         0.0973
     43 H15        -2.3519   -5.6454   -3.8530 H         1 <0>         0.4079
     44 H16        -2.8369   -4.7999   -5.9305 H         1 <0>         0.3870
     45 H17        -0.1130   -1.9356    1.1932 H         1 <0>         0.4054
     46 H18         1.4341   -1.0418    2.8219 H         1 <0>         0.0844
     47 H19         2.9354   -1.9346    3.1647 H         1 <0>         0.0914
     48 H20         4.8080   -1.9070    1.2999 H         1 <0>         0.1699
     49 H21         0.0845   -0.0385    0.7831 H         1 <0>         0.1149
     50 H22        -0.4730    1.3609   -1.1419 H         1 <0>         0.1230
     51 H23         1.2283    1.8821   -2.8378 H         1 <0>         0.1250
     52 H24         3.5139    1.0147   -2.6201 H         1 <0>         0.1186
     53 H25         2.6795   -4.5898    3.8233 H         1 <0>         0.4024
     54 H26         2.0457   -5.6518    5.7873 H         1 <0>         0.0763
     55 H27         0.8932   -4.3111    5.9931 H         1 <0>         0.0605
     56 H28         0.4236   -5.7533    5.0616 H         1 <0>         0.0594
@<TRIPOS>BOND
     1    1    2 1
     2    1   32 1
     3    1   33 1
     4    1   34 1
     5    2    3 1
     6    2    4 1
     7    2   35 1
     8    3   36 1
     9    3   37 1
    10    3   38 1
    11    4    5 1
    12    4   39 1
    13    4   40 1
    14    5    6 1
    15    5    7 1
    16    5   12 1
    17    7    8 1
    18    7   41 1
    19    7   42 1
    20    8    9 2
    21    8   10 am
    22   10   11 1
    23   10   43 1
    24   11   44 1
    25   12   13 2
    26   12   14 am
    27   14   15 1
    28   14   45 1
    29   15   16 1
    30   15   17 1
    31   15   28 1
    32   17   18 1
    33   17   46 1
    34   17   47 1
    35   18   23 1
    36   18   19 2
    37   19   20 1
    38   19   48 1
    39   20   21 1
    40   20   22 1
    41   22   27 ar
    42   22   23 ar
    43   23   24 ar
    44   24   25 ar
    45   24   49 1
    46   25   26 ar
    47   25   50 1
    48   26   27 ar
    49   26   51 1
    50   27   52 1
    51   28   29 2
    52   28   30 am
    53   30   31 1
    54   30   53 1
    55   31   54 1
    56   31   55 1
    57   31   56 1
@<TRIPOS>MOLECULE
ZINC03916209
   85    87     0     0     0
SMALL
USER_CHARGES
3-[[1-[(2-methoxy-1-phenyl-ethyl)carbamoyl]-2,2-dimethyl-propyl]carbamoyl]-6-(3-methyl-4-phenyl-phenyl)-hexanoic acid
@<TRIPOS>ATOM
      1 C1         -2.9569  -11.3733   -8.7587 C.3       1 <0>        -0.1144
      2 C2         -1.8989  -10.3133   -8.5912 C.ar      1 <0>        -0.0694
      3 C3         -2.1948   -8.9923   -8.8611 C.ar      1 <0>        -0.1175
      4 C4         -1.2245   -8.0186   -8.7087 C.ar      1 <0>        -0.0584
      5 C5          0.0483   -8.3628   -8.2898 C.ar      1 <0>        -0.1205
      6 C6          0.3534   -9.6795   -8.0116 C.ar      1 <0>        -0.1004
      7 C7         -0.6203  -10.6648   -8.1640 C.ar      1 <0>        -0.0694
      8 C8         -0.2962  -12.0834   -7.8727 C.ar      1 <0>        -0.0329
      9 C9          0.2192  -12.4416   -6.6288 C.ar      1 <0>        -0.1090
     10 C10         0.5144  -13.7632   -6.3616 C.ar      1 <0>        -0.1198
     11 C11         0.3092  -14.7296   -7.3297 C.ar      1 <0>        -0.1245
     12 C12        -0.1973  -14.3788   -8.5681 C.ar      1 <0>        -0.1207
     13 C13        -0.5009  -13.0610   -8.8442 C.ar      1 <0>        -0.1067
     14 C14        -1.5532   -6.5782   -9.0059 C.3       1 <0>        -0.0813
     15 C15        -2.0707   -5.9006   -7.7355 C.3       1 <0>        -0.1106
     16 C16        -2.4044   -4.4382   -8.0372 C.3       1 <0>        -0.0947
     17 C17        -2.8247   -3.7340   -6.7456 C.3       1 <0>        -0.0845
     18 H1         -3.6312   -4.2941   -6.2722 H         1 <0>         0.0985
     19 C18        -3.3084   -2.3193   -7.0702 C.3       1 <0>        -0.1495
     20 C19        -4.5692   -2.3957   -7.8921 C.2       1 <0>         0.4642
     21 O1         -5.0940   -3.4649   -8.0954 O.co2     1 <0>        -0.6328
     22 C20        -1.6472   -3.6596   -5.8080 C.2       1 <0>         0.5259
     23 O2         -0.5773   -4.1240   -6.1402 O.2       1 <0>        -0.5367
     24 N1         -1.7832   -3.0769   -4.6003 N.am      1 <0>        -0.7184
     25 C21        -0.6385   -3.0045   -3.6889 C.3       1 <0>         0.1413
     26 H2         -0.0298   -3.9020   -3.7981 H         1 <0>         0.1037
     27 C22        -1.1328   -2.9025   -2.2689 C.2       1 <0>         0.5202
     28 O3         -2.2138   -2.4038   -2.0374 O.2       1 <0>        -0.5288
     29 N2         -0.3734   -3.3655   -1.2562 N.am      1 <0>        -0.7154
     30 C23        -0.8060   -3.1743    0.1304 C.3       1 <0>         0.1909
     31 H3         -1.8924   -3.2435    0.1849 H         1 <0>         0.1121
     32 C24        -0.3576   -1.7955    0.6190 C.3       1 <0>         0.0535
     33 O4          1.0699   -1.7450    0.6580 O.3       1 <0>        -0.3801
     34 C25         1.5953   -0.4929    1.1034 C.3       1 <0>         0.0323
     35 C26        -0.1905   -4.2401    1.0001 C.ar      1 <0>        -0.0893
     36 C27         1.1174   -4.6346    0.7887 C.ar      1 <0>        -0.0894
     37 C28         1.6834   -5.6091    1.5893 C.ar      1 <0>        -0.1204
     38 C29         0.9384   -6.1959    2.5950 C.ar      1 <0>        -0.1179
     39 C30        -0.3710   -5.8048    2.8033 C.ar      1 <0>        -0.1205
     40 C31        -0.9356   -4.8273    2.0055 C.ar      1 <0>        -0.1083
     41 C32         0.2042   -1.7726   -4.0253 C.3       1 <0>        -0.0690
     42 C33         1.4365   -1.7347   -3.1193 C.3       1 <0>        -0.1493
     43 C34         0.6483   -1.8424   -5.4878 C.3       1 <0>        -0.1318
     44 C35        -0.6296   -0.5087   -3.8054 C.3       1 <0>        -0.1435
     45 H4         -2.8598  -11.8311   -9.7432 H         1 <0>         0.0682
     46 H5         -2.8325  -12.1356   -7.9896 H         1 <0>         0.0660
     47 H6         -3.9436  -10.9199   -8.6646 H         1 <0>         0.0662
     48 H7         -3.1856   -8.7186   -9.1924 H         1 <0>         0.1248
     49 H8          0.8034   -7.5990   -8.1767 H         1 <0>         0.1233
     50 H9          1.3461   -9.9466   -7.6808 H         1 <0>         0.1189
     51 H10         0.3836  -11.6872   -5.8736 H         1 <0>         0.1225
     52 H11         0.9101  -14.0426   -5.3964 H         1 <0>         0.1214
     53 H12         0.5451  -15.7620   -7.1177 H         1 <0>         0.1195
     54 H13        -0.3552  -15.1374   -9.3205 H         1 <0>         0.1215
     55 H14        -0.8966  -12.7882   -9.8113 H         1 <0>         0.1226
     56 H15        -2.3193   -6.5326   -9.7799 H         1 <0>         0.0712
     57 H16        -0.6561   -6.0648   -9.3519 H         1 <0>         0.0708
     58 H17        -1.3046   -5.9462   -6.9615 H         1 <0>         0.0738
     59 H18        -2.9678   -6.4141   -7.3895 H         1 <0>         0.0547
     60 H19        -3.2210   -4.3931   -8.7579 H         1 <0>         0.0895
     61 H20        -1.5262   -3.9432   -8.4517 H         1 <0>         0.0574
     62 H21        -3.5110   -1.7829   -6.1431 H         1 <0>         0.0657
     63 H22        -2.5386   -1.7925   -7.6339 H         1 <0>         0.0679
     64 H23        -2.6390   -2.7054   -4.3346 H         1 <0>         0.4104
     65 H24         0.4594   -3.8252   -1.4454 H         1 <0>         0.4041
     66 H25        -0.7549   -1.6173    1.6183 H         1 <0>         0.0590
     67 H26        -0.7298   -1.0300   -0.0618 H         1 <0>         0.0603
     68 H27         2.6844   -0.5357    1.1047 H         1 <0>         0.0850
     69 H28         1.2636    0.2996    0.4326 H         1 <0>         0.0406
     70 H29         1.2385   -0.2877    2.1128 H         1 <0>         0.0388
     71 H30         1.6981   -4.1790    0.0003 H         1 <0>         0.1241
     72 H31         2.7065   -5.9144    1.4268 H         1 <0>         0.1220
     73 H32         1.3795   -6.9597    3.2183 H         1 <0>         0.1203
     74 H33        -0.9531   -6.2633    3.5891 H         1 <0>         0.1222
     75 H34        -1.9588   -4.5220    2.1680 H         1 <0>         0.1229
     76 H35         2.0322   -2.6335   -3.2784 H         1 <0>         0.0568
     77 H36         2.0351   -0.8553   -3.3567 H         1 <0>         0.0604
     78 H37         1.1200   -1.6884   -2.0773 H         1 <0>         0.0643
     79 H38        -0.2296   -1.8694   -6.1332 H         1 <0>         0.0610
     80 H39         1.2487   -0.9648   -5.7275 H         1 <0>         0.0483
     81 H40         1.2423   -2.7428   -5.6445 H         1 <0>         0.0660
     82 H41        -0.9461   -0.4590   -2.7635 H         1 <0>         0.0537
     83 H42        -0.0292    0.3689   -4.0451 H         1 <0>         0.0553
     84 H43        -1.5075   -0.5357   -4.4508 H         1 <0>         0.0635
     85 O5         -5.1092   -1.2760   -8.3984 O.co2     1 <0>        -0.7720
@<TRIPOS>BOND
     1    1    2 1
     2    1   45 1
     3    1   46 1
     4    1   47 1
     5    2    7 ar
     6    2    3 ar
     7    3    4 ar
     8    3   48 1
     9    4    5 ar
    10    4   14 1
    11    5    6 ar
    12    5   49 1
    13    6    7 ar
    14    6   50 1
    15    7    8 1
    16    8   13 ar
    17    8    9 ar
    18    9   10 ar
    19    9   51 1
    20   10   11 ar
    21   10   52 1
    22   11   12 ar
    23   11   53 1
    24   12   13 ar
    25   12   54 1
    26   13   55 1
    27   14   15 1
    28   14   56 1
    29   14   57 1
    30   15   16 1
    31   15   58 1
    32   15   59 1
    33   16   17 1
    34   16   60 1
    35   16   61 1
    36   17   18 1
    37   17   19 1
    38   17   22 1
    39   19   20 1
    40   19   62 1
    41   19   63 1
    42   20   21 2
    43   20   85 1
    44   22   23 2
    45   22   24 am
    46   24   25 1
    47   24   64 1
    48   25   26 1
    49   25   27 1
    50   25   41 1
    51   27   28 2
    52   27   29 am
    53   29   30 1
    54   29   65 1
    55   30   31 1
    56   30   32 1
    57   30   35 1
    58   32   33 1
    59   32   66 1
    60   32   67 1
    61   33   34 1
    62   34   68 1
    63   34   69 1
    64   34   70 1
    65   35   40 ar
    66   35   36 ar
    67   36   37 ar
    68   36   71 1
    69   37   38 ar
    70   37   72 1
    71   38   39 ar
    72   38   73 1
    73   39   40 ar
    74   39   74 1
    75   40   75 1
    76   41   42 1
    77   41   43 1
    78   41   44 1
    79   42   76 1
    80   42   77 1
    81   42   78 1
    82   43   79 1
    83   43   80 1
    84   43   81 1
    85   44   82 1
    86   44   83 1
    87   44   84 1
@<TRIPOS>MOLECULE
ZINC03817204
   57    60     0     0     0
SMALL
USER_CHARGES
N-[3-(hydroxycarbamoyl)tetrahydropyran-4-yl]-4-[(2-methyl-4-quinolyl)methoxy]benzamide
@<TRIPOS>ATOM
      1 C1         12.4141    3.1742   -1.7598 C.3       1 <0>        -0.1089
      2 C2         11.4831    4.0380   -0.9486 C.ar      1 <0>         0.1630
      3 C3         10.1409    3.6784   -0.8463 C.ar      1 <0>        -0.1467
      4 C4          9.2827    4.4491   -0.1149 C.ar      1 <0>        -0.0354
      5 C5          9.7948    5.5997    0.5139 C.ar      1 <0>        -0.0976
      6 C6          8.9742    6.4369    1.2871 C.ar      1 <0>        -0.1045
      7 C7          9.5085    7.5375    1.8842 C.ar      1 <0>        -0.1108
      8 C8         10.8611    7.8420    1.7429 C.ar      1 <0>        -0.1006
      9 C9         11.6858    7.0499    1.0053 C.ar      1 <0>        -0.0898
     10 C10        11.1713    5.9044    0.3731 C.ar      1 <0>         0.1347
     11 N1         11.9576    5.1075   -0.3575 N.ar      1 <0>        -0.4737
     12 C11         7.8266    4.0813    0.0102 C.3       1 <0>         0.1004
     13 O1          7.5734    2.8819   -0.7242 O.3       1 <0>        -0.3048
     14 C12         6.3008    2.4105   -0.7146 C.ar      1 <0>         0.1580
     15 C13         5.9870    1.2481   -1.4090 C.ar      1 <0>        -0.1557
     16 C14         4.6969    0.7666   -1.4017 C.ar      1 <0>        -0.0164
     17 C15         3.7027    1.4483   -0.6950 C.ar      1 <0>        -0.1704
     18 C16         4.0211    2.6197   -0.0030 C.ar      1 <0>        -0.0409
     19 C17         5.3149    3.0913   -0.0101 C.ar      1 <0>        -0.2169
     20 C18         2.3186    0.9357   -0.6846 C.2       1 <0>         0.5733
     21 O2          2.0423   -0.0810   -1.2914 O.2       1 <0>        -0.5348
     22 N2          1.3611    1.5946   -0.0024 N.am      1 <0>        -0.7140
     23 C19        -0.0127    1.0858    0.0080 C.3       1 <0>         0.1668
     24 H1          0.0021   -0.0041    0.0020 H         1 <0>         0.1056
     25 C20        -0.7571    1.5950   -1.2301 C.3       1 <0>        -0.1669
     26 C21        -0.8432    3.1225   -1.1717 C.3       1 <0>         0.0562
     27 O3         -1.4965    3.5173    0.0364 O.3       1 <0>        -0.3681
     28 C22        -0.8185    3.1096    1.2264 C.3       1 <0>         0.0694
     29 C23        -0.7333    1.5816    1.2655 C.3       1 <0>        -0.1429
     30 H2         -1.7385    1.1615    1.2989 H         1 <0>         0.1298
     31 C24         0.0338    1.1498    2.4887 C.2       1 <0>         0.5253
     32 O4          1.0563    0.5087    2.3683 O.2       1 <0>        -0.4961
     33 N3         -0.4164    1.4762    3.7165 N.am      1 <0>        -0.5966
     34 O5          0.3044    1.0705    4.8658 O.3       1 <0>        -0.3156
     35 H3         12.4256    3.5227   -2.7926 H         1 <0>         0.0833
     36 H4         13.4202    3.2348   -1.3447 H         1 <0>         0.0807
     37 H5         12.0700    2.1405   -1.7290 H         1 <0>         0.0794
     38 H6          9.7794    2.7913   -1.3451 H         1 <0>         0.1477
     39 H7          7.9245    6.2112    1.4039 H         1 <0>         0.1273
     40 H8          8.8758    8.1833    2.4750 H         1 <0>         0.1297
     41 H9         11.2610    8.7211    2.2263 H         1 <0>         0.1324
     42 H10        12.7318    7.3001    0.9062 H         1 <0>         0.1378
     43 H11         7.2124    4.8883   -0.3891 H         1 <0>         0.0868
     44 H12         7.5808    3.9231    1.0603 H         1 <0>         0.0868
     45 H13         6.7560    0.7216   -1.9546 H         1 <0>         0.1410
     46 H14         4.4539   -0.1369   -1.9412 H         1 <0>         0.1457
     47 H15         3.2545    3.1519    0.5407 H         1 <0>         0.1241
     48 H16         5.5628    3.9938    0.5288 H         1 <0>         0.1337
     49 H17         1.5815    2.4058    0.4817 H         1 <0>         0.3938
     50 H18        -0.2187    1.2932   -2.1285 H         1 <0>         0.0910
     51 H19        -1.7628    1.1751   -1.2488 H         1 <0>         0.0883
     52 H20        -1.4106    3.4876   -2.0278 H         1 <0>         0.1034
     53 H21         0.1620    3.5433   -1.1956 H         1 <0>         0.0546
     54 H22        -1.3680    3.4655    2.0979 H         1 <0>         0.1044
     55 H23         0.1872    3.5301    1.2340 H         1 <0>         0.0563
     56 H24        -1.2341    1.9889    3.8127 H         1 <0>         0.4078
     57 H25        -0.0958    1.3509    5.7003 H         1 <0>         0.3895
@<TRIPOS>BOND
     1    1    2 1
     2    1   35 1
     3    1   36 1
     4    1   37 1
     5    2   11 ar
     6    2    3 ar
     7    3    4 ar
     8    3   38 1
     9    4    5 ar
    10    4   12 1
    11    5   10 ar
    12    5    6 ar
    13    6    7 ar
    14    6   39 1
    15    7    8 ar
    16    7   40 1
    17    8    9 ar
    18    8   41 1
    19    9   10 ar
    20    9   42 1
    21   10   11 ar
    22   12   13 1
    23   12   43 1
    24   12   44 1
    25   13   14 1
    26   14   19 ar
    27   14   15 ar
    28   15   16 ar
    29   15   45 1
    30   16   17 ar
    31   16   46 1
    32   17   18 ar
    33   17   20 1
    34   18   19 ar
    35   18   47 1
    36   19   48 1
    37   20   21 2
    38   20   22 am
    39   22   23 1
    40   22   49 1
    41   23   24 1
    42   23   29 1
    43   23   25 1
    44   25   26 1
    45   25   50 1
    46   25   51 1
    47   26   27 1
    48   26   52 1
    49   26   53 1
    50   27   28 1
    51   28   29 1
    52   28   54 1
    53   28   55 1
    54   29   30 1
    55   29   31 1
    56   31   32 2
    57   31   33 am
    58   33   34 1
    59   33   56 1
    60   34   57 1
@<TRIPOS>MOLECULE
ZINC00538656
   46    48     0     0     0
SMALL
USER_CHARGES
4-[4-(4-chlorophenyl)phenyl]-4-oxo-2-(phenylsulfanylmethyl)butanoic acid
@<TRIPOS>ATOM
      1 C1          1.1201   -0.4538   -7.4017 C.ar      1 <0>        -0.1478
      2 C2         -0.0171    0.2963   -7.6403 C.ar      1 <0>        -0.1014
      3 C3         -0.6896    0.8871   -6.5889 C.ar      1 <0>        -0.1105
      4 C4         -0.2223    0.7275   -5.2899 C.ar      1 <0>        -0.0980
      5 C5          0.9243   -0.0218   -5.0546 C.ar      1 <0>        -0.1474
      6 C6          1.5879   -0.6151   -6.1102 C.ar      1 <0>        -0.1005
      7 S1         -1.0772    1.4794   -3.9451 S.3       1 <0>        -0.0149
      8 C7         -0.1114    0.9981   -2.4870 C.3       1 <0>        -0.0921
      9 C8         -0.7527    1.5927   -1.2315 C.3       1 <0>        -0.1170
     10 H1         -1.7985    1.2898   -1.1795 H         1 <0>         0.0844
     11 C9         -0.0127    1.0858    0.0080 C.3       1 <0>        -0.1288
     12 C10        -0.7181    1.5718    1.2479 C.2       1 <0>         0.3986
     13 O1         -1.7145    2.2562    1.1498 O.2       1 <0>        -0.4246
     14 C11        -0.1984    1.2164    2.5760 C.ar      1 <0>        -0.1404
     15 C12         0.9485    0.4217    2.6905 C.ar      1 <0>        -0.0740
     16 C13         1.4347    0.0964    3.9303 C.ar      1 <0>        -0.1194
     17 C14         0.7808    0.5475    5.0780 C.ar      1 <0>        -0.0362
     18 C15        -0.3664    1.3347    4.9664 C.ar      1 <0>        -0.1182
     19 C16        -0.8529    1.6674    3.7287 C.ar      1 <0>        -0.0627
     20 C17         1.3051    0.1895    6.4173 C.ar      1 <0>        -0.0353
     21 C18         0.6576    0.6427    7.5662 C.ar      1 <0>        -0.0980
     22 C19         1.1465    0.3018    8.8104 C.ar      1 <0>        -0.1072
     23 C20         2.2846   -0.4792    8.9196 C.ar      1 <0>        -0.0369
     24 C21         2.9347   -0.9271    7.7819 C.ar      1 <0>        -0.1075
     25 C22         2.4509   -0.5968    6.5329 C.ar      1 <0>        -0.0981
     26 Cl1         2.8991   -0.8980   10.4883 Cl        1 <0>        -0.0729
     27 C23        -0.6673    3.0962   -1.2877 C.2       1 <0>         0.4712
     28 O2         -0.0754    3.7004   -0.4249 O.co2     1 <0>        -0.6348
     29 H2          1.6439   -0.9150   -8.2259 H         1 <0>         0.1162
     30 H3         -0.3797    0.4199   -8.6500 H         1 <0>         0.1203
     31 H4         -1.5776    1.4727   -6.7759 H         1 <0>         0.1244
     32 H5          1.2929   -0.1442   -4.0469 H         1 <0>         0.1184
     33 H6          2.4760   -1.2019   -5.9277 H         1 <0>         0.1172
     34 H7          0.9076    1.3722   -2.5864 H         1 <0>         0.0804
     35 H8         -0.0932   -0.0887   -2.4058 H         1 <0>         0.0761
     36 H9          0.0008    0.0859    0.0024 H         1 <0>         0.0782
     37 H10         1.0099    1.4631    0.0003 H         1 <0>         0.0999
     38 H11         1.4522    0.0687    1.8028 H         1 <0>         0.1352
     39 H12         2.3217   -0.5133    4.0192 H         1 <0>         0.1297
     40 H13        -0.8709    1.6823    5.8558 H         1 <0>         0.1294
     41 H14        -1.7406    2.2765    3.6428 H         1 <0>         0.1369
     42 H15        -0.2274    1.2559    7.4821 H         1 <0>         0.1373
     43 H16         0.6434    0.6489    9.7008 H         1 <0>         0.1354
     44 H17         3.8223   -1.5357    7.8726 H         1 <0>         0.1354
     45 H18         2.9589   -0.9463    5.6462 H         1 <0>         0.1374
     46 O3         -1.2489    3.7642   -2.2963 O.co2     1 <0>        -0.7375
@<TRIPOS>BOND
     1    1    6 ar
     2    1    2 ar
     3    1   29 1
     4    2    3 ar
     5    2   30 1
     6    3    4 ar
     7    3   31 1
     8    4    5 ar
     9    4    7 1
    10    5    6 ar
    11    5   32 1
    12    6   33 1
    13    7    8 1
    14    8    9 1
    15    8   34 1
    16    8   35 1
    17    9   10 1
    18    9   11 1
    19    9   27 1
    20   11   12 1
    21   11   36 1
    22   11   37 1
    23   12   13 2
    24   12   14 1
    25   14   19 ar
    26   14   15 ar
    27   15   16 ar
    28   15   38 1
    29   16   17 ar
    30   16   39 1
    31   17   18 ar
    32   17   20 1
    33   18   19 ar
    34   18   40 1
    35   19   41 1
    36   20   25 ar
    37   20   21 ar
    38   21   22 ar
    39   21   42 1
    40   22   23 ar
    41   22   43 1
    42   23   24 ar
    43   23   26 1
    44   24   25 ar
    45   24   44 1
    46   25   45 1
    47   27   28 2
    48   27   46 1
@<TRIPOS>MOLECULE
ZINC03789788
   63    64     0     0     0
SMALL
USER_CHARGES
2-[1-(hydroxycarbamoyl)-2-(2-thienylsulfanyl)ethyl]-4-methyl-N-[1-(methylcarbamoyl)-2-phenyl-ethyl]-pentanamide
@<TRIPOS>ATOM
      1 C1          3.1221    2.9557    1.7202 C.3       1 <0>        -0.1431
      2 C2          2.5102    1.7687    0.9736 C.3       1 <0>        -0.1379
      3 C3          2.7420    0.4870    1.7763 C.3       1 <0>        -0.1394
      4 C4          1.0073    1.9961    0.7987 C.3       1 <0>        -0.1065
      5 C5          0.4069    0.8410   -0.0051 C.3       1 <0>        -0.0885
      6 H1          0.8505   -0.0991    0.3229 H         1 <0>         0.1149
      7 C6          0.6967    1.0500   -1.4928 C.3       1 <0>        -0.0588
      8 H2          0.1623    1.9316   -1.8467 H         1 <0>         0.1151
      9 C7          0.2335   -0.1774   -2.2801 C.3       1 <0>        -0.1124
     10 S1          0.4407    0.1297   -4.0558 S.3       1 <0>        -0.0144
     11 C8         -0.1286   -1.3552   -4.8145 C.2       1 <0>        -0.1714
     12 C9         -0.1962   -1.6718   -6.1386 C.2       1 <0>        -0.1349
     13 C10        -0.6846   -2.9141   -6.5020 C.2       1 <0>        -0.1423
     14 C11        -1.0794   -3.7751   -5.5344 C.2       1 <0>        -0.1732
     15 S2         -0.7596   -2.8391   -4.0484 S.3       1 <0>         0.0560
     16 C12         2.1774    1.2461   -1.6934 C.2       1 <0>         0.5371
     17 O1          2.9647    0.4671   -1.1991 O.2       1 <0>        -0.4942
     18 N1          2.6267    2.2870   -2.4221 N.am      1 <0>        -0.5886
     19 O2          4.0180    2.4712   -2.6105 O.3       1 <0>        -0.3117
     20 C13        -1.0833    0.7970    0.2150 C.2       1 <0>         0.5303
     21 O3         -1.8280    1.3539   -0.5637 O.2       1 <0>        -0.5294
     22 N2         -1.5885    0.1389    1.2771 N.am      1 <0>        -0.7016
     23 C14        -3.0392    0.0187    1.4421 C.3       1 <0>         0.1370
     24 H3         -3.5070   -0.1037    0.4652 H         1 <0>         0.1156
     25 C15        -3.3542   -1.1982    2.3144 C.3       1 <0>        -0.0835
     26 C16        -2.9289   -2.4537    1.5975 C.ar      1 <0>        -0.0870
     27 C17        -3.8193   -3.1126    0.7704 C.ar      1 <0>        -0.1132
     28 C18        -3.4277   -4.2617    0.1091 C.ar      1 <0>        -0.1147
     29 C19        -2.1491   -4.7576    0.2830 C.ar      1 <0>        -0.1168
     30 C20        -1.2605   -4.1016    1.1142 C.ar      1 <0>        -0.1145
     31 C21        -1.6504   -2.9497    1.7715 C.ar      1 <0>        -0.1117
     32 C22        -3.5745    1.2627    2.1031 C.2       1 <0>         0.5023
     33 O4         -2.8083    2.1045    2.5217 O.2       1 <0>        -0.5232
     34 N3         -4.9046    1.4397    2.2291 N.am      1 <0>        -0.7333
     35 C23        -5.4250    2.6490    2.8717 C.3       1 <0>         0.0870
     36 H4          2.6525    3.0503    2.6993 H         1 <0>         0.0504
     37 H5          4.1928    2.7937    1.8448 H         1 <0>         0.0547
     38 H6          2.9569    3.8689    1.1484 H         1 <0>         0.0490
     39 H7          2.9797    1.6742   -0.0055 H         1 <0>         0.1157
     40 H8          2.1362    0.5109    2.6821 H         1 <0>         0.0464
     41 H9          2.4595   -0.3757    1.1729 H         1 <0>         0.0583
     42 H10         3.7956    0.4125    2.0457 H         1 <0>         0.0537
     43 H11         0.8410    2.9333    0.2676 H         1 <0>         0.0699
     44 H12         0.5307    2.0437    1.7778 H         1 <0>         0.0792
     45 H13         0.8298   -1.0421   -1.9888 H         1 <0>         0.1037
     46 H14        -0.8173   -0.3716   -2.0651 H         1 <0>         0.1097
     47 H15         0.1259   -0.9660   -6.8900 H         1 <0>         0.1365
     48 H16        -0.7498   -3.1935   -7.5431 H         1 <0>         0.1390
     49 H17        -1.4800   -4.7730   -5.6354 H         1 <0>         0.1882
     50 H18         1.9971    2.9101   -2.8174 H         1 <0>         0.4091
     51 H19         4.2434    3.2439   -3.1465 H         1 <0>         0.3897
     52 H20        -0.9916   -0.2550    1.9324 H         1 <0>         0.4059
     53 H21        -2.8146   -1.1182    3.2581 H         1 <0>         0.0879
     54 H22        -4.4256   -1.2370    2.5106 H         1 <0>         0.0954
     55 H23        -4.8196   -2.7277    0.6380 H         1 <0>         0.1221
     56 H24        -4.1221   -4.7744   -0.5400 H         1 <0>         0.1223
     57 H25        -1.8446   -5.6577   -0.2302 H         1 <0>         0.1213
     58 H26        -0.2617   -4.4892    1.2504 H         1 <0>         0.1233
     59 H27        -0.9562   -2.4373    2.4211 H         1 <0>         0.1193
     60 H28        -5.5174    0.7664    1.8943 H         1 <0>         0.4018
     61 H29        -6.5144    2.6151    2.8818 H         1 <0>         0.0772
     62 H30        -5.0537    2.7052    3.8950 H         1 <0>         0.0606
     63 H31        -5.0940    3.5267    2.3165 H         1 <0>         0.0603
@<TRIPOS>BOND
     1    1    2 1
     2    1   36 1
     3    1   37 1
     4    1   38 1
     5    2    3 1
     6    2    4 1
     7    2   39 1
     8    3   40 1
     9    3   41 1
    10    3   42 1
    11    4    5 1
    12    4   43 1
    13    4   44 1
    14    5    6 1
    15    5    7 1
    16    5   20 1
    17    7    8 1
    18    7    9 1
    19    7   16 1
    20    9   10 1
    21    9   45 1
    22    9   46 1
    23   10   11 1
    24   11   15 1
    25   11   12 2
    26   12   13 1
    27   12   47 1
    28   13   14 2
    29   13   48 1
    30   14   15 1
    31   14   49 1
    32   16   17 2
    33   16   18 am
    34   18   19 1
    35   18   50 1
    36   19   51 1
    37   20   21 2
    38   20   22 am
    39   22   23 1
    40   22   52 1
    41   23   24 1
    42   23   25 1
    43   23   32 1
    44   25   26 1
    45   25   53 1
    46   25   54 1
    47   26   31 ar
    48   26   27 ar
    49   27   28 ar
    50   27   55 1
    51   28   29 ar
    52   28   56 1
    53   29   30 ar
    54   29   57 1
    55   30   31 ar
    56   30   58 1
    57   31   59 1
    58   32   33 2
    59   32   34 am
    60   34   35 1
    61   34   60 1
    62   35   61 1
    63   35   62 1
    64   35   63 1
@<TRIPOS>MOLECULE
ZINC00080832
   42    44     0     0     0
SMALL
USER_CHARGES
2-benzyloxycarbonylamino-3-(1H-indol-3-yl)propanoic acid
@<TRIPOS>ATOM
      1 C1         -5.8191    3.6164    0.0493 C.ar      1 <0>        -0.1146
      2 C2         -5.2710    3.2094   -1.1527 C.ar      1 <0>        -0.1259
      3 C3         -4.1632    2.3826   -1.1624 C.ar      1 <0>        -0.0942
      4 C4         -3.6038    1.9626    0.0298 C.ar      1 <0>        -0.0893
      5 C5         -4.1553    2.3650    1.2318 C.ar      1 <0>        -0.0929
      6 C6         -5.2599    3.1960    1.2416 C.ar      1 <0>        -0.1245
      7 C7         -2.3963    1.0609    0.0192 C.3       1 <0>         0.1281
      8 O1         -1.1894    1.8682    0.0178 O.3       1 <0>        -0.3696
      9 C8         -0.0144    1.2109    0.0087 C.2       1 <0>         0.6526
     10 O2          0.0021   -0.0041    0.0020 O.2       1 <0>        -0.5790
     11 N1          1.1435    1.9006    0.0013 N.am      1 <0>        -0.6712
     12 H1          1.1303    2.8705    0.0067 H         1 <0>         0.3952
     13 C9          2.4220    1.1855   -0.0147 C.3       1 <0>         0.1264
     14 H2          2.3225    0.2766   -0.6081 H         1 <0>         0.0907
     15 C10         3.4995    2.0807   -0.6298 C.3       1 <0>        -0.0394
     16 C11         3.1701    2.3411   -2.0772 C.2       1 <0>        -0.1538
     17 C12         3.6343    1.6601   -3.1367 C.2       1 <0>         0.0472
     18 N2          3.1164    2.1825   -4.2905 N.pl3     1 <0>        -0.5980
     19 H3          3.3066    1.8567   -5.1842 H         1 <0>         0.4123
     20 C13         2.2851    3.2393   -3.9941 C.ar      1 <0>         0.0938
     21 C14         2.2777    3.3814   -2.5942 C.ar      1 <0>        -0.0945
     22 C15         1.5163    4.3897   -2.0006 C.ar      1 <0>        -0.0659
     23 C16         0.7728    5.2281   -2.7829 C.ar      1 <0>        -0.1481
     24 C17         0.7723    5.0884   -4.1638 C.ar      1 <0>        -0.1030
     25 C18         1.5207    4.1035   -4.7708 C.ar      1 <0>        -0.1344
     26 C19         2.8134    0.8246    1.3951 C.2       1 <0>         0.4574
     27 O3          2.0979    1.1331    2.3185 O.co2     1 <0>        -0.6258
     28 H4         -6.6844    4.2626    0.0569 H         1 <0>         0.1211
     29 H5         -5.7081    3.5375   -2.0842 H         1 <0>         0.1225
     30 H6         -3.7350    2.0646   -2.1015 H         1 <0>         0.1235
     31 H7         -3.7208    2.0333    2.1632 H         1 <0>         0.1266
     32 H8         -5.6884    3.5137    2.1806 H         1 <0>         0.1236
     33 H9         -2.4169    0.4366   -0.8741 H         1 <0>         0.0745
     34 H10        -2.4084    0.4270    0.9058 H         1 <0>         0.0779
     35 H11         3.5375    3.0269   -0.0900 H         1 <0>         0.0712
     36 H12         4.4673    1.5841   -0.5611 H         1 <0>         0.1000
     37 H13         4.3159    0.8239   -3.0860 H         1 <0>         0.1718
     38 H14         1.5116    4.5041   -0.9267 H         1 <0>         0.1181
     39 H15         0.1807    6.0053   -2.3229 H         1 <0>         0.1194
     40 H16         0.1791    5.7582   -4.7686 H         1 <0>         0.1200
     41 H17         1.5134    4.0026   -5.8460 H         1 <0>         0.1144
     42 O4          3.9570    0.1604    1.6250 O.co2     1 <0>        -0.7643
@<TRIPOS>BOND
     1    1    6 ar
     2    1    2 ar
     3    1   28 1
     4    2    3 ar
     5    2   29 1
     6    3    4 ar
     7    3   30 1
     8    4    5 ar
     9    4    7 1
    10    5    6 ar
    11    5   31 1
    12    6   32 1
    13    7    8 1
    14    7   33 1
    15    7   34 1
    16    8    9 1
    17    9   10 2
    18    9   11 am
    19   11   12 1
    20   11   13 1
    21   13   14 1
    22   13   15 1
    23   13   26 1
    24   15   16 1
    25   15   35 1
    26   15   36 1
    27   16   21 1
    28   16   17 2
    29   17   18 1
    30   17   37 1
    31   18   19 1
    32   18   20 1
    33   20   25 ar
    34   20   21 ar
    35   21   22 ar
    36   22   23 ar
    37   22   38 1
    38   23   24 ar
    39   23   39 1
    40   24   25 ar
    41   24   40 1
    42   25   41 1
    43   26   27 2
    44   26   42 1
@<TRIPOS>MOLECULE
ZINC00578599
   41    42     0     0     0
SMALL
USER_CHARGES

@<TRIPOS>ATOM
      1 C1         -0.0187    1.5258    0.0104 C.3       1 <0>        -0.1455
      2 C2          0.0021   -0.0041    0.0020 C.3       1 <0>        -0.0797
      3 C3          0.7421   -0.5109    1.2415 C.3       1 <0>        -0.1453
      4 C4         -1.4333   -0.5336    0.0129 C.3       1 <0>         0.0800
      5 H1         -1.9435   -0.1821    0.9097 H         1 <0>         0.0809
      6 C5         -2.1622   -0.0344   -1.2080 C.2       1 <0>         0.4843
      7 O1         -2.4620   -0.8108   -2.0990 O.co2     1 <0>        -0.6780
      8 O2         -2.4521    1.1459   -1.3048 O.co2     1 <0>        -0.6890
      9 N1         -1.4134   -1.9985    0.0048 N.pl3     1 <0>        -1.0818
     10 S1         -2.5690   -2.8468    0.8339 S.o2      1 <0>         2.6971
     11 O3         -2.2983   -4.2242    0.6130 O.2       1 <0>        -0.9763
     12 O4         -2.6312   -2.2820    2.1364 O.2       1 <0>        -0.9696
     13 C6         -4.1170   -2.5080    0.0637 C.ar      1 <0>        -0.6484
     14 C7         -4.8801   -1.4368    0.4922 C.ar      1 <0>        -0.0083
     15 C8         -6.0936   -1.1670   -0.1073 C.ar      1 <0>        -0.1252
     16 C9         -6.5496   -1.9758   -1.1463 C.ar      1 <0>        -0.0035
     17 C10        -5.7766   -3.0533   -1.5743 C.ar      1 <0>        -0.1287
     18 C11        -4.5621   -3.3107   -0.9711 C.ar      1 <0>         0.0010
     19 C12        -7.8537   -1.6910   -1.7943 C.ar      1 <0>        -0.0368
     20 C13        -8.6240   -0.6103   -1.3697 C.ar      1 <0>        -0.0935
     21 C14        -9.8359   -0.3493   -1.9758 C.ar      1 <0>        -0.1081
     22 C15       -10.2870   -1.1593   -3.0039 C.ar      1 <0>        -0.0354
     23 C16        -9.5255   -2.2345   -3.4290 C.ar      1 <0>        -0.1089
     24 C17        -8.3093   -2.5000   -2.8334 C.ar      1 <0>        -0.0944
     25 Cl1       -11.8127   -0.8261   -3.7621 Cl        1 <0>        -0.0753
     26 H2          1.0039    1.9031    0.0027 H         1 <0>         0.0394
     27 H3         -0.5459    1.8868   -0.8726 H         1 <0>         0.0871
     28 H4         -0.5289    1.8773    0.9072 H         1 <0>         0.0484
     29 H5          0.5123   -0.3556   -0.8948 H         1 <0>         0.0671
     30 H6          0.7568   -1.6008    1.2356 H         1 <0>         0.0506
     31 H7          1.7647   -0.1336    1.2338 H         1 <0>         0.0485
     32 H8          0.2319   -0.1594    2.1383 H         1 <0>         0.0540
     33 H9         -0.7234   -2.4715   -0.4862 H         1 <0>         0.4129
     34 H10        -4.5257   -0.8106    1.2976 H         1 <0>         0.1363
     35 H11        -6.6890   -0.3309    0.2286 H         1 <0>         0.1302
     36 H12        -6.1252   -3.6833   -2.3792 H         1 <0>         0.1297
     37 H13        -3.9602   -4.1429   -1.3050 H         1 <0>         0.1373
     38 H14        -8.2733    0.0218   -0.5673 H         1 <0>         0.1384
     39 H15       -10.4337    0.4881   -1.6474 H         1 <0>         0.1356
     40 H16        -9.8817   -2.8638   -4.2312 H         1 <0>         0.1352
     41 H17        -7.7138   -3.3361   -3.1690 H         1 <0>         0.1378
@<TRIPOS>BOND
     1    1    2 1
     2    1   26 1
     3    1   27 1
     4    1   28 1
     5    2    3 1
     6    2    4 1
     7    2   29 1
     8    3   30 1
     9    3   31 1
    10    3   32 1
    11    4    5 1
    12    4    6 1
    13    4    9 1
    14    6    7 2
    15    6    8 1
    16    9   10 1
    17    9   33 1
    18   10   11 2
    19   10   12 2
    20   10   13 1
    21   13   18 ar
    22   13   14 ar
    23   14   15 ar
    24   14   34 1
    25   15   16 ar
    26   15   35 1
    27   16   17 ar
    28   16   19 1
    29   17   18 ar
    30   17   36 1
    31   18   37 1
    32   19   24 ar
    33   19   20 ar
    34   20   21 ar
    35   20   38 1
    36   21   22 ar
    37   21   39 1
    38   22   23 ar
    39   22   25 1
    40   23   24 ar
    41   23   40 1
    42   24   41 1
@<TRIPOS>MOLECULE
ZINC00836095
   67    69     0     0     0
SMALL
USER_CHARGES
3-(cyclopentylmethyl)-4-oxo-4-(1-piperidyl)-2-[(3,4,4-trimethyl-2,5-dioxo-imidazolidin-1-yl)methyl]butanehydroxamic acid
@<TRIPOS>ATOM
      1 C1         10.4671   -2.6652    0.2435 C.3       1 <0>        -0.1431
      2 C2         10.1863   -1.1655    0.1302 C.3       1 <0>         0.1170
      3 C3          9.1803   -0.7266    1.1756 C.2       1 <0>         0.5224
      4 O1          9.3030   -0.7855    2.3803 O.2       1 <0>        -0.4408
      5 N1          8.1202   -0.2588    0.4873 N.am      1 <0>        -0.5835
      6 C4          8.3177   -0.3335   -0.8338 C.2       1 <0>         0.6957
      7 O2          7.5049    0.0322   -1.6602 O.2       1 <0>        -0.5329
      8 N2          9.5164   -0.8586   -1.1454 N.am      1 <0>        -0.6190
      9 C5         10.0510   -1.0823   -2.4909 C.3       1 <0>         0.1148
     10 C6          6.9044    0.2719    1.1090 C.3       1 <0>         0.1265
     11 C7          5.8483   -0.8324    1.1880 C.3       1 <0>        -0.0990
     12 H1          5.6684   -1.2350    0.1912 H         1 <0>         0.1108
     13 C8          4.5468   -0.2543    1.7470 C.3       1 <0>        -0.0966
     14 H2          4.7267    0.1484    2.7438 H         1 <0>         0.1117
     15 C9          4.0487    0.8630    0.8280 C.3       1 <0>        -0.1048
     16 C10         2.8463    1.5555    1.4725 C.3       1 <0>        -0.0926
     17 C11         1.6306    0.6059    1.4794 C.3       1 <0>        -0.1404
     18 C12         0.4217    1.5356    1.2046 C.3       1 <0>        -0.1230
     19 C13         0.9905    2.5414    0.1732 C.3       1 <0>        -0.1248
     20 C14         2.4395    2.7859    0.6427 C.3       1 <0>        -0.1191
     21 C15         3.5066   -1.3419    1.8248 C.2       1 <0>         0.5322
     22 O3          3.1445   -1.9080    0.8152 O.2       1 <0>        -0.5404
     23 N3          2.9786   -1.6855    3.0163 N.am      1 <0>        -0.6010
     24 C16         1.8886   -2.6674    3.0969 C.3       1 <0>         0.1107
     25 C17         0.7262   -2.0504    3.8811 C.3       1 <0>        -0.1358
     26 C18         1.2346   -1.5627    5.2397 C.3       1 <0>        -0.1203
     27 C19         2.3016   -0.4857    5.0304 C.3       1 <0>        -0.1389
     28 C20         3.4818   -1.0850    4.2592 C.3       1 <0>         0.1069
     29 C21         6.3389   -1.9328    2.0932 C.2       1 <0>         0.5300
     30 O4          6.2580   -1.8091    3.2970 O.2       1 <0>        -0.4994
     31 N4          6.8674   -3.0545    1.5651 N.am      1 <0>        -0.5932
     32 O5          7.2305   -4.1317    2.4095 O.3       1 <0>        -0.3102
     33 C22        11.4835   -0.3651    0.2632 C.3       1 <0>        -0.1464
     34 H3         11.1119   -2.9773   -0.5780 H         1 <0>         0.0822
     35 H4         10.9622   -2.8715    1.1925 H         1 <0>         0.0863
     36 H5          9.5273   -3.2154    0.1969 H         1 <0>         0.0598
     37 H6          9.3213   -0.7542   -3.2310 H         1 <0>         0.0928
     38 H7         10.9737   -0.5153   -2.6141 H         1 <0>         0.0700
     39 H8         10.2559   -2.1440   -2.6285 H         1 <0>         0.0693
     40 H9          6.5216    1.0987    0.5108 H         1 <0>         0.1195
     41 H10         7.1351    0.6265    2.1136 H         1 <0>         0.1111
     42 H11         4.8467    1.5893    0.6737 H         1 <0>         0.0797
     43 H12         3.7526    0.4392   -0.1316 H         1 <0>         0.0839
     44 H13         3.0909    1.8564    2.4912 H         1 <0>         0.0725
     45 H14         1.7249   -0.1403    0.6904 H         1 <0>         0.0776
     46 H15         1.5288    0.1236    2.4516 H         1 <0>         0.0730
     47 H16         0.1149    2.0488    2.1160 H         1 <0>         0.0631
     48 H17        -0.4112    0.9757    0.7793 H         1 <0>         0.0629
     49 H18         0.4213    3.4707    0.1927 H         1 <0>         0.0631
     50 H19         0.9816    2.1083   -0.8270 H         1 <0>         0.0646
     51 H20         2.4859    3.6838    1.2589 H         1 <0>         0.0641
     52 H21         3.0988    2.8896   -0.2191 H         1 <0>         0.0664
     53 H22         2.2405   -3.5628    3.6093 H         1 <0>         0.0654
     54 H23         1.5549   -2.9262    2.0921 H         1 <0>         0.0910
     55 H24        -0.0503   -2.8005    4.0311 H         1 <0>         0.0749
     56 H25         0.3166   -1.2088    3.3225 H         1 <0>         0.0695
     57 H26         0.4044   -1.1454    5.8096 H         1 <0>         0.0660
     58 H27         1.6665   -2.4001    5.7877 H         1 <0>         0.0645
     59 H28         1.8771    0.3411    4.4609 H         1 <0>         0.0688
     60 H29         2.6464   -0.1222    5.9984 H         1 <0>         0.0765
     61 H30         3.9637   -1.8514    4.8663 H         1 <0>         0.0748
     62 H31         4.1994   -0.2997    4.0212 H         1 <0>         0.0911
     63 H32         6.9991   -3.1239    0.6066 H         1 <0>         0.4019
     64 H33         7.6006   -4.8918    1.9401 H         1 <0>         0.3856
     65 H34        11.2577    0.7008    0.2304 H         1 <0>         0.0674
     66 H35        11.9633   -0.6058    1.2119 H         1 <0>         0.0855
     67 H36        12.1535   -0.6200   -0.5579 H         1 <0>         0.0814
@<TRIPOS>BOND
     1    1    2 1
     2    1   34 1
     3    1   35 1
     4    1   36 1
     5    2    8 1
     6    2    3 1
     7    2   33 1
     8    3    4 2
     9    3    5 am
    10    5    6 am
    11    5   10 1
    12    6    7 2
    13    6    8 am
    14    8    9 1
    15    9   37 1
    16    9   38 1
    17    9   39 1
    18   10   11 1
    19   10   40 1
    20   10   41 1
    21   11   12 1
    22   11   13 1
    23   11   29 1
    24   13   14 1
    25   13   15 1
    26   13   21 1
    27   15   16 1
    28   15   42 1
    29   15   43 1
    30   16   20 1
    31   16   17 1
    32   16   44 1
    33   17   18 1
    34   17   45 1
    35   17   46 1
    36   18   19 1
    37   18   47 1
    38   18   48 1
    39   19   20 1
    40   19   49 1
    41   19   50 1
    42   20   51 1
    43   20   52 1
    44   21   22 2
    45   21   23 am
    46   23   28 1
    47   23   24 1
    48   24   25 1
    49   24   53 1
    50   24   54 1
    51   25   26 1
    52   25   55 1
    53   25   56 1
    54   26   27 1
    55   26   57 1
    56   26   58 1
    57   27   28 1
    58   27   59 1
    59   27   60 1
    60   28   61 1
    61   28   62 1
    62   29   30 2
    63   29   31 am
    64   31   32 1
    65   31   63 1
    66   32   64 1
    67   33   65 1
    68   33   66 1
    69   33   67 1
@<TRIPOS>MOLECULE
ZINC03818629
   41    41     0     0     0
SMALL
USER_CHARGES

@<TRIPOS>ATOM
      1 C1          0.3217    1.2381   -0.4555 C.3       1 <0>        -0.1483
      2 C2          0.1189   -0.2089   -0.0016 C.3       1 <0>        -0.1216
      3 C3          0.8424   -0.4325    1.3278 C.3       1 <0>        -0.1516
      4 C4         -1.3757   -0.4820    0.1789 C.3       1 <0>         0.1171
      5 N1         -1.5796   -1.9006    0.4828 N.pl3     1 <0>        -0.9744
      6 C5         -1.4984   -2.3721    1.8675 C.3       1 <0>         0.1129
      7 C6         -2.8306   -2.1756    2.5440 C.2       1 <0>         0.5050
      8 O1         -3.7567   -1.6895    1.9300 O.2       1 <0>        -0.5035
      9 N2         -2.9929   -2.5400    3.8314 N.am      1 <0>        -0.5967
     10 O2         -4.2447   -2.3553    4.4670 O.3       1 <0>        -0.3162
     11 S1         -1.9019   -2.9711   -0.7389 S.o2      1 <0>         2.6937
     12 O3         -2.5809   -4.0702   -0.1471 O.2       1 <0>        -0.9505
     13 O4         -2.4604   -2.2150   -1.8046 O.2       1 <0>        -0.9449
     14 C7         -0.3543   -3.5859   -1.3146 C.ar      1 <0>        -0.7163
     15 C8          0.3126   -2.9311   -2.3335 C.ar      1 <0>         0.0203
     16 C9          1.5258   -3.4114   -2.7870 C.ar      1 <0>        -0.1694
     17 C10         2.0753   -4.5515   -2.2188 C.ar      1 <0>         0.1849
     18 C11         1.4045   -5.2065   -1.1963 C.ar      1 <0>        -0.2285
     19 C12         0.1939   -4.7192   -0.7428 C.ar      1 <0>         0.0201
     20 O5          3.2686   -5.0262   -2.6635 O.3       1 <0>        -0.3098
     21 C13         3.7739   -6.2044   -2.0322 C.3       1 <0>         0.0218
     22 H1          1.3864    1.4327   -0.5841 H         1 <0>         0.0600
     23 H2         -0.1938    1.3974   -1.4026 H         1 <0>         0.0607
     24 H3         -0.0831    1.9150    0.2968 H         1 <0>         0.0590
     25 H4          0.5237   -0.8858   -0.7539 H         1 <0>         0.0739
     26 H5          0.8024   -1.4898    1.5899 H         1 <0>         0.0573
     27 H6          1.8826   -0.1210    1.2323 H         1 <0>         0.0583
     28 H7          0.3577    0.1539    2.1084 H         1 <0>         0.0575
     29 H8         -1.7593    0.1241    0.9995 H         1 <0>         0.0896
     30 H9         -1.9051   -0.2274   -0.7393 H         1 <0>         0.1005
     31 H10        -1.2392   -3.4308    1.8762 H         1 <0>         0.1169
     32 H11        -0.7337   -1.8064    2.3997 H         1 <0>         0.1252
     33 H12        -2.2523   -2.9287    4.3224 H         1 <0>         0.4079
     34 H13        -4.2643   -2.6463    5.3890 H         1 <0>         0.3880
     35 H14        -0.1156   -2.0436   -2.7755 H         1 <0>         0.1477
     36 H15         2.0460   -2.9000   -3.5834 H         1 <0>         0.1429
     37 H16         1.8301   -6.0943   -0.7524 H         1 <0>         0.1395
     38 H17        -0.3266   -5.2262    0.0562 H         1 <0>         0.1420
     39 H18         3.9123   -6.0154   -0.9677 H         1 <0>         0.0609
     40 H19         3.0651   -7.0214   -2.1670 H         1 <0>         0.0613
     41 H20         4.7299   -6.4752   -2.4804 H         1 <0>         0.1066
@<TRIPOS>BOND
     1    1    2 1
     2    1   22 1
     3    1   23 1
     4    1   24 1
     5    2    3 1
     6    2    4 1
     7    2   25 1
     8    3   26 1
     9    3   27 1
    10    3   28 1
    11    4    5 1
    12    4   29 1
    13    4   30 1
    14    5    6 1
    15    5   11 1
    16    6    7 1
    17    6   31 1
    18    6   32 1
    19    7    8 2
    20    7    9 am
    21    9   10 1
    22    9   33 1
    23   10   34 1
    24   11   12 2
    25   11   13 2
    26   11   14 1
    27   14   19 ar
    28   14   15 ar
    29   15   16 ar
    30   15   35 1
    31   16   17 ar
    32   16   36 1
    33   17   18 ar
    34   17   20 1
    35   18   19 ar
    36   18   37 1
    37   19   38 1
    38   20   21 1
    39   21   39 1
    40   21   40 1
    41   21   41 1
@<TRIPOS>MOLECULE
ZINC13764112
   41    42     0     0     0
SMALL
USER_CHARGES

@<TRIPOS>ATOM
      1 C1         -0.0173    1.4248    0.0099 C.3       1 <0>         0.0226
      2 O1          0.0021   -0.0041    0.0020 O.3       1 <0>        -0.3109
      3 C2          0.6258   -0.6184    1.0415 C.ar      1 <0>         0.1863
      4 C3          1.2022    0.1384    2.0513 C.ar      1 <0>        -0.2240
      5 C4          1.8353   -0.4884    3.1070 C.ar      1 <0>         0.0331
      6 C5          1.8951   -1.8688    3.1577 C.ar      1 <0>        -0.7045
      7 C6          1.3218   -2.6253    2.1523 C.ar      1 <0>         0.0219
      8 C7          0.6822   -2.0034    1.0976 C.ar      1 <0>        -0.1701
      9 S1          2.7038   -2.6653    4.5054 S.o2      1 <0>         2.6932
     10 O2          3.0980   -3.9492    4.0411 O.2       1 <0>        -0.9471
     11 O3          3.6322   -1.7279    5.0333 O.2       1 <0>        -0.9558
     12 N1          1.5645   -2.9163    5.6808 N.pl3     1 <0>        -0.9712
     13 C8          0.7885   -4.1588    5.6953 C.3       1 <0>         0.1709
     14 C9          1.4433   -5.1492    6.6234 C.ar      1 <0>        -0.1703
     15 C10         2.4067   -6.0260    6.1481 C.ar      1 <0>        -0.0549
     16 C11         2.9820   -6.9198    7.0380 C.ar      1 <0>        -0.1733
     17 C12         2.5791   -6.9074    8.3602 C.ar      1 <0>         0.1040
     18 N2          1.6595   -6.0594    8.7770 N.ar      1 <0>        -0.4874
     19 C13         1.0953   -5.1912    7.9601 C.ar      1 <0>         0.1125
     20 C14         1.3327   -1.8959    6.7061 C.3       1 <0>         0.1068
     21 C15         0.1848   -1.0141    6.2867 C.2       1 <0>         0.4951
     22 O4         -0.3837   -1.2180    5.2350 O.2       1 <0>        -0.4970
     23 N3         -0.2100    0.0010    7.0805 N.am      1 <0>        -0.5952
     24 O5         -1.2886    0.8296    6.6864 O.3       1 <0>        -0.3172
     25 H1          1.0053    1.8021    0.0021 H         1 <0>         0.0601
     26 H2         -0.5445    1.7859   -0.8732 H         1 <0>         0.1057
     27 H3         -0.5275    1.7763    0.9067 H         1 <0>         0.0604
     28 H4          1.1564    1.2167    2.0118 H         1 <0>         0.1358
     29 H5          2.2842    0.1003    3.8934 H         1 <0>         0.1337
     30 H6          1.3701   -3.7035    2.1940 H         1 <0>         0.1447
     31 H7          0.2307   -2.5948    0.3148 H         1 <0>         0.1409
     32 H8         -0.2239   -3.9508    6.0416 H         1 <0>         0.0985
     33 H9          0.7499   -4.5749    4.6886 H         1 <0>         0.0995
     34 H10         2.7015   -6.0132    5.1092 H         1 <0>         0.1521
     35 H11         3.7353   -7.6173    6.7024 H         1 <0>         0.1383
     36 H12         3.0225   -7.6004    9.0598 H         1 <0>         0.1570
     37 H13         0.3493   -4.5084    8.3391 H         1 <0>         0.1525
     38 H14         1.0921   -2.3799    7.6526 H         1 <0>         0.1233
     39 H15         2.2311   -1.2904    6.8257 H         1 <0>         0.1311
     40 H16         0.2446    0.1641    7.9216 H         1 <0>         0.4097
     41 H17        -1.4986    1.5296    7.3196 H         1 <0>         0.3889
@<TRIPOS>BOND
     1    1    2 1
     2    1   25 1
     3    1   26 1
     4    1   27 1
     5    2    3 1
     6    3    8 ar
     7    3    4 ar
     8    4    5 ar
     9    4   28 1
    10    5    6 ar
    11    5   29 1
    12    6    7 ar
    13    6    9 1
    14    7    8 ar
    15    7   30 1
    16    8   31 1
    17    9   10 2
    18    9   11 2
    19    9   12 1
    20   12   13 1
    21   12   20 1
    22   13   14 1
    23   13   32 1
    24   13   33 1
    25   14   19 ar
    26   14   15 ar
    27   15   16 ar
    28   15   34 1
    29   16   17 ar
    30   16   35 1
    31   17   18 ar
    32   17   36 1
    33   18   19 ar
    34   19   37 1
    35   20   21 1
    36   20   38 1
    37   20   39 1
    38   21   22 2
    39   21   23 am
    40   23   24 1
    41   23   40 1
    42   24   41 1
@<TRIPOS>MOLECULE
ZINC02867405
   38    40     0     0     0
SMALL
USER_CHARGES

@<TRIPOS>ATOM
      1 C1         -0.0187    1.5258    0.0104 C.3       1 <0>        -0.1574
      2 C2          0.0021   -0.0041    0.0020 C.3       1 <0>        -0.0985
      3 C3         -1.4333   -0.5336    0.0129 C.3       1 <0>        -0.1008
      4 C4         -2.0615   -0.1672    1.3436 C.2       1 <0>         0.4948
      5 O1         -1.5184   -0.5754    2.5017 O.3       1 <0>        -0.6234
      6 N1         -3.1491    0.5595    1.3274 N.2       1 <0>        -0.6700
      7 C5         -3.7167    0.9836    0.1935 C.2       1 <0>         0.6712
      8 O2         -4.7270    1.6550    0.2855 O.2       1 <0>        -0.5719
      9 N2         -3.2542    0.7238   -1.0359 N.am      1 <0>        -0.6998
     10 C6         -2.1379   -0.0139   -1.2267 C.2       1 <0>         0.5501
     11 O3         -1.7177   -0.2497   -2.3392 O.2       1 <0>        -0.5127
     12 C7         -1.3758   -2.0369   -0.0759 C.ar      1 <0>        -0.0311
     13 C8         -0.1514   -2.6769   -0.1427 C.ar      1 <0>        -0.1017
     14 C9         -0.0929   -4.0535   -0.2242 C.ar      1 <0>        -0.1052
     15 C10        -1.2702   -4.7986   -0.2390 C.ar      1 <0>        -0.0611
     16 C11        -2.5009   -4.1486   -0.1715 C.ar      1 <0>        -0.1012
     17 C12        -2.5475   -2.7720   -0.0846 C.ar      1 <0>        -0.1079
     18 C13        -1.2136   -6.2788   -0.3270 C.ar      1 <0>        -0.0303
     19 C14         0.0172   -6.9290   -0.3892 C.ar      1 <0>        -0.1145
     20 C15         0.0640   -8.3060   -0.4704 C.ar      1 <0>        -0.1182
     21 C16        -1.1080   -9.0404   -0.4905 C.ar      1 <0>        -0.1279
     22 C17        -2.3326   -8.4000   -0.4295 C.ar      1 <0>        -0.1176
     23 C18        -2.3910   -7.0239   -0.3418 C.ar      1 <0>        -0.1146
     24 H1          1.0039    1.9031    0.0027 H         1 <0>         0.0618
     25 H2         -0.5459    1.8868   -0.8726 H         1 <0>         0.0476
     26 H3         -0.5289    1.8773    0.9072 H         1 <0>         0.0630
     27 H4          0.5123   -0.3556   -0.8948 H         1 <0>         0.0748
     28 H5          0.5293   -0.3651    0.8851 H         1 <0>         0.0899
     29 H6         -3.7306    1.0721   -1.8058 H         1 <0>         0.3996
     30 H7          0.7605   -2.0984   -0.1315 H         1 <0>         0.1323
     31 H8          0.8636   -4.5521   -0.2767 H         1 <0>         0.1251
     32 H9         -3.4165   -4.7213   -0.1830 H         1 <0>         0.1243
     33 H10        -3.5008   -2.2675   -0.0274 H         1 <0>         0.1178
     34 H11         0.9328   -6.3565   -0.3742 H         1 <0>         0.1256
     35 H12         1.0174   -8.8110   -0.5186 H         1 <0>         0.1215
     36 H13        -1.0668  -10.1177   -0.5545 H         1 <0>         0.1192
     37 H14        -3.2446   -8.9783   -0.4459 H         1 <0>         0.1217
     38 H15        -3.3475   -6.5252   -0.2897 H         1 <0>         0.1254
@<TRIPOS>BOND
     1    1    2 1
     2    1   24 1
     3    1   25 1
     4    1   26 1
     5    2    3 1
     6    2   27 1
     7    2   28 1
     8    3   10 1
     9    3    4 1
    10    3   12 1
    11    4    5 1
    12    4    6 2
    13    6    7 1
    14    7    8 2
    15    7    9 am
    16    9   10 am
    17    9   29 1
    18   10   11 2
    19   12   17 ar
    20   12   13 ar
    21   13   14 ar
    22   13   30 1
    23   14   15 ar
    24   14   31 1
    25   15   16 ar
    26   15   18 1
    27   16   17 ar
    28   16   32 1
    29   17   33 1
    30   18   23 ar
    31   18   19 ar
    32   19   20 ar
    33   19   34 1
    34   20   21 ar
    35   20   35 1
    36   21   22 ar
    37   21   36 1
    38   22   23 ar
    39   22   37 1
    40   23   38 1
@<TRIPOS>MOLECULE
ZINC02867405
   38    40     0     0     0
SMALL
USER_CHARGES

@<TRIPOS>ATOM
      1 C1         -0.0187    1.5258    0.0104 C.3       1 <0>        -0.1579
      2 C2          0.0021   -0.0041    0.0020 C.3       1 <0>        -0.0987
      3 C3         -1.4333   -0.5336    0.0129 C.3       1 <0>        -0.1284
      4 C4         -2.0625   -0.1661    1.3442 C.2       1 <0>         0.5502
      5 O1         -1.5790   -0.5310    2.3943 O.2       1 <0>        -0.5165
      6 N1         -3.1854    0.5851    1.3085 N.am      1 <0>        -0.6836
      7 C5         -3.7279    0.9939    0.1309 C.2       1 <0>         0.6399
      8 O2         -4.8464    1.7392    0.1861 O.3       1 <0>        -0.6568
      9 N2         -3.2419    0.7163   -1.0544 N.2       1 <0>        -0.6763
     10 C6         -2.1377   -0.0143   -1.2259 C.2       1 <0>         0.5373
     11 O3         -1.7113   -0.2555   -2.3378 O.2       1 <0>        -0.5282
     12 C7         -1.3761   -2.0370   -0.0754 C.ar      1 <0>        -0.0359
     13 C8         -0.1518   -2.6772   -0.1419 C.ar      1 <0>        -0.1031
     14 C9         -0.0935   -4.0538   -0.2228 C.ar      1 <0>        -0.1054
     15 C10        -1.2710   -4.7987   -0.2376 C.ar      1 <0>        -0.0598
     16 C11        -2.5015   -4.1485   -0.1704 C.ar      1 <0>        -0.1006
     17 C12        -2.5479   -2.7718   -0.0840 C.ar      1 <0>        -0.1086
     18 C13        -1.2146   -6.2789   -0.3250 C.ar      1 <0>        -0.0316
     19 C14         0.0160   -6.9294   -0.3868 C.ar      1 <0>        -0.1143
     20 C15         0.0626   -8.3064   -0.4675 C.ar      1 <0>        -0.1183
     21 C16        -1.1095   -9.0406   -0.4876 C.ar      1 <0>        -0.1272
     22 C17        -2.3340   -8.4000   -0.4269 C.ar      1 <0>        -0.1174
     23 C18        -2.3921   -7.0238   -0.3397 C.ar      1 <0>        -0.1141
     24 H1          1.0039    1.9031    0.0027 H         1 <0>         0.0617
     25 H2         -0.5459    1.8868   -0.8726 H         1 <0>         0.0636
     26 H3         -0.5289    1.8773    0.9072 H         1 <0>         0.0494
     27 H4          0.5123   -0.3556   -0.8948 H         1 <0>         0.0860
     28 H5          0.5293   -0.3651    0.8851 H         1 <0>         0.0761
     29 H6          0.7602   -2.0988   -0.1307 H         1 <0>         0.1322
     30 H7          0.8629   -4.5526   -0.2751 H         1 <0>         0.1254
     31 H8         -3.4172   -4.7210   -0.1818 H         1 <0>         0.1250
     32 H9         -3.5011   -2.2671   -0.0270 H         1 <0>         0.1196
     33 H10         0.9318   -6.3571   -0.3720 H         1 <0>         0.1255
     34 H11         1.0160   -8.8116   -0.5155 H         1 <0>         0.1217
     35 H12        -1.0685  -10.1179   -0.5512 H         1 <0>         0.1196
     36 H13        -3.2461   -8.9781   -0.4432 H         1 <0>         0.1220
     37 H14        -3.3486   -6.5249   -0.2879 H         1 <0>         0.1256
     38 H15        -3.6137    0.8378    2.1413 H         1 <0>         0.4018
@<TRIPOS>BOND
     1    1    2 1
     2    1   24 1
     3    1   25 1
     4    1   26 1
     5    2    3 1
     6    2   27 1
     7    2   28 1
     8    3   10 1
     9    3    4 1
    10    3   12 1
    11    4    5 2
    12    4    6 am
    13    6    7 1
    14    6   38 1
    15    7    8 1
    16    7    9 2
    17    9   10 1
    18   10   11 2
    19   12   17 ar
    20   12   13 ar
    21   13   14 ar
    22   13   29 1
    23   14   15 ar
    24   14   30 1
    25   15   16 ar
    26   15   18 1
    27   16   17 ar
    28   16   31 1
    29   17   32 1
    30   18   23 ar
    31   18   19 ar
    32   19   20 ar
    33   19   33 1
    34   20   21 ar
    35   20   34 1
    36   21   22 ar
    37   21   35 1
    38   22   23 ar
    39   22   36 1
    40   23   37 1
@<TRIPOS>MOLECULE
ZINC02867405
   39    41     0     0     0
SMALL
USER_CHARGES

@<TRIPOS>ATOM
      1 C1         -0.0187    1.5258    0.0104 C.3       1 <0>        -0.1669
      2 C2          0.0021   -0.0041    0.0020 C.3       1 <0>        -0.1121
      3 C3         -1.4333   -0.5336    0.0129 C.3       1 <0>        -0.0680
      4 C4         -2.0615   -0.1674    1.3443 C.2       1 <0>         0.5450
      5 O1         -1.5741   -0.5351    2.3917 O.2       1 <0>        -0.4507
      6 N1         -3.1836    0.5826    1.3194 N.am      1 <0>        -0.6668
      7 C5         -3.7341    0.9959    0.1722 C.2       1 <0>         0.7164
      8 O2         -4.7439    1.6678    0.2422 O.2       1 <0>        -0.5207
      9 N2         -3.2536    0.7238   -1.0464 N.am      1 <0>        -0.6670
     10 C6         -2.1375   -0.0140   -1.2262 C.2       1 <0>         0.5456
     11 O3         -1.7140   -0.2529   -2.3368 O.2       1 <0>        -0.4508
     12 C7         -1.3757   -2.0369   -0.0761 C.ar      1 <0>        -0.0826
     13 C8         -0.1512   -2.6768   -0.1431 C.ar      1 <0>        -0.0854
     14 C9         -0.0926   -4.0533   -0.2248 C.ar      1 <0>        -0.1051
     15 C10        -1.2699   -4.7985   -0.2396 C.ar      1 <0>        -0.0272
     16 C11        -2.5006   -4.1487   -0.1719 C.ar      1 <0>        -0.1031
     17 C12        -2.5474   -2.7720   -0.0849 C.ar      1 <0>        -0.1066
     18 C13        -1.2132   -6.2787   -0.3278 C.ar      1 <0>        -0.0533
     19 C14         0.0176   -6.9288   -0.3901 C.ar      1 <0>        -0.1068
     20 C15         0.0645   -8.3058   -0.4715 C.ar      1 <0>        -0.1175
     21 C16        -1.1074   -9.0403   -0.4917 C.ar      1 <0>        -0.1145
     22 C17        -2.3320   -8.4001   -0.4305 C.ar      1 <0>        -0.1176
     23 C18        -2.3905   -7.0239   -0.3427 C.ar      1 <0>        -0.1078
     24 H1          1.0039    1.9031    0.0027 H         1 <0>         0.0800
     25 H2         -0.5459    1.8868   -0.8726 H         1 <0>         0.0571
     26 H3         -0.5289    1.8773    0.9072 H         1 <0>         0.0561
     27 H4          0.5123   -0.3556   -0.8948 H         1 <0>         0.1017
     28 H5          0.5293   -0.3651    0.8851 H         1 <0>         0.1013
     29 H6         -3.7213    1.0667   -1.8240 H         1 <0>         0.4376
     30 H7          0.7606   -2.0982   -0.1318 H         1 <0>         0.1388
     31 H8          0.8639   -4.5519   -0.2774 H         1 <0>         0.1344
     32 H9         -3.4162   -4.7215   -0.1835 H         1 <0>         0.1322
     33 H10        -3.5006   -2.2676   -0.0275 H         1 <0>         0.1179
     34 H11         0.9332   -6.3563   -0.3752 H         1 <0>         0.1268
     35 H12         1.0180   -8.8107   -0.5199 H         1 <0>         0.1262
     36 H13        -1.0661  -10.1176   -0.5558 H         1 <0>         0.1245
     37 H14        -3.2440   -8.9783   -0.4470 H         1 <0>         0.1258
     38 H15        -3.3471   -6.5253   -0.2905 H         1 <0>         0.1254
     39 H16        -3.6035    0.8290    2.1584 H         1 <0>         0.4376
@<TRIPOS>BOND
     1    1    2 1
     2    1   24 1
     3    1   25 1
     4    1   26 1
     5    2    3 1
     6    2   27 1
     7    2   28 1
     8    3   10 1
     9    3    4 1
    10    3   12 1
    11    4    5 2
    12    4    6 am
    13    6    7 am
    14    6   39 1
    15    7    8 2
    16    7    9 am
    17    9   10 am
    18    9   29 1
    19   10   11 2
    20   12   17 ar
    21   12   13 ar
    22   13   14 ar
    23   13   30 1
    24   14   15 ar
    25   14   31 1
    26   15   16 ar
    27   15   18 1
    28   16   17 ar
    29   16   32 1
    30   17   33 1
    31   18   23 ar
    32   18   19 ar
    33   19   20 ar
    34   19   34 1
    35   20   21 ar
    36   20   35 1
    37   21   22 ar
    38   21   36 1
    39   22   23 ar
    40   22   37 1
    41   23   38 1
@<TRIPOS>MOLECULE
ZINC13680271
   41    42     0     0     0
SMALL
USER_CHARGES

@<TRIPOS>ATOM
      1 C1         -0.0187    1.5258    0.0104 C.3       1 <0>        -0.1420
      2 C2          0.0021   -0.0041    0.0020 C.3       1 <0>        -0.0834
      3 C3          0.7421   -0.5109    1.2415 C.3       1 <0>        -0.1433
      4 C4         -1.4333   -0.5336    0.0129 C.3       1 <0>         0.0853
      5 H1         -1.9605   -0.1726   -0.8702 H         1 <0>         0.0718
      6 C5         -2.1387   -0.0476    1.2528 C.2       1 <0>         0.4973
      7 O1         -2.7455    1.0097    1.2340 O.co2     1 <0>        -0.6921
      8 O2         -2.1025   -0.7118    2.2746 O.co2     1 <0>        -0.6812
      9 N1         -1.4134   -1.9985    0.0048 N.pl3     1 <0>        -1.0833
     10 S1         -2.5847   -2.8380   -0.8111 S.o2      1 <0>         2.6874
     11 O3         -2.2793   -4.2170   -0.6549 O.2       1 <0>        -0.9729
     12 O4         -3.8319   -2.2842   -0.4148 O.2       1 <0>        -0.9439
     13 C6         -2.3918   -2.4703   -2.5235 C.ar      1 <0>        -0.6674
     14 C7         -3.0596   -1.3925   -3.0763 C.ar      1 <0>        -0.0141
     15 C8         -2.9125   -1.1002   -4.4172 C.ar      1 <0>        -0.1278
     16 C9         -2.0891   -1.8929   -5.2141 C.ar      1 <0>        -0.0060
     17 C10        -1.4185   -2.9772   -4.6519 C.ar      1 <0>        -0.1321
     18 C11        -1.5688   -3.2573   -3.3088 C.ar      1 <0>        -0.0170
     19 C12        -1.9275   -1.5839   -6.6564 C.ar      1 <0>        -0.0331
     20 C13        -2.5942   -0.4964   -7.2173 C.ar      1 <0>        -0.0994
     21 C14        -2.4406   -0.2132   -8.5592 C.ar      1 <0>        -0.0880
     22 C15        -1.6263   -1.0076   -9.3477 C.ar      1 <0>        -0.0887
     23 C16        -0.9623   -2.0892   -8.7955 C.ar      1 <0>        -0.0891
     24 C17        -1.1040   -2.3768   -7.4532 C.ar      1 <0>        -0.1006
     25 Br1        -1.4208   -0.6142  -11.1859 Br        1 <0>        -0.0514
     26 H2          1.0039    1.9031    0.0027 H         1 <0>         0.0449
     27 H3         -0.5459    1.8868   -0.8726 H         1 <0>         0.0498
     28 H4         -0.5289    1.8773    0.9072 H         1 <0>         0.0737
     29 H5          0.5123   -0.3556   -0.8948 H         1 <0>         0.0592
     30 H6          0.7568   -1.6008    1.2356 H         1 <0>         0.0486
     31 H7          1.7647   -0.1336    1.2338 H         1 <0>         0.0431
     32 H8          0.2319   -0.1594    2.1383 H         1 <0>         0.0736
     33 H9         -0.7142   -2.4767    0.4774 H         1 <0>         0.4140
     34 H10        -3.6975   -0.7787   -2.4577 H         1 <0>         0.1476
     35 H11        -3.4349   -0.2588   -4.8479 H         1 <0>         0.1355
     36 H12        -0.7791   -3.5949   -5.2651 H         1 <0>         0.1335
     37 H13        -1.0460   -4.0948   -2.8710 H         1 <0>         0.1427
     38 H14        -3.2303    0.1236   -6.6030 H         1 <0>         0.1391
     39 H15        -2.9568    0.6294   -8.9949 H         1 <0>         0.1367
     40 H16        -0.3284   -2.7062   -9.4150 H         1 <0>         0.1359
     41 H17        -0.5818   -3.2182   -7.0222 H         1 <0>         0.1375
@<TRIPOS>BOND
     1    1    2 1
     2    1   26 1
     3    1   27 1
     4    1   28 1
     5    2    3 1
     6    2    4 1
     7    2   29 1
     8    3   30 1
     9    3   31 1
    10    3   32 1
    11    4    5 1
    12    4    6 1
    13    4    9 1
    14    6    7 2
    15    6    8 1
    16    9   10 1
    17    9   33 1
    18   10   11 2
    19   10   12 2
    20   10   13 1
    21   13   18 ar
    22   13   14 ar
    23   14   15 ar
    24   14   34 1
    25   15   16 ar
    26   15   35 1
    27   16   17 ar
    28   16   19 1
    29   17   18 ar
    30   17   36 1
    31   18   37 1
    32   19   24 ar
    33   19   20 ar
    34   20   21 ar
    35   20   38 1
    36   21   22 ar
    37   21   39 1
    38   22   23 ar
    39   22   25 1
    40   23   24 ar
    41   23   40 1
    42   24   41 1
@<TRIPOS>MOLECULE
ZINC13803827
   44    45     0     0     0
SMALL
USER_CHARGES

@<TRIPOS>ATOM
      1 C1         -0.0184    1.5028    0.0103 C.3       1 <0>        -0.1136
      2 C2          0.0021   -0.0041    0.0020 C.ar      1 <0>        -0.0875
      3 C3          0.0057   -0.6865   -1.2011 C.ar      1 <0>        -0.1212
      4 C4          0.0244   -2.0665   -1.2146 C.ar      1 <0>        -0.1008
      5 C5          0.0396   -2.7722   -0.0132 C.ar      1 <0>        -0.0517
      6 C6          0.0359   -2.0796    1.1958 C.ar      1 <0>        -0.0992
      7 C7          0.0229   -0.6995    1.1975 C.ar      1 <0>        -0.1202
      8 C8          0.0592   -4.2560   -0.0214 C.ar      1 <0>         0.0037
      9 C9          0.0683   -4.9485   -1.2304 C.ar      1 <0>        -0.1342
     10 C10         0.0871   -6.3285   -1.2322 C.ar      1 <0>        -0.0051
     11 C11         0.0964   -7.0241   -0.0366 C.ar      1 <0>        -0.6613
     12 C12         0.0870   -6.3418    1.1665 C.ar      1 <0>        -0.0026
     13 C13         0.0745   -4.9617    1.1800 C.ar      1 <0>        -0.1264
     14 S1          0.1197   -8.7860   -0.0463 S.o2      1 <0>         2.6965
     15 O1         -0.4255   -9.2062    1.1968 O.2       1 <0>        -0.9693
     16 O2         -0.4259   -9.1925   -1.2939 O.2       1 <0>        -0.9757
     17 N1          1.7080   -9.2546   -0.0492 N.pl3     1 <0>        -1.0852
     18 C14         2.5625   -8.9539    1.1022 C.3       1 <0>         0.0766
     19 H1          1.9452   -8.8432    1.9937 H         1 <0>         0.0797
     20 C15         3.5586  -10.0965    1.3103 C.3       1 <0>        -0.0813
     21 C16         4.5063  -10.1715    0.1115 C.3       1 <0>        -0.1415
     22 C17         4.3668   -9.8428    2.5843 C.3       1 <0>        -0.1423
     23 C18         3.3139   -7.6723    0.8491 C.2       1 <0>         0.4916
     24 O3          3.6287   -6.9555    1.7838 O.co2     1 <0>        -0.6921
     25 O4          3.6069   -7.3523   -0.2903 O.co2     1 <0>        -0.6796
     26 H2          1.0042    1.8801    0.0026 H         1 <0>         0.0700
     27 H3         -0.5455    1.8639   -0.8728 H         1 <0>         0.0649
     28 H4         -0.5286    1.8543    0.9071 H         1 <0>         0.0651
     29 H5         -0.0065   -0.1385   -2.1317 H         1 <0>         0.1229
     30 H6          0.0268   -2.5984   -2.1545 H         1 <0>         0.1274
     31 H7          0.0473   -2.6217    2.1299 H         1 <0>         0.1285
     32 H8          0.0248   -0.1616    2.1340 H         1 <0>         0.1235
     33 H9          0.0603   -4.4064   -2.1645 H         1 <0>         0.1295
     34 H10         0.0941   -6.8663   -2.1687 H         1 <0>         0.1372
     35 H11         0.0940   -6.8898    2.0971 H         1 <0>         0.1372
     36 H12         0.0717   -4.4298    2.1199 H         1 <0>         0.1304
     37 H13         2.0726   -9.7281   -0.8132 H         1 <0>         0.4133
     38 H14         3.0172  -11.0378    1.4049 H         1 <0>         0.0627
     39 H15         5.2159  -10.9855    0.2597 H         1 <0>         0.0417
     40 H16         3.9305  -10.3522   -0.7962 H         1 <0>         0.0489
     41 H17         5.0477   -9.2302    0.0169 H         1 <0>         0.0712
     42 H18         3.6916   -9.7894    3.4384 H         1 <0>         0.0509
     43 H19         5.0764  -10.6568    2.7326 H         1 <0>         0.0456
     44 H20         4.9082   -8.9015    2.4898 H         1 <0>         0.0718
@<TRIPOS>BOND
     1    1    2 1
     2    1   26 1
     3    1   27 1
     4    1   28 1
     5    2    7 ar
     6    2    3 ar
     7    3    4 ar
     8    3   29 1
     9    4    5 ar
    10    4   30 1
    11    5    6 ar
    12    5    8 1
    13    6    7 ar
    14    6   31 1
    15    7   32 1
    16    8   13 ar
    17    8    9 ar
    18    9   10 ar
    19    9   33 1
    20   10   11 ar
    21   10   34 1
    22   11   12 ar
    23   11   14 1
    24   12   13 ar
    25   12   35 1
    26   13   36 1
    27   14   15 2
    28   14   16 2
    29   14   17 1
    30   17   18 1
    31   17   37 1
    32   18   19 1
    33   18   20 1
    34   18   23 1
    35   20   21 1
    36   20   22 1
    37   20   38 1
    38   21   39 1
    39   21   40 1
    40   21   41 1
    41   22   42 1
    42   22   43 1
    43   22   44 1
    44   23   24 2
    45   23   25 1
@<TRIPOS>MOLECULE
ZINC03961071
   41    42     0     0     0
SMALL
USER_CHARGES

@<TRIPOS>ATOM
      1 C1         -0.0187    1.5258    0.0104 C.3       1 <0>        -0.1455
      2 C2          0.0021   -0.0041    0.0020 C.3       1 <0>        -0.0797
      3 C3          0.7421   -0.5109    1.2415 C.3       1 <0>        -0.1454
      4 C4         -1.4333   -0.5336    0.0129 C.3       1 <0>         0.0799
      5 H1         -1.9435   -0.1821    0.9097 H         1 <0>         0.0809
      6 C5         -2.1622   -0.0344   -1.2080 C.2       1 <0>         0.4843
      7 O1         -2.4620   -0.8108   -2.0990 O.co2     1 <0>        -0.6780
      8 O2         -2.4521    1.1459   -1.3048 O.co2     1 <0>        -0.6888
      9 N1         -1.4134   -1.9985    0.0048 N.pl3     1 <0>        -1.0817
     10 S1         -2.5690   -2.8468    0.8339 S.o2      1 <0>         2.6970
     11 O3         -2.2983   -4.2242    0.6130 O.2       1 <0>        -0.9761
     12 O4         -2.6312   -2.2820    2.1364 O.2       1 <0>        -0.9694
     13 C6         -4.1170   -2.5080    0.0637 C.ar      1 <0>        -0.6473
     14 C7         -4.8801   -1.4368    0.4922 C.ar      1 <0>        -0.0087
     15 C8         -6.0936   -1.1670   -0.1073 C.ar      1 <0>        -0.1237
     16 C9         -6.5496   -1.9758   -1.1463 C.ar      1 <0>        -0.0063
     17 C10        -5.7766   -3.0533   -1.5743 C.ar      1 <0>        -0.1272
     18 C11        -4.5621   -3.3107   -0.9711 C.ar      1 <0>         0.0006
     19 C12        -7.8537   -1.6910   -1.7944 C.ar      1 <0>        -0.0247
     20 C13        -8.6241   -0.6104   -1.3697 C.ar      1 <0>        -0.1006
     21 C14        -9.8363   -0.3497   -1.9756 C.ar      1 <0>        -0.0883
     22 C15       -10.2874   -1.1600   -3.0032 C.ar      1 <0>        -0.0919
     23 C16        -9.5261   -2.2349   -3.4283 C.ar      1 <0>        -0.0891
     24 C17        -8.3094   -2.5000   -2.8334 C.ar      1 <0>        -0.1015
     25 Br1       -11.9496   -0.7974   -3.8285 Br        1 <0>        -0.0566
     26 H2          1.0039    1.9031    0.0027 H         1 <0>         0.0394
     27 H3         -0.5459    1.8868   -0.8726 H         1 <0>         0.0871
     28 H4         -0.5289    1.8773    0.9072 H         1 <0>         0.0484
     29 H5          0.5123   -0.3556   -0.8948 H         1 <0>         0.0671
     30 H6          0.7568   -1.6008    1.2356 H         1 <0>         0.0505
     31 H7          1.7647   -0.1336    1.2338 H         1 <0>         0.0486
     32 H8          0.2319   -0.1594    2.1383 H         1 <0>         0.0540
     33 H9         -0.7234   -2.4715   -0.4862 H         1 <0>         0.4130
     34 H10        -4.5257   -0.8106    1.2976 H         1 <0>         0.1366
     35 H11        -6.6890   -0.3309    0.2286 H         1 <0>         0.1305
     36 H12        -6.1252   -3.6833   -2.3792 H         1 <0>         0.1301
     37 H13        -3.9602   -4.1429   -1.3050 H         1 <0>         0.1376
     38 H14        -8.2733    0.0220   -0.5675 H         1 <0>         0.1381
     39 H15       -10.4341    0.4876   -1.6472 H         1 <0>         0.1349
     40 H16        -9.8825   -2.8643   -4.2303 H         1 <0>         0.1345
     41 H17        -7.7139   -3.3361   -3.1691 H         1 <0>         0.1375
@<TRIPOS>BOND
     1    1    2 1
     2    1   26 1
     3    1   27 1
     4    1   28 1
     5    2    3 1
     6    2    4 1
     7    2   29 1
     8    3   30 1
     9    3   31 1
    10    3   32 1
    11    4    5 1
    12    4    6 1
    13    4    9 1
    14    6    7 2
    15    6    8 1
    16    9   10 1
    17    9   33 1
    18   10   11 2
    19   10   12 2
    20   10   13 1
    21   13   18 ar
    22   13   14 ar
    23   14   15 ar
    24   14   34 1
    25   15   16 ar
    26   15   35 1
    27   16   17 ar
    28   16   19 1
    29   17   18 ar
    30   17   36 1
    31   18   37 1
    32   19   24 ar
    33   19   20 ar
    34   20   21 ar
    35   20   38 1
    36   21   22 ar
    37   21   39 1
    38   22   23 ar
    39   22   25 1
    40   23   24 ar
    41   23   40 1
    42   24   41 1
@<TRIPOS>MOLECULE
ZINC13680273
   44    45     0     0     0
SMALL
USER_CHARGES

@<TRIPOS>ATOM
      1 C1         -1.5998   -2.0555   -1.9255 C.3       1 <0>        -0.1562
      2 C2         -0.6461   -1.2347   -1.0550 C.3       1 <0>        -0.0936
      3 C3          0.3274   -0.4655   -1.9504 C.3       1 <0>        -0.1502
      4 C4         -1.4509   -0.2459   -0.2092 C.3       1 <0>         0.1583
      5 H1         -0.7730    0.3263    0.4242 H         1 <0>         0.1091
      6 C5         -2.4273   -1.0021    0.6544 C.2       1 <0>         0.5128
      7 O1         -3.5962   -1.0640    0.3369 O.2       1 <0>        -0.4975
      8 N1         -2.0016   -1.6096    1.7797 N.am      1 <0>        -0.5954
      9 O2         -2.8964   -2.4031    2.5378 O.3       1 <0>        -0.3147
     10 N2         -2.1835    0.6671   -1.0901 N.pl3     1 <0>        -1.0899
     11 S1         -2.3836    2.2529   -0.6572 S.o2      1 <0>         2.6888
     12 O3         -3.1119    2.8721   -1.7087 O.2       1 <0>        -0.9464
     13 O4         -2.8405    2.2520    0.6883 O.2       1 <0>        -0.9452
     14 C6         -0.7858    2.9955   -0.6460 C.ar      1 <0>        -0.6772
     15 C7         -0.0097    2.9433    0.4978 C.ar      1 <0>        -0.0209
     16 C8          1.2424    3.5237    0.5123 C.ar      1 <0>        -0.1288
     17 C9          1.7246    4.1626   -0.6283 C.ar      1 <0>         0.0130
     18 C10         0.9387    4.2118   -1.7779 C.ar      1 <0>        -0.1282
     19 C11        -0.3099    3.6236   -1.7828 C.ar      1 <0>        -0.0104
     20 C12         3.0698    4.7888   -0.6185 C.ar      1 <0>        -0.0482
     21 C13         3.8576    4.7350    0.5296 C.ar      1 <0>        -0.0961
     22 C14         5.1079    5.3189    0.5336 C.ar      1 <0>        -0.0891
     23 C15         5.5796    5.9578   -0.6001 C.ar      1 <0>        -0.0825
     24 C16         4.8007    6.0144   -1.7429 C.ar      1 <0>        -0.0887
     25 C17         3.5517    5.4278   -1.7592 C.ar      1 <0>        -0.0957
     26 Br1         7.2937    6.7564   -0.5875 Br        1 <0>        -0.0420
     27 H2         -1.0235   -2.7237   -2.5653 H         1 <0>         0.0676
     28 H3         -2.2596   -2.6430   -1.2871 H         1 <0>         0.0622
     29 H4         -2.1957   -1.3844   -2.5441 H         1 <0>         0.0621
     30 H5         -0.0868   -1.9023   -0.3996 H         1 <0>         0.0923
     31 H6         -0.2262    0.2502   -2.5583 H         1 <0>         0.0633
     32 H7          1.0490    0.0661   -1.3301 H         1 <0>         0.0599
     33 H8          0.8528   -1.1649   -2.6008 H         1 <0>         0.0674
     34 H9         -1.0822   -1.5033    2.0702 H         1 <0>         0.4068
     35 H10        -2.5004   -2.7975    3.3270 H         1 <0>         0.3884
     36 H11        -2.5513    0.3426   -1.9270 H         1 <0>         0.4276
     37 H12        -0.3844    2.4478    1.3812 H         1 <0>         0.1417
     38 H13         1.8473    3.4830    1.4061 H         1 <0>         0.1380
     39 H14         1.3076    4.7058   -2.6646 H         1 <0>         0.1384
     40 H15        -0.9180    3.6573   -2.6747 H         1 <0>         0.1460
     41 H16         3.4902    4.2374    1.4149 H         1 <0>         0.1377
     42 H17         5.7193    5.2777    1.4229 H         1 <0>         0.1386
     43 H18         5.1731    6.5143   -2.6249 H         1 <0>         0.1388
     44 H19         2.9467    5.4683   -2.6529 H         1 <0>         0.1381
@<TRIPOS>BOND
     1    1    2 1
     2    1   27 1
     3    1   28 1
     4    1   29 1
     5    2    3 1
     6    2    4 1
     7    2   30 1
     8    3   31 1
     9    3   32 1
    10    3   33 1
    11    4    5 1
    12    4    6 1
    13    4   10 1
    14    6    7 2
    15    6    8 am
    16    8    9 1
    17    8   34 1
    18    9   35 1
    19   10   11 1
    20   10   36 1
    21   11   12 2
    22   11   13 2
    23   11   14 1
    24   14   19 ar
    25   14   15 ar
    26   15   16 ar
    27   15   37 1
    28   16   17 ar
    29   16   38 1
    30   17   18 ar
    31   17   20 1
    32   18   19 ar
    33   18   39 1
    34   19   40 1
    35   20   25 ar
    36   20   21 ar
    37   21   22 ar
    38   21   41 1
    39   22   23 ar
    40   22   42 1
    41   23   24 ar
    42   23   26 1
    43   24   25 ar
    44   24   43 1
    45   25   44 1
@<TRIPOS>MOLECULE
ZINC13534671
   45    46     0     0     0
SMALL
USER_CHARGES

@<TRIPOS>ATOM
      1 C1         -0.0187    1.5258    0.0104 C.3       1 <0>        -0.1413
      2 C2          0.0021   -0.0041    0.0020 C.3       1 <0>        -0.0786
      3 C3          0.7182   -0.4975   -1.2568 C.3       1 <0>        -0.1477
      4 C4          0.7421   -0.5109    1.2415 C.3       1 <0>         0.0758
      5 H1          0.8346   -1.5958    1.1912 H         1 <0>         0.0799
      6 C5          2.1149    0.1084    1.2952 C.2       1 <0>         0.4897
      7 O1          2.3764    0.9381    2.1495 O.co2     1 <0>        -0.6772
      8 O2          2.9641   -0.2203    0.4845 O.co2     1 <0>        -0.6912
      9 N1         -0.0083   -0.1401    2.4439 N.pl3     1 <0>        -1.0834
     10 S1         -0.0331   -1.1568    3.7508 S.o2      1 <0>         2.6976
     11 O3         -0.8106   -0.5134    4.7512 O.2       1 <0>        -0.9776
     12 O4         -0.3504   -2.4496    3.2537 O.2       1 <0>        -0.9720
     13 C6          1.6131   -1.2463    4.3726 C.ar      1 <0>        -0.6532
     14 C7          2.4803   -2.2101    3.8904 C.ar      1 <0>        -0.0064
     15 C8          3.7710   -2.2846    4.3735 C.ar      1 <0>        -0.1317
     16 C9          4.2000   -1.3864    5.3488 C.ar      1 <0>         0.0098
     17 C10         3.3221   -0.4175    5.8309 C.ar      1 <0>        -0.1358
     18 C11         2.0352   -0.3489    5.3369 C.ar      1 <0>         0.0030
     19 C12         5.5861   -1.4618    5.8723 C.ar      1 <0>        -0.0821
     20 C13         6.4648   -2.4280    5.3854 C.ar      1 <0>        -0.0638
     21 C14         7.7528   -2.4953    5.8736 C.ar      1 <0>        -0.1497
     22 C15         8.1744   -1.6023    6.8494 C.ar      1 <0>         0.1265
     23 C16         7.3014   -0.6388    7.3363 C.ar      1 <0>        -0.2074
     24 C17         6.0140   -0.5629    6.8478 C.ar      1 <0>        -0.0640
     25 O5          9.4437   -1.6716    7.3291 O.3       1 <0>        -0.3182
     26 C18         9.8110   -0.7221    8.3320 C.3       1 <0>         0.0269
     27 H2          1.0039    1.9031    0.0027 H         1 <0>         0.0651
     28 H3         -0.5459    1.8868   -0.8726 H         1 <0>         0.0449
     29 H4         -0.5289    1.8773    0.9072 H         1 <0>         0.0481
     30 H5         -1.0205   -0.3814    0.0098 H         1 <0>         0.0607
     31 H6          1.7408   -0.1202   -1.2645 H         1 <0>         0.0874
     32 H7          0.7330   -1.5874   -1.2628 H         1 <0>         0.0474
     33 H8          0.1910   -0.1364   -2.1398 H         1 <0>         0.0409
     34 H9         -0.4906    0.7010    2.4745 H         1 <0>         0.4119
     35 H10         2.1466   -2.9059    3.1348 H         1 <0>         0.1346
     36 H11         4.4471   -3.0377    3.9966 H         1 <0>         0.1289
     37 H12         3.6494    0.2811    6.5868 H         1 <0>         0.1273
     38 H13         1.3554    0.4044    5.7065 H         1 <0>         0.1354
     39 H14         6.1372   -3.1234    4.6269 H         1 <0>         0.1362
     40 H15         8.4341   -3.2438    5.4967 H         1 <0>         0.1331
     41 H16         7.6320    0.0544    8.0956 H         1 <0>         0.1295
     42 H17         5.3365    0.1894    7.2239 H         1 <0>         0.1309
     43 H18         9.7030    0.2869    7.9340 H         1 <0>         0.0561
     44 H19         9.1628   -0.8416    9.2001 H         1 <0>         0.0551
     45 H20        10.8473   -0.8875    8.6267 H         1 <0>         0.0987
@<TRIPOS>BOND
     1    1    2 1
     2    1   27 1
     3    1   28 1
     4    1   29 1
     5    2    3 1
     6    2    4 1
     7    2   30 1
     8    3   31 1
     9    3   32 1
    10    3   33 1
    11    4    5 1
    12    4    6 1
    13    4    9 1
    14    6    7 2
    15    6    8 1
    16    9   10 1
    17    9   34 1
    18   10   11 2
    19   10   12 2
    20   10   13 1
    21   13   18 ar
    22   13   14 ar
    23   14   15 ar
    24   14   35 1
    25   15   16 ar
    26   15   36 1
    27   16   17 ar
    28   16   19 1
    29   17   18 ar
    30   17   37 1
    31   18   38 1
    32   19   24 ar
    33   19   20 ar
    34   20   21 ar
    35   20   39 1
    36   21   22 ar
    37   21   40 1
    38   22   23 ar
    39   22   25 1
    40   23   24 ar
    41   23   41 1
    42   24   42 1
    43   25   26 1
    44   26   43 1
    45   26   44 1
    46   26   45 1
@<TRIPOS>MOLECULE
ZINC39193938
   63    65     0     0     0
SMALL
USER_CHARGES

@<TRIPOS>ATOM
      1 C1         -0.0187    1.5258    0.0104 C.3       1 <0>        -0.1525
      2 C2          0.0021   -0.0041    0.0020 C.3       1 <0>         0.0513
      3 O1          0.6709   -0.4649   -1.1737 O.3       1 <0>        -0.3140
      4 C3          0.7768   -1.8100   -1.3361 C.ar      1 <0>         0.1423
      5 C4          0.2412   -2.6667   -0.3838 C.ar      1 <0>        -0.2039
      6 C5          0.3465   -4.0319   -0.5449 C.ar      1 <0>        -0.0565
      7 C6          0.9925   -4.5526   -1.6673 C.ar      1 <0>        -0.0546
      8 C7          1.5296   -3.6880   -2.6225 C.ar      1 <0>        -0.0497
      9 C8          1.4151   -2.3239   -2.4569 C.ar      1 <0>        -0.1502
     10 C9          1.1080   -6.0159   -1.8438 C.2       1 <0>        -0.0756
     11 C10         1.7008   -6.7183   -2.8585 C.2       1 <0>        -0.1883
     12 C11         1.6850   -8.0955   -2.8081 C.2       1 <0>        -0.0108
     13 C12         1.0847   -8.7119   -1.7583 C.2       1 <0>        -0.7562
     14 S1          0.5177   -7.3268   -0.7853 S.3       1 <0>         0.1894
     15 S2          0.9141  -10.4358   -1.4359 S.o2      1 <0>         2.7210
     16 O2         -0.2130  -10.5798   -0.5827 O.2       1 <0>        -0.9348
     17 O3          1.0086  -11.0950   -2.6912 O.2       1 <0>        -0.9662
     18 N1          2.2368  -10.9024   -0.5555 N.pl3     1 <0>        -1.0788
     19 C13         2.4448  -10.3686    0.7929 C.3       1 <0>         0.0854
     20 H1          1.9409   -9.4064    0.8844 H         1 <0>         0.0743
     21 C14         3.9430  -10.1856    1.0435 C.3       1 <0>        -0.0712
     22 C15         4.6504  -11.5364    0.9132 C.3       1 <0>        -0.1304
     23 C16         6.1546  -11.3436    1.1305 C.3       1 <0>         0.1301
     24 N2          6.3639  -10.6748    2.4219 N.am      1 <0>        -0.5870
     25 C17         5.6584   -9.4135    2.6868 C.3       1 <0>         0.1140
     26 C18         4.1599   -9.6279    2.4521 C.3       1 <0>        -0.1346
     27 C19         7.1870  -11.2085    3.3461 C.2       1 <0>         0.6509
     28 O4          7.7643  -12.2524    3.1151 O.2       1 <0>        -0.5792
     29 O5          7.3695  -10.5849    4.5254 O.3       1 <0>        -0.3583
     30 C20         8.2557  -11.2071    5.4579 C.3       1 <0>         0.0967
     31 C21         8.9206  -10.1345    6.3230 C.3       1 <0>        -0.1480
     32 C22         7.4653  -12.1652    6.3513 C.3       1 <0>        -0.1729
     33 C23         1.8797  -11.3300    1.8064 C.2       1 <0>         0.4951
     34 O6          1.5185  -12.4411    1.4576 O.co2     1 <0>        -0.6754
     35 O7          1.7836  -10.9969    2.9753 O.co2     1 <0>        -0.6896
     36 H2          1.0039    1.9031    0.0027 H         1 <0>         0.0666
     37 H3         -0.5459    1.8868   -0.8726 H         1 <0>         0.0663
     38 H4         -0.5289    1.8773    0.9072 H         1 <0>         0.0794
     39 H5          0.5293   -0.3651    0.8851 H         1 <0>         0.0650
     40 H6         -1.0205   -0.3814    0.0098 H         1 <0>         0.0644
     41 H7         -0.2582   -2.2630    0.4846 H         1 <0>         0.1349
     42 H8         -0.0700   -4.6976    0.1966 H         1 <0>         0.1313
     43 H9          2.0302   -4.0869   -3.4924 H         1 <0>         0.1363
     44 H10         1.8265   -1.6543   -3.1977 H         1 <0>         0.1371
     45 H11         2.1715   -6.2031   -3.6828 H         1 <0>         0.1410
     46 H12         2.1441   -8.6768   -3.5940 H         1 <0>         0.1474
     47 H13         2.8739  -11.5292   -0.9326 H         1 <0>         0.4134
     48 H14         4.3514   -9.4898    0.3106 H         1 <0>         0.0642
     49 H15         4.2600  -12.2253    1.6622 H         1 <0>         0.0827
     50 H16         4.4760  -11.9439   -0.0826 H         1 <0>         0.0753
     51 H17         6.6502  -12.3143    1.1372 H         1 <0>         0.0934
     52 H18         6.5635  -10.7277    0.3296 H         1 <0>         0.0682
     53 H19         5.8267   -9.1108    3.7204 H         1 <0>         0.0892
     54 H20         6.0269   -8.6402    2.0128 H         1 <0>         0.0633
     55 H21         3.6363   -8.6771    2.5515 H         1 <0>         0.0734
     56 H22         3.7741  -10.3348    3.1866 H         1 <0>         0.1059
     57 H23         9.0210  -11.7631    4.9164 H         1 <0>         0.0830
     58 H24         8.1553   -9.5785    6.8645 H         1 <0>         0.0671
     59 H25         9.5966  -10.6091    7.0344 H         1 <0>         0.0765
     60 H26         9.4837   -9.4519    5.6866 H         1 <0>         0.0620
     61 H27         8.1412  -12.6398    7.0626 H         1 <0>         0.0707
     62 H28         6.7000  -11.6092    6.8928 H         1 <0>         0.0657
     63 H29         6.9916  -12.9293    5.7349 H         1 <0>         0.0644
@<TRIPOS>BOND
     1    1    2 1
     2    1   36 1
     3    1   37 1
     4    1   38 1
     5    2    3 1
     6    2   39 1
     7    2   40 1
     8    3    4 1
     9    4    9 ar
    10    4    5 ar
    11    5    6 ar
    12    5   41 1
    13    6    7 ar
    14    6   42 1
    15    7    8 ar
    16    7   10 1
    17    8    9 ar
    18    8   43 1
    19    9   44 1
    20   10   14 1
    21   10   11 2
    22   11   12 1
    23   11   45 1
    24   12   13 2
    25   12   46 1
    26   13   14 1
    27   13   15 1
    28   15   16 2
    29   15   17 2
    30   15   18 1
    31   18   19 1
    32   18   47 1
    33   19   20 1
    34   19   21 1
    35   19   33 1
    36   21   26 1
    37   21   22 1
    38   21   48 1
    39   22   23 1
    40   22   49 1
    41   22   50 1
    42   23   24 1
    43   23   51 1
    44   23   52 1
    45   24   25 1
    46   24   27 am
    47   25   26 1
    48   25   53 1
    49   25   54 1
    50   26   55 1
    51   26   56 1
    52   27   28 2
    53   27   29 1
    54   29   30 1
    55   30   31 1
    56   30   32 1
    57   30   57 1
    58   31   58 1
    59   31   59 1
    60   31   60 1
    61   32   61 1
    62   32   62 1
    63   32   63 1
    64   33   34 2
    65   33   35 1
@<TRIPOS>MOLECULE
ZINC06744035
   50    53     0     0     0
SMALL
USER_CHARGES
3-phenyl-3-[[4-[4-(4-pyridyl)phenyl]-2-thienyl]carbonylamino]propanoic acid
@<TRIPOS>ATOM
      1 C1          3.3384    8.0117    3.9168 C.ar      1 <0>        -0.1296
      2 C2          2.8712    8.8800    2.9480 C.ar      1 <0>        -0.1204
      3 C3          2.6986    8.4385    1.6494 C.ar      1 <0>        -0.1045
      4 C4          2.9938    7.1289    1.3197 C.ar      1 <0>        -0.0807
      5 C5          3.4561    6.2593    2.2897 C.ar      1 <0>        -0.1082
      6 C6          3.6327    6.7019    3.5873 C.ar      1 <0>        -0.1228
      7 C7          2.8057    6.6476   -0.0960 C.3       1 <0>         0.2043
      8 H1          2.1225    7.3164   -0.6194 H         1 <0>         0.1008
      9 C8          4.1567    6.6348   -0.8140 C.3       1 <0>        -0.1652
     10 C9          3.9508    6.2867   -2.2657 C.2       1 <0>         0.4588
     11 O1          2.8495    5.9919   -2.6659 O.co2     1 <0>        -0.6272
     12 N1          2.2477    5.2932   -0.0812 N.am      1 <0>        -0.6877
     13 C10         0.9140    5.1146   -0.0047 C.2       1 <0>         0.6082
     14 O2          0.1793    6.0733    0.1443 O.2       1 <0>        -0.5294
     15 C11         0.3481    3.7652   -0.1011 C.2       1 <0>        -0.2078
     16 C12        -0.9763    3.3749   -0.0463 C.2       1 <0>        -0.0781
     17 C13        -1.2433    2.0234   -0.1691 C.2       1 <0>        -0.1053
     18 C14        -0.1812    1.1560   -0.3263 C.2       1 <0>        -0.1943
     19 S1          1.1943    2.2106   -0.3178 S.3       1 <0>         0.1755
     20 C15        -2.6371    1.5178   -0.1283 C.ar      1 <0>        -0.0027
     21 C16        -3.6973    2.4086    0.0364 C.ar      1 <0>        -0.1123
     22 C17        -4.9921    1.9398    0.0686 C.ar      1 <0>        -0.0928
     23 C18        -5.2419    0.5729   -0.0520 C.ar      1 <0>        -0.0685
     24 C19        -4.1811   -0.3185   -0.2109 C.ar      1 <0>        -0.0951
     25 C20        -2.8868    0.1511   -0.2489 C.ar      1 <0>        -0.1133
     26 C21        -6.6353    0.0676   -0.0116 C.ar      1 <0>         0.0090
     27 C22        -6.9079   -1.2981   -0.1369 C.ar      1 <0>        -0.1699
     28 C23        -8.2184   -1.7260   -0.0883 C.ar      1 <0>         0.1019
     29 N2         -9.2068   -0.8651    0.0629 N.ar      1 <0>        -0.4919
     30 C24        -8.9933    0.4317    0.1792 C.ar      1 <0>         0.1027
     31 C25        -7.7129    0.9442    0.1469 C.ar      1 <0>        -0.1691
     32 H2          3.4739    8.3568    4.9312 H         1 <0>         0.1163
     33 H3          2.6412    9.9033    3.2055 H         1 <0>         0.1190
     34 H4          2.3336    9.1168    0.8925 H         1 <0>         0.1228
     35 H5          3.6825    5.2349    2.0330 H         1 <0>         0.1164
     36 H6          3.9981    6.0236    4.3442 H         1 <0>         0.1174
     37 H7          4.6178    7.6196   -0.7383 H         1 <0>         0.0837
     38 H8          4.8071    5.8926   -0.3511 H         1 <0>         0.0713
     39 H9          2.8380    4.5248   -0.1265 H         1 <0>         0.3950
     40 H10        -1.7703    4.0957    0.0823 H         1 <0>         0.1490
     41 H11        -0.2024    0.0816   -0.4333 H         1 <0>         0.1905
     42 H12        -3.5035    3.4665    0.1345 H         1 <0>         0.1322
     43 H13        -5.8134    2.6301    0.1917 H         1 <0>         0.1285
     44 H14        -4.3745   -1.3769   -0.3047 H         1 <0>         0.1276
     45 H15        -2.0653   -0.5391   -0.3716 H         1 <0>         0.1282
     46 H16        -6.1040   -2.0078   -0.2655 H         1 <0>         0.1370
     47 H17        -8.4387   -2.7793   -0.1797 H         1 <0>         0.1565
     48 H18        -9.8322    1.1009    0.3010 H         1 <0>         0.1570
     49 H19        -7.5454    2.0068    0.2431 H         1 <0>         0.1379
     50 O3          4.9908    6.3042   -3.1141 O.co2     1 <0>        -0.7712
@<TRIPOS>BOND
     1    1    6 ar
     2    1    2 ar
     3    1   32 1
     4    2    3 ar
     5    2   33 1
     6    3    4 ar
     7    3   34 1
     8    4    5 ar
     9    4    7 1
    10    5    6 ar
    11    5   35 1
    12    6   36 1
    13    7    8 1
    14    7    9 1
    15    7   12 1
    16    9   10 1
    17    9   37 1
    18    9   38 1
    19   10   11 2
    20   10   50 1
    21   12   13 am
    22   12   39 1
    23   13   14 2
    24   13   15 1
    25   15   19 1
    26   15   16 2
    27   16   17 1
    28   16   40 1
    29   17   18 2
    30   17   20 1
    31   18   19 1
    32   18   41 1
    33   20   25 ar
    34   20   21 ar
    35   21   22 ar
    36   21   42 1
    37   22   23 ar
    38   22   43 1
    39   23   24 ar
    40   23   26 1
    41   24   25 ar
    42   24   44 1
    43   25   45 1
    44   26   31 ar
    45   26   27 ar
    46   27   28 ar
    47   27   46 1
    48   28   29 ar
    49   28   47 1
    50   29   30 ar
    51   30   31 ar
    52   30   48 1
    53   31   49 1
@<TRIPOS>MOLECULE
ZINC40953882
   48    50     0     0     0
SMALL
USER_CHARGES

@<TRIPOS>ATOM
      1 C1         -0.4958    0.5810    0.2352 C.3       1 <0>        -0.1421
      2 C2         -0.4575   -0.9369    0.4239 C.3       1 <0>        -0.0807
      3 C3          0.1786   -1.5878   -0.8059 C.3       1 <0>        -0.1426
      4 C4          0.3698   -1.2757    1.6656 C.3       1 <0>         0.0748
      5 H1          0.4716   -2.3576    1.7502 H         1 <0>         0.0814
      6 C5          1.7357   -0.6504    1.5451 C.2       1 <0>         0.4900
      7 O1          1.9309    0.4746    1.9724 O.co2     1 <0>        -0.6794
      8 O2          2.6455   -1.2697    1.0204 O.co2     1 <0>        -0.6901
      9 N1         -0.3028   -0.7538    2.8578 N.pl3     1 <0>        -1.0827
     10 S1         -0.2280   -1.5917    4.2842 S.o2      1 <0>         2.7006
     11 O3         -0.9444   -0.8259    5.2432 O.2       1 <0>        -0.9702
     12 O4         -0.5624   -2.9392    3.9817 O.2       1 <0>        -0.9616
     13 C6          1.4571   -1.5944    4.7991 C.ar      1 <0>        -0.6298
     14 C7          2.2998   -2.6139    4.3852 C.ar      1 <0>        -0.0271
     15 C8          3.6203   -2.6246    4.7825 C.ar      1 <0>        -0.0735
     16 C9          4.1028   -1.6082    5.6000 C.ar      1 <0>        -0.0717
     17 C10         5.4189   -1.3112    6.1975 C.ar      1 <0>        -0.1044
     18 C11         6.6586   -1.9402    6.1621 C.ar      1 <0>        -0.0542
     19 C12         7.7266   -1.3897    6.8508 C.ar      1 <0>         0.1300
     20 C13         7.5555   -0.2130    7.5735 C.ar      1 <0>        -0.0989
     21 C14         6.3285    0.4134    7.6117 C.ar      1 <0>        -0.0955
     22 C15         5.2467   -0.1260    6.9254 C.ar      1 <0>         0.0839
     23 O5          3.9615    0.2739    6.7962 O.3       1 <0>        -0.1942
     24 C16         3.2532   -0.5757    6.0203 C.ar      1 <0>         0.0629
     25 C17         1.9266   -0.5791    5.6054 C.ar      1 <0>         0.0054
     26 N2          8.9791   -2.0179    6.8203 N.am      1 <0>        -0.6456
     27 C18         9.3744   -2.6795    5.7147 C.2       1 <0>         0.6424
     28 O6          8.6890   -2.6507    4.7117 O.2       1 <0>        -0.5427
     29 O7         10.5289   -3.3725    5.7214 O.3       1 <0>        -0.3639
     30 C19        10.8861   -4.0498    4.5149 C.3       1 <0>         0.0523
     31 H2          0.5194    0.9572    0.1092 H         1 <0>         0.0714
     32 H3         -1.0852    0.8224   -0.6494 H         1 <0>         0.0420
     33 H4         -0.9490    1.0447    1.1114 H         1 <0>         0.0491
     34 H5         -1.4727   -1.3131    0.5500 H         1 <0>         0.0634
     35 H6          1.1938   -1.2115   -0.9320 H         1 <0>         0.0720
     36 H7          0.2059   -2.6691   -0.6715 H         1 <0>         0.0512
     37 H8         -0.4108   -1.3464   -1.6905 H         1 <0>         0.0458
     38 H9         -0.7919    0.0826    2.8117 H         1 <0>         0.4149
     39 H10         1.9214   -3.4017    3.7507 H         1 <0>         0.1471
     40 H11         4.2770   -3.4192    4.4604 H         1 <0>         0.1370
     41 H12         6.7879   -2.8536    5.6005 H         1 <0>         0.1442
     42 H13         8.3911    0.2128    8.1091 H         1 <0>         0.1436
     43 H14         6.2073    1.3261    8.1762 H         1 <0>         0.1437
     44 H15         1.2617    0.2125    5.9179 H         1 <0>         0.1498
     45 H16         9.5614   -1.9765    7.5949 H         1 <0>         0.4183
     46 H17        10.1115   -4.7737    4.2616 H         1 <0>         0.0641
     47 H18        10.9843   -3.3250    3.7068 H         1 <0>         0.0642
     48 H19        11.8349   -4.5674    4.6560 H         1 <0>         0.1054
@<TRIPOS>BOND
     1    1    2 1
     2    1   31 1
     3    1   32 1
     4    1   33 1
     5    2    3 1
     6    2    4 1
     7    2   34 1
     8    3   35 1
     9    3   36 1
    10    3   37 1
    11    4    5 1
    12    4    6 1
    13    4    9 1
    14    6    7 2
    15    6    8 1
    16    9   10 1
    17    9   38 1
    18   10   11 2
    19   10   12 2
    20   10   13 1
    21   13   25 ar
    22   13   14 ar
    23   14   15 ar
    24   14   39 1
    25   15   16 ar
    26   15   40 1
    27   16   24 ar
    28   16   17 1
    29   17   22 ar
    30   17   18 ar
    31   18   19 ar
    32   18   41 1
    33   19   20 ar
    34   19   26 1
    35   20   21 ar
    36   20   42 1
    37   21   22 ar
    38   21   43 1
    39   22   23 1
    40   23   24 1
    41   24   25 ar
    42   25   44 1
    43   26   27 am
    44   26   45 1
    45   27   28 2
    46   27   29 1
    47   29   30 1
    48   30   46 1
    49   30   47 1
    50   30   48 1
@<TRIPOS>MOLECULE
ZINC43014500
   49    52     0     0     0
SMALL
USER_CHARGES

@<TRIPOS>ATOM
      1 C1         -0.0187    1.5258    0.0104 C.3       1 <0>        -0.1420
      2 C2          0.0021   -0.0041    0.0020 C.3       1 <0>        -0.0807
      3 C3          0.7421   -0.5109    1.2415 C.3       1 <0>        -0.1427
      4 C4         -1.4333   -0.5336    0.0129 C.3       1 <0>         0.0748
      5 H1         -1.4190   -1.6203    0.0965 H         1 <0>         0.0817
      6 C5         -2.1755    0.0508    1.1870 C.2       1 <0>         0.4901
      7 O1         -2.7808    1.1019    1.0636 O.co2     1 <0>        -0.6798
      8 O2         -2.1706   -0.5275    2.2604 O.co2     1 <0>        -0.6901
      9 N1         -2.1054   -0.1483   -1.2305 N.pl3     1 <0>        -1.0826
     10 S1         -3.2090   -1.1686   -1.9257 S.o2      1 <0>         2.7004
     11 O3         -3.6969   -0.5094   -3.0862 O.2       1 <0>        -0.9702
     12 O4         -2.5998   -2.4514   -1.9777 O.2       1 <0>        -0.9611
     13 C6         -4.5687   -1.3016   -0.8130 C.ar      1 <0>        -0.6285
     14 C7         -4.5656   -2.2885    0.1600 C.ar      1 <0>        -0.0276
     15 C8         -5.6249   -2.4004    1.0358 C.ar      1 <0>        -0.0717
     16 C9         -6.6962   -1.5189    0.9385 C.ar      1 <0>        -0.0741
     17 C10        -7.9577   -1.3527    1.6856 C.ar      1 <0>        -0.0929
     18 C11        -8.5367   -2.0171    2.7613 C.ar      1 <0>        -0.0886
     19 C12        -9.7678   -1.6023    3.2412 C.ar      1 <0>         0.1553
     20 C13       -10.4186   -0.5255    2.6471 C.ar      1 <0>        -0.1135
     21 C14        -9.8487    0.1356    1.5806 C.ar      1 <0>        -0.0865
     22 C15        -8.6134   -0.2681    1.0873 C.ar      1 <0>         0.0743
     23 O5         -7.8440    0.1932    0.0756 O.3       1 <0>        -0.1943
     24 C16        -6.7025   -0.5197   -0.0444 C.ar      1 <0>         0.0644
     25 C17        -5.6234   -0.4192   -0.9148 C.ar      1 <0>         0.0042
     26 N2        -10.3580   -2.2671    4.3247 N.am      1 <0>        -0.5709
     27 C18       -11.6613   -1.9446    4.9386 C.3       1 <0>         0.0581
     28 C19       -11.9440   -3.2062    5.7883 C.3       1 <0>         0.0395
     29 O6        -10.6173   -3.7239    6.0076 O.3       1 <0>        -0.3199
     30 C20        -9.8409   -3.3181    4.9885 C.2       1 <0>         0.6417
     31 O7         -8.7834   -3.8420    4.6987 O.2       1 <0>        -0.4900
     32 H2          1.0039    1.9031    0.0027 H         1 <0>         0.0419
     33 H3         -0.5459    1.8868   -0.8726 H         1 <0>         0.0491
     34 H4         -0.5289    1.8773    0.9072 H         1 <0>         0.0713
     35 H5          0.5123   -0.3556   -0.8948 H         1 <0>         0.0634
     36 H6          0.2319   -0.1594    2.1383 H         1 <0>         0.0719
     37 H7          0.7568   -1.6008    1.2356 H         1 <0>         0.0514
     38 H8          1.7647   -0.1336    1.2338 H         1 <0>         0.0458
     39 H9         -1.9040    0.7045   -1.6466 H         1 <0>         0.4149
     40 H10        -3.7320   -2.9715    0.2322 H         1 <0>         0.1476
     41 H11        -5.6227   -3.1697    1.7938 H         1 <0>         0.1388
     42 H12        -8.0290   -2.8528    3.2199 H         1 <0>         0.1624
     43 H13       -11.3785   -0.2053    3.0246 H         1 <0>         0.1406
     44 H14       -10.3632    0.9697    1.1267 H         1 <0>         0.1438
     45 H15        -5.6130    0.3484   -1.6745 H         1 <0>         0.1498
     46 H16       -11.5841   -1.0601    5.5710 H         1 <0>         0.0997
     47 H17       -12.4276   -1.8113    4.1750 H         1 <0>         0.1076
     48 H18       -12.4193   -2.9410    6.7327 H         1 <0>         0.1260
     49 H19       -12.5537   -3.9200    5.2343 H         1 <0>         0.0973
@<TRIPOS>BOND
     1    1    2 1
     2    1   32 1
     3    1   33 1
     4    1   34 1
     5    2    3 1
     6    2    4 1
     7    2   35 1
     8    3   36 1
     9    3   37 1
    10    3   38 1
    11    4    5 1
    12    4    6 1
    13    4    9 1
    14    6    7 2
    15    6    8 1
    16    9   10 1
    17    9   39 1
    18   10   11 2
    19   10   12 2
    20   10   13 1
    21   13   25 ar
    22   13   14 ar
    23   14   15 ar
    24   14   40 1
    25   15   16 ar
    26   15   41 1
    27   16   24 ar
    28   16   17 1
    29   17   22 ar
    30   17   18 ar
    31   18   19 ar
    32   18   42 1
    33   19   20 ar
    34   19   26 1
    35   20   21 ar
    36   20   43 1
    37   21   22 ar
    38   21   44 1
    39   22   23 1
    40   23   24 1
    41   24   25 ar
    42   25   45 1
    43   26   30 am
    44   26   27 1
    45   27   28 1
    46   27   46 1
    47   27   47 1
    48   28   29 1
    49   28   48 1
    50   28   49 1
    51   29   30 1
    52   30   31 2
@<TRIPOS>MOLECULE
ZINC02539209
   41    42     0     0     0
SMALL
USER_CHARGES

@<TRIPOS>ATOM
      1 C1         -0.0187    1.5258    0.0104 C.3       1 <0>        -0.1855
      2 C2          0.0021   -0.0041    0.0020 C.3       1 <0>         0.1356
      3 C3          0.7421   -0.5109    1.2415 C.3       1 <0>        -0.1827
      4 C4         -1.4333   -0.5336    0.0129 C.3       1 <0>        -0.1366
      5 O1          0.6709   -0.4649   -1.1737 O.3       1 <0>        -0.3650
      6 C5          1.9522   -0.0848   -1.3367 C.2       1 <0>         0.6494
      7 O2          2.4879    0.6189   -0.5034 O.2       1 <0>        -0.5743
      8 N1          2.6407   -0.4850   -2.4240 N.am      1 <0>        -0.6689
      9 C6          4.0349   -0.0714   -2.6014 C.3       1 <0>         0.1022
     10 H1          4.5261   -0.0235   -1.6295 H         1 <0>         0.0834
     11 C7          4.7587   -1.0856   -3.4893 C.3       1 <0>        -0.0421
     12 C8          4.8240   -2.4152   -2.7829 C.2       1 <0>        -0.1510
     13 C9          5.8400   -2.8725   -2.0342 C.2       1 <0>         0.0443
     14 N2          5.5422   -4.1190   -1.5548 N.pl3     1 <0>        -0.5981
     15 H2          6.1228   -4.6520   -0.9894 H         1 <0>         0.4120
     16 C10         4.2954   -4.5041   -1.9945 C.ar      1 <0>         0.0940
     17 C11         3.7882   -3.4510   -2.7778 C.ar      1 <0>        -0.0942
     18 C12         2.5231   -3.5609   -3.3574 C.ar      1 <0>        -0.0648
     19 C13         1.7811   -4.6910   -3.1576 C.ar      1 <0>        -0.1492
     20 C14         2.2752   -5.7308   -2.3824 C.ar      1 <0>        -0.1028
     21 C15         3.5252   -5.6472   -1.8086 C.ar      1 <0>        -0.1353
     22 C16         4.0770    1.2868   -3.2529 C.2       1 <0>         0.4906
     23 O3          5.0007    2.0472   -3.0182 O.co2     1 <0>        -0.6926
     24 O4          3.1873    1.6254   -4.0147 O.co2     1 <0>        -0.6875
     25 H3          1.0039    1.9031    0.0027 H         1 <0>         0.0913
     26 H4         -0.5459    1.8868   -0.8726 H         1 <0>         0.0582
     27 H5         -0.5289    1.8773    0.9072 H         1 <0>         0.0617
     28 H6          0.2319   -0.1594    2.1383 H         1 <0>         0.0622
     29 H7          0.7568   -1.6008    1.2356 H         1 <0>         0.0541
     30 H8          1.7647   -0.1336    1.2338 H         1 <0>         0.0892
     31 H9         -1.9605   -0.1726   -0.8702 H         1 <0>         0.0646
     32 H10        -1.4185   -1.6235    0.0069 H         1 <0>         0.0626
     33 H11        -1.9435   -0.1821    0.9097 H         1 <0>         0.0738
     34 H12         2.2131   -1.0467   -3.0892 H         1 <0>         0.3943
     35 H13         4.2163   -1.1991   -4.4279 H         1 <0>         0.0749
     36 H14         5.7696   -0.7330   -3.6941 H         1 <0>         0.0887
     37 H15         6.7570   -2.3362   -1.8394 H         1 <0>         0.1705
     38 H16         2.1319   -2.7555   -3.9613 H         1 <0>         0.1194
     39 H17         0.8024   -4.7756   -3.6062 H         1 <0>         0.1198
     40 H18         1.6767   -6.6173   -2.2330 H         1 <0>         0.1200
     41 H19         3.9004   -6.4612   -1.2060 H         1 <0>         0.1143
@<TRIPOS>BOND
     1    1    2 1
     2    1   25 1
     3    1   26 1
     4    1   27 1
     5    2    3 1
     6    2    4 1
     7    2    5 1
     8    3   28 1
     9    3   29 1
    10    3   30 1
    11    4   31 1
    12    4   32 1
    13    4   33 1
    14    5    6 1
    15    6    7 2
    16    6    8 am
    17    8    9 1
    18    8   34 1
    19    9   10 1
    20    9   11 1
    21    9   22 1
    22   11   12 1
    23   11   35 1
    24   11   36 1
    25   12   17 1
    26   12   13 2
    27   13   14 1
    28   13   37 1
    29   14   15 1
    30   14   16 1
    31   16   21 ar
    32   16   17 ar
    33   17   18 ar
    34   18   19 ar
    35   18   38 1
    36   19   20 ar
    37   19   39 1
    38   20   21 ar
    39   20   40 1
    40   21   41 1
    41   22   23 2
    42   22   24 1
@<TRIPOS>MOLECULE
ZINC06116142
   46    48     0     0     0
SMALL
USER_CHARGES
4-[4-(4-chlorophenyl)phenyl]-4-oxo-2-(phenylsulfanylmethyl)butanoic acid
@<TRIPOS>ATOM
      1 C1         -0.0167    1.3788    0.0096 C.ar      1 <0>        -0.1443
      2 C2          1.1695    2.0899    0.0021 C.ar      1 <0>        -0.0999
      3 C3          2.3774    1.4209   -0.0131 C.ar      1 <0>        -0.1423
      4 C4          2.4001    0.0314   -0.0208 C.ar      1 <0>        -0.0769
      5 C5          1.2062   -0.6798   -0.0132 C.ar      1 <0>        -0.1106
      6 C6          0.0021   -0.0041    0.0020 C.ar      1 <0>        -0.1012
      7 S1          3.9390   -0.8266   -0.0396 S.3       1 <0>        -0.0667
      8 C7          5.1794    0.4971   -0.0445 C.3       1 <0>        -0.0815
      9 C8          6.5806   -0.1171   -0.0608 C.3       1 <0>        -0.1180
     10 H1          6.6846   -0.8071    0.7766 H         1 <0>         0.0834
     11 C9          7.6257    0.9936    0.0607 C.3       1 <0>        -0.1207
     12 C10         8.9988    0.3819    0.1683 C.2       1 <0>         0.3567
     13 O1          9.1286   -0.8238    0.1496 O.2       1 <0>        -0.3573
     14 C11        10.1806    1.2464    0.2958 C.ar      1 <0>        -0.1321
     15 C12        10.0325    2.6385    0.3118 C.ar      1 <0>        -0.0817
     16 C13        11.1357    3.4427    0.4357 C.ar      1 <0>        -0.1181
     17 C14        12.4069    2.8749    0.5357 C.ar      1 <0>        -0.0425
     18 C15        12.5575    1.4875    0.5147 C.ar      1 <0>        -0.1162
     19 C16        11.4567    0.6791    0.3958 C.ar      1 <0>        -0.0664
     20 C17        13.5987    3.7467    0.6639 C.ar      1 <0>        -0.0327
     21 C18        14.8698    3.1831    0.7693 C.ar      1 <0>        -0.0992
     22 C19        15.9763    3.9992    0.8827 C.ar      1 <0>        -0.1068
     23 C20        15.8253    5.3755    0.9033 C.ar      1 <0>        -0.0381
     24 C21        14.5649    5.9402    0.8047 C.ar      1 <0>        -0.1073
     25 C22        13.4523    5.1333    0.6853 C.ar      1 <0>        -0.0995
     26 Cl1        17.2212    6.3966    1.0540 Cl        1 <0>        -0.0739
     27 C23         6.7875   -0.8622   -1.3543 C.2       1 <0>         0.4579
     28 O2          5.9048   -0.8983   -2.1785 O.co2     1 <0>        -0.6241
     29 H2         -0.9600    1.9047    0.0170 H         1 <0>         0.1178
     30 H3          1.1511    3.1697    0.0081 H         1 <0>         0.1192
     31 H4          3.3033    1.9769   -0.0186 H         1 <0>         0.1208
     32 H5          1.2201   -1.7597   -0.0194 H         1 <0>         0.1247
     33 H6         -0.9262   -0.5561    0.0076 H         1 <0>         0.1216
     34 H7          5.0446    1.1180   -0.9302 H         1 <0>         0.0871
     35 H8          5.0613    1.1090    0.8497 H         1 <0>         0.0728
     36 H9          7.5845    1.5800   -0.7483 H         1 <0>         0.0804
     37 H10         7.4222    1.5883    0.9513 H         1 <0>         0.0817
     38 H11         9.0495    3.0784    0.2299 H         1 <0>         0.1332
     39 H12        11.0217    4.5166    0.4515 H         1 <0>         0.1280
     40 H13        13.5421    1.0504    0.5919 H         1 <0>         0.1283
     41 H14        11.5738   -0.3944    0.3789 H         1 <0>         0.1375
     42 H15        14.9882    2.1096    0.7582 H         1 <0>         0.1373
     43 H16        16.9616    3.5638    0.9602 H         1 <0>         0.1350
     44 H17        14.4525    7.0142    0.8217 H         1 <0>         0.1348
     45 H18        12.4696    5.5747    0.6088 H         1 <0>         0.1369
     46 O3          7.9524   -1.4858   -1.5906 O.co2     1 <0>        -0.7371
@<TRIPOS>BOND
     1    1    6 ar
     2    1    2 ar
     3    1   29 1
     4    2    3 ar
     5    2   30 1
     6    3    4 ar
     7    3   31 1
     8    4    5 ar
     9    4    7 1
    10    5    6 ar
    11    5   32 1
    12    6   33 1
    13    7    8 1
    14    8    9 1
    15    8   34 1
    16    8   35 1
    17    9   10 1
    18    9   11 1
    19    9   27 1
    20   11   12 1
    21   11   36 1
    22   11   37 1
    23   12   13 2
    24   12   14 1
    25   14   19 ar
    26   14   15 ar
    27   15   16 ar
    28   15   38 1
    29   16   17 ar
    30   16   39 1
    31   17   18 ar
    32   17   20 1
    33   18   19 ar
    34   18   40 1
    35   19   41 1
    36   20   25 ar
    37   20   21 ar
    38   21   22 ar
    39   21   42 1
    40   22   23 ar
    41   22   43 1
    42   23   24 ar
    43   23   26 1
    44   24   25 ar
    45   24   44 1
    46   25   45 1
    47   27   28 2
    48   27   46 1
@<TRIPOS>MOLECULE
ZINC00580328
   49    51     0     0     0
SMALL
USER_CHARGES

@<TRIPOS>ATOM
      1 C1         -0.0029    1.3711   -0.0350 C.3       1 <0>        -0.1551
      2 C2          0.0599   -0.1492    0.1253 C.3       1 <0>        -0.0205
      3 C3         -1.3580   -0.7082    0.2895 C.3       1 <0>         0.1574
      4 H1         -1.3146   -1.7952    0.3563 H         1 <0>         0.1168
      5 N1         -1.9569   -0.1678    1.5108 N.pl3     1 <0>        -0.9918
      6 C4         -1.4145   -0.5101    2.8265 C.3       1 <0>         0.1160
      7 C5         -0.0034    0.0725    2.9646 C.3       1 <0>        -0.1077
      8 S1          1.0250   -0.5670    1.6084 S.3       1 <0>        -0.2262
      9 S2         -3.2637    0.8436    1.4027 S.o2      1 <0>         2.6638
     10 O1         -3.2544    1.6460    2.5755 O.2       1 <0>        -0.9406
     11 O2         -3.2374    1.4031    0.0968 O.2       1 <0>        -0.9070
     12 C6         -4.7087   -0.1609    1.4913 C.ar      1 <0>        -0.6812
     13 C7         -5.3754   -0.5145    0.3327 C.ar      1 <0>        -0.0242
     14 C8         -6.5084   -1.3019    0.3993 C.ar      1 <0>        -0.1440
     15 C9         -6.9773   -1.7380    1.6303 C.ar      1 <0>         0.1424
     16 C10        -6.3064   -1.3817    2.7914 C.ar      1 <0>        -0.1508
     17 C11        -5.1706   -0.5988    2.7188 C.ar      1 <0>        -0.0009
     18 O3         -8.0919   -2.5123    1.6986 O.3       1 <0>        -0.2546
     19 C12        -9.2474   -1.9310    2.1098 C.ar      1 <0>         0.1604
     20 C13       -10.3960   -2.6917    2.3154 C.ar      1 <0>        -0.1954
     21 C14       -11.5508   -2.0633    2.7336 C.ar      1 <0>         0.1366
     22 N2        -11.5753   -0.7598    2.9382 N.ar      1 <0>        -0.5003
     23 C15       -10.5082   -0.0056    2.7544 C.ar      1 <0>         0.1393
     24 C16        -9.3135   -0.5593    2.3425 C.ar      1 <0>        -0.2494
     25 C17        -2.1953   -0.3110   -0.8989 C.2       1 <0>         0.5107
     26 O4         -1.8928    0.6627   -1.5556 O.2       1 <0>        -0.4421
     27 N3         -3.2804   -1.0378   -1.2319 N.am      1 <0>        -0.6056
     28 O5         -4.0671   -0.6646   -2.3485 O.3       1 <0>        -0.3002
     29 C18         0.7201   -0.7686   -1.1082 C.3       1 <0>        -0.1346
     30 H2          0.9974    1.7898    0.0758 H         1 <0>         0.0685
     31 H3         -0.3921    1.6165   -1.0231 H         1 <0>         0.1121
     32 H4         -0.6587    1.7901    0.7282 H         1 <0>         0.0417
     33 H5         -2.0566   -0.0950    3.6034 H         1 <0>         0.1078
     34 H6         -1.3719   -1.5942    2.9312 H         1 <0>         0.0967
     35 H7         -0.0494    1.1600    2.9073 H         1 <0>         0.0943
     36 H8          0.4245   -0.2280    3.9210 H         1 <0>         0.1249
     37 H9         -5.0102   -0.1745   -0.6251 H         1 <0>         0.1711
     38 H10        -7.0290   -1.5776   -0.5059 H         1 <0>         0.1463
     39 H11        -6.6695   -1.7195    3.7507 H         1 <0>         0.1444
     40 H12        -4.6455   -0.3248    3.6219 H         1 <0>         0.1468
     41 H13       -10.3827   -3.7588    2.1494 H         1 <0>         0.1473
     42 H14       -12.4461   -2.6453    2.8951 H         1 <0>         0.1686
     43 H15       -10.5698    1.0579    2.9325 H         1 <0>         0.1629
     44 H16        -8.4426    0.0630    2.1984 H         1 <0>         0.1388
     45 H17        -3.5223   -1.8166   -0.7066 H         1 <0>         0.4038
     46 H18        -4.8235   -1.2455   -2.5085 H         1 <0>         0.3858
     47 H19         1.7303   -0.3739   -1.2164 H         1 <0>         0.0779
     48 H20         0.7637   -1.8515   -0.9917 H         1 <0>         0.0674
     49 H21         0.1366   -0.5218   -1.9951 H         1 <0>         0.0819
@<TRIPOS>BOND
     1    1    2 1
     2    1   30 1
     3    1   31 1
     4    1   32 1
     5    2    8 1
     6    2    3 1
     7    2   29 1
     8    3    4 1
     9    3    5 1
    10    3   25 1
    11    5    6 1
    12    5    9 1
    13    6    7 1
    14    6   33 1
    15    6   34 1
    16    7    8 1
    17    7   35 1
    18    7   36 1
    19    9   10 2
    20    9   11 2
    21    9   12 1
    22   12   17 ar
    23   12   13 ar
    24   13   14 ar
    25   13   37 1
    26   14   15 ar
    27   14   38 1
    28   15   16 ar
    29   15   18 1
    30   16   17 ar
    31   16   39 1
    32   17   40 1
    33   18   19 1
    34   19   24 ar
    35   19   20 ar
    36   20   21 ar
    37   20   41 1
    38   21   22 ar
    39   21   42 1
    40   22   23 ar
    41   23   24 ar
    42   23   43 1
    43   24   44 1
    44   25   26 2
    45   25   27 am
    46   27   28 1
    47   27   45 1
    48   28   46 1
    49   29   47 1
    50   29   48 1
    51   29   49 1
@<TRIPOS>MOLECULE
ZINC00580328
   50    52     0     0     0
SMALL
USER_CHARGES

@<TRIPOS>ATOM
      1 C1         -0.0029    1.3711   -0.0350 C.3       1 <0>        -0.1559
      2 C2          0.0599   -0.1492    0.1253 C.3       1 <0>        -0.0229
      3 C3         -1.3580   -0.7082    0.2895 C.3       1 <0>         0.1575
      4 H1         -1.3146   -1.7952    0.3563 H         1 <0>         0.1190
      5 N1         -1.9569   -0.1678    1.5108 N.pl3     1 <0>        -0.9895
      6 C4         -1.4145   -0.5101    2.8265 C.3       1 <0>         0.1158
      7 C5         -0.0034    0.0725    2.9646 C.3       1 <0>        -0.1109
      8 S1          1.0250   -0.5670    1.6084 S.3       1 <0>        -0.2176
      9 S2         -3.2637    0.8436    1.4027 S.o2      1 <0>         2.6595
     10 O1         -3.2544    1.6460    2.5755 O.2       1 <0>        -0.9343
     11 O2         -3.2374    1.4031    0.0968 O.2       1 <0>        -0.9002
     12 C6         -4.7087   -0.1609    1.4913 C.ar      1 <0>        -0.6647
     13 C7         -5.3754   -0.5145    0.3327 C.ar      1 <0>        -0.0213
     14 C8         -6.5084   -1.3019    0.3993 C.ar      1 <0>        -0.1296
     15 C9         -6.9773   -1.7380    1.6303 C.ar      1 <0>         0.0976
     16 C10        -6.3064   -1.3817    2.7914 C.ar      1 <0>        -0.1433
     17 C11        -5.1706   -0.5988    2.7188 C.ar      1 <0>         0.0014
     18 O3         -8.0919   -2.5123    1.6986 O.3       1 <0>        -0.2172
     19 C12        -9.2474   -1.9310    2.1098 C.ar      1 <0>         0.2458
     20 C13       -10.3960   -2.6917    2.3154 C.ar      1 <0>        -0.1546
     21 C14       -11.5508   -2.0633    2.7336 C.ar      1 <0>         0.1685
     22 N2        -11.5753   -0.7598    2.9382 N.ar      1 <0>        -0.4682
     23 C15       -10.5083   -0.0055    2.7539 C.ar      1 <0>         0.1749
     24 C16        -9.3135   -0.5593    2.3425 C.ar      1 <0>        -0.2149
     25 C17        -2.1953   -0.3110   -0.8989 C.2       1 <0>         0.5084
     26 O4         -1.8928    0.6627   -1.5556 O.2       1 <0>        -0.4349
     27 N3         -3.2804   -1.0378   -1.2319 N.am      1 <0>        -0.6093
     28 O5         -4.0671   -0.6646   -2.3485 O.3       1 <0>        -0.2988
     29 C18         0.7201   -0.7686   -1.1082 C.3       1 <0>        -0.1360
     30 H2          0.9974    1.7898    0.0758 H         1 <0>         0.0714
     31 H3         -0.3921    1.6165   -1.0231 H         1 <0>         0.1118
     32 H4         -0.6587    1.7901    0.7282 H         1 <0>         0.0405
     33 H5         -2.0566   -0.0950    3.6034 H         1 <0>         0.1071
     34 H6         -1.3719   -1.5942    2.9312 H         1 <0>         0.0981
     35 H7         -0.0494    1.1600    2.9073 H         1 <0>         0.0952
     36 H8          0.4245   -0.2280    3.9210 H         1 <0>         0.1270
     37 H9         -5.0102   -0.1745   -0.6251 H         1 <0>         0.1791
     38 H10        -7.0290   -1.5776   -0.5059 H         1 <0>         0.1529
     39 H11        -6.6695   -1.7195    3.7507 H         1 <0>         0.1492
     40 H12        -4.6455   -0.3248    3.6219 H         1 <0>         0.1552
     41 H13       -10.3827   -3.7588    2.1494 H         1 <0>         0.1957
     42 H14       -12.4461   -2.6453    2.8951 H         1 <0>         0.2201
     43 H15       -10.5700    1.0580    2.9318 H         1 <0>         0.2154
     44 H16        -8.4426    0.0630    2.1984 H         1 <0>         0.1847
     45 H17        -3.5223   -1.8166   -0.7066 H         1 <0>         0.4019
     46 H18        -4.8235   -1.2455   -2.5085 H         1 <0>         0.3840
     47 H19         1.7303   -0.3739   -1.2164 H         1 <0>         0.0804
     48 H20         0.7637   -1.8515   -0.9917 H         1 <0>         0.0684
     49 H21         0.1366   -0.5218   -1.9951 H         1 <0>         0.0819
     50 H22       -12.4011   -0.3444    3.2320 H         1 <0>         0.4557
@<TRIPOS>BOND
     1    1    2 1
     2    1   30 1
     3    1   31 1
     4    1   32 1
     5    2    8 1
     6    2    3 1
     7    2   29 1
     8    3    4 1
     9    3    5 1
    10    3   25 1
    11    5    6 1
    12    5    9 1
    13    6    7 1
    14    6   33 1
    15    6   34 1
    16    7    8 1
    17    7   35 1
    18    7   36 1
    19    9   10 2
    20    9   11 2
    21    9   12 1
    22   12   17 ar
    23   12   13 ar
    24   13   14 ar
    25   13   37 1
    26   14   15 ar
    27   14   38 1
    28   15   16 ar
    29   15   18 1
    30   16   17 ar
    31   16   39 1
    32   17   40 1
    33   18   19 1
    34   19   24 ar
    35   19   20 ar
    36   20   21 ar
    37   20   41 1
    38   21   22 ar
    39   21   42 1
    40   22   23 ar
    41   22   50 1
    42   23   24 ar
    43   23   43 1
    44   24   44 1
    45   25   26 2
    46   25   27 am
    47   27   28 1
    48   27   45 1
    49   28   46 1
    50   29   47 1
    51   29   48 1
    52   29   49 1
@<TRIPOS>MOLECULE
ZINC03939175
   75    75     0     0     0
SMALL
USER_CHARGES
N-[2,2-dimethyl-1-(methylcarbamoyl)propyl]-4-methyl-2-[2-sulfanyl-4-(3,4,4-trimethyl-2,5-dioxo-imidazolidin-1-yl)-butanoyl]amino-pentanamide
@<TRIPOS>ATOM
      1 C1         -0.4809    2.4416   -0.5648 C.3       1 <0>        -0.1426
      2 C2         -0.6741    3.8342    0.0388 C.3       1 <0>        -0.0909
      3 C3          0.6771    4.5474    0.1187 C.3       1 <0>        -0.1485
      4 C4         -1.2657    3.7035    1.4437 C.3       1 <0>        -0.1232
      5 C5         -2.6702    3.1037    1.3519 C.3       1 <0>         0.1286
      6 H1         -2.6273    2.1596    0.8089 H         1 <0>         0.1200
      7 C6         -3.2045    2.8610    2.7400 C.2       1 <0>         0.5185
      8 O1         -4.2227    3.4111    3.1027 O.2       1 <0>        -0.5266
      9 N1         -2.5508    2.0325    3.5784 N.am      1 <0>        -0.7056
     10 C7         -3.0702    1.7966    4.9277 C.3       1 <0>         0.1372
     11 H2         -3.5256    2.7114    5.3069 H         1 <0>         0.1138
     12 C8         -1.9404    1.3841    5.8358 C.2       1 <0>         0.5155
     13 O2         -0.8672    1.0719    5.3651 O.2       1 <0>        -0.5305
     14 N2         -2.1227    1.3621    7.1710 N.am      1 <0>        -0.7293
     15 C9         -1.0552    0.8752    8.0482 C.3       1 <0>         0.0839
     16 C10        -4.1203    0.6848    4.8828 C.3       1 <0>        -0.0715
     17 C11        -3.4487   -0.6360    4.5015 C.3       1 <0>        -0.1452
     18 C12        -4.7748    0.5455    6.2587 C.3       1 <0>        -0.1582
     19 C13        -5.1876    1.0330    3.8433 C.3       1 <0>        -0.1330
     20 N3         -3.5533    4.0343    0.6446 N.am      1 <0>        -0.6985
     21 C14        -3.6018    4.0254   -0.7023 C.2       1 <0>         0.5237
     22 O3         -2.9142    3.2471   -1.3287 O.2       1 <0>        -0.5192
     23 C15        -4.5102    4.9826   -1.4299 C.3       1 <0>        -0.0627
     24 H3         -5.3347    5.2687   -0.7768 H         1 <0>         0.1420
     25 C16        -5.0649    4.3053   -2.6847 C.3       1 <0>        -0.1197
     26 C17        -6.0824    5.2300   -3.3559 C.3       1 <0>         0.1143
     27 N4         -6.6135    4.5815   -4.5574 N.am      1 <0>        -0.5751
     28 C18        -7.7038    3.7894   -4.5710 C.2       1 <0>         0.5296
     29 O4         -8.4029    3.4896   -3.6270 O.2       1 <0>        -0.4601
     30 C19        -7.8737    3.3508   -6.0120 C.3       1 <0>         0.1161
     31 N5         -6.7543    4.0083   -6.7083 N.am      1 <0>        -0.6207
     32 C20        -6.0794    4.7069   -5.7777 C.2       1 <0>         0.6984
     33 O5         -5.0927    5.3747   -6.0179 O.2       1 <0>        -0.5361
     34 C21        -6.4409    3.9231   -8.1369 C.3       1 <0>         0.1190
     35 C22        -7.7608    1.8294   -6.1285 C.3       1 <0>        -0.1464
     36 C23        -9.2152    3.8335   -6.5670 C.3       1 <0>        -0.1455
     37 S1         -3.5740    6.4620   -1.9050 S.3       1 <0>        -0.1877
     38 H4         -0.0594    2.5347   -1.5657 H         1 <0>         0.0494
     39 H5          0.1980    1.8645    0.0631 H         1 <0>         0.0450
     40 H6         -1.4435    1.9335   -0.6217 H         1 <0>         0.0700
     41 H7         -1.3530    4.4113   -0.5891 H         1 <0>         0.0752
     42 H8          1.0986    4.6405   -0.8822 H         1 <0>         0.0536
     43 H9          0.5395    5.5395    0.5487 H         1 <0>         0.0529
     44 H10         1.3560    3.9703    0.7465 H         1 <0>         0.0543
     45 H11        -0.6314    3.0530    2.0460 H         1 <0>         0.0792
     46 H12        -1.3208    4.6883    1.9078 H         1 <0>         0.0746
     47 H13        -1.7364    1.5925    3.2883 H         1 <0>         0.4129
     48 H14        -2.9608    1.6688    7.5512 H         1 <0>         0.4062
     49 H15        -0.8224   -0.1597    7.7971 H         1 <0>         0.0625
     50 H16        -0.1656    1.4906    7.9140 H         1 <0>         0.0631
     51 H17        -1.3833    0.9323    9.0860 H         1 <0>         0.0793
     52 H18        -2.6884   -0.8841    5.2420 H         1 <0>         0.0551
     53 H19        -4.1968   -1.4281    4.4695 H         1 <0>         0.0623
     54 H20        -2.9825   -0.5368    3.5212 H         1 <0>         0.0583
     55 H21        -5.3676    1.4353    6.4708 H         1 <0>         0.0644
     56 H22        -5.4212   -0.3321    6.2665 H         1 <0>         0.0682
     57 H23        -4.0018    0.4341    7.0191 H         1 <0>         0.0634
     58 H24        -4.7213    1.1322    2.8631 H         1 <0>         0.0510
     59 H25        -5.9357    0.2410    3.8113 H         1 <0>         0.0547
     60 H26        -5.6660    1.9740    4.1150 H         1 <0>         0.0714
     61 H27        -4.1032    4.6568    1.1456 H         1 <0>         0.4139
     62 H28        -4.2488    4.0994   -3.3773 H         1 <0>         0.0840
     63 H29        -5.5513    3.3700   -2.4078 H         1 <0>         0.0851
     64 H30        -6.8985    5.4360   -2.6633 H         1 <0>         0.1005
     65 H31        -5.5960    6.1654   -3.6328 H         1 <0>         0.1156
     66 H32        -6.9563    4.7219   -8.6702 H         1 <0>         0.0634
     67 H33        -5.3652    4.0259   -8.2796 H         1 <0>         0.0829
     68 H34        -6.7682    2.9580   -8.5237 H         1 <0>         0.0799
     69 H35        -8.5520    1.3606   -5.5434 H         1 <0>         0.0854
     70 H36        -7.8598    1.5367   -7.1738 H         1 <0>         0.0802
     71 H37        -6.7903    1.5071   -5.7512 H         1 <0>         0.0668
     72 H38        -9.2672    4.9201   -6.4981 H         1 <0>         0.0673
     73 H39        -9.3070    3.5309   -7.6102 H         1 <0>         0.0802
     74 H40       -10.0274    3.3936   -5.9883 H         1 <0>         0.0850
     75 H41        -2.5972    5.9878   -2.6988 H         1 <0>         0.0994
@<TRIPOS>BOND
     1    1    2 1
     2    1   38 1
     3    1   39 1
     4    1   40 1
     5    2    3 1
     6    2    4 1
     7    2   41 1
     8    3   42 1
     9    3   43 1
    10    3   44 1
    11    4    5 1
    12    4   45 1
    13    4   46 1
    14    5    6 1
    15    5    7 1
    16    5   20 1
    17    7    8 2
    18    7    9 am
    19    9   10 1
    20    9   47 1
    21   10   11 1
    22   10   12 1
    23   10   16 1
    24   12   13 2
    25   12   14 am
    26   14   15 1
    27   14   48 1
    28   15   49 1
    29   15   50 1
    30   15   51 1
    31   16   17 1
    32   16   18 1
    33   16   19 1
    34   17   52 1
    35   17   53 1
    36   17   54 1
    37   18   55 1
    38   18   56 1
    39   18   57 1
    40   19   58 1
    41   19   59 1
    42   19   60 1
    43   20   21 am
    44   20   61 1
    45   21   22 2
    46   21   23 1
    47   23   24 1
    48   23   25 1
    49   23   37 1
    50   25   26 1
    51   25   62 1
    52   25   63 1
    53   26   27 1
    54   26   64 1
    55   26   65 1
    56   27   32 am
    57   27   28 am
    58   28   29 2
    59   28   30 1
    60   30   31 1
    61   30   35 1
    62   30   36 1
    63   31   32 am
    64   31   34 1
    65   32   33 2
    66   34   66 1
    67   34   67 1
    68   34   68 1
    69   35   69 1
    70   35   70 1
    71   35   71 1
    72   36   72 1
    73   36   73 1
    74   36   74 1
    75   37   75 1
