@<TRIPOS>MOLECULE
ZINC01544157
   52    51     0     0     0
SMALL
USER_CHARGES
(2R)-N-[(1S)-2,2-dimethyl-1-(methylcarbamoyl)propyl]-2-[(1S)-1-hydroxy-2-(hydroxyamino)-2-oxo-ethyl]-4-methyl-pentanamide
@<TRIPOS>ATOM
      1 C1          3.0091    4.5674    0.8752 C.3       1 <0>        -0.1725
      2 C2          2.8370    3.3040    1.7207 C.3       1 <0>        -0.1114
      3 C3          3.7850    3.3601    2.9204 C.3       1 <0>        -0.1515
      4 C4          1.3922    3.2147    2.2162 C.3       1 <0>        -0.1277
      5 C5          0.4588    2.9800    1.0268 C.3       1 <0>        -0.1436
      6 H1         -0.5517    2.7917    1.3896 H         1 <0>         0.1129
      7 C6          0.9468    1.7708    0.2264 C.3       1 <0>         0.1266
      8 H2          1.9895    1.9182   -0.0550 H         1 <0>         0.1368
      9 C7          0.8250    0.5278    1.0698 C.2       1 <0>         0.4947
     10 O1         -0.0196   -0.3023    0.8080 O.2       1 <0>        -0.5059
     11 N1          1.6547    0.3386    2.1149 N.am      1 <0>        -0.5951
     12 O2          1.6054   -0.8719    2.8479 O.3       1 <0>        -0.3178
     13 O3          0.1511    1.6269   -0.9518 O.3       1 <0>        -0.5050
     14 C8          0.4558    4.2000    0.1421 C.2       1 <0>         0.5376
     15 O4          0.7344    4.0970   -1.0337 O.2       1 <0>        -0.5056
     16 N2          0.1435    5.4054    0.6577 N.am      1 <0>        -0.7140
     17 C9          0.0346    6.5722   -0.2215 C.3       1 <0>         0.1387
     18 H3          0.7694    6.4932   -1.0227 H         1 <0>         0.1119
     19 C10         0.2914    7.8262    0.5738 C.2       1 <0>         0.5166
     20 O5          0.1388    7.8231    1.7769 O.2       1 <0>        -0.5316
     21 N3          0.6907    8.9512   -0.0520 N.am      1 <0>        -0.7302
     22 C11         1.0400   10.1397    0.7300 C.3       1 <0>         0.0849
     23 C12        -1.3712    6.6284   -0.8226 C.3       1 <0>        -0.0724
     24 C13        -2.3961    6.8315    0.2951 C.3       1 <0>        -0.1441
     25 C14        -1.4571    7.7931   -1.8111 C.3       1 <0>        -0.1546
     26 C15        -1.6664    5.3168   -1.5531 C.3       1 <0>        -0.1327
     27 H4          2.5718    5.4175    1.3989 H         1 <0>         0.0600
     28 H5          4.0704    4.7508    0.7077 H         1 <0>         0.0593
     29 H6          2.5076    4.4342   -0.0834 H         1 <0>         0.0774
     30 H7          3.0684    2.4275    1.1155 H         1 <0>         0.0727
     31 H8          3.6624    2.4600    3.5228 H         1 <0>         0.0526
     32 H9          4.8143    3.4237    2.5674 H         1 <0>         0.0633
     33 H10         3.5536    4.2366    3.5256 H         1 <0>         0.0627
     34 H11         1.1203    4.1460    2.7131 H         1 <0>         0.0885
     35 H12         1.2997    2.3871    2.9195 H         1 <0>         0.0814
     36 H13         2.2857    1.0316    2.3649 H         1 <0>         0.4083
     37 H14         2.2374   -0.9154    3.5784 H         1 <0>         0.3884
     38 H15        -0.7903    1.4920   -0.7766 H         1 <0>         0.3809
     39 H16        -0.0092    5.5005    1.6109 H         1 <0>         0.4088
     40 H17         0.7467    8.9738   -1.0201 H         1 <0>         0.4052
     41 H18         0.1766   10.4562    1.3153 H         1 <0>         0.0629
     42 H19         1.8665    9.9037    1.4002 H         1 <0>         0.0614
     43 H20         1.3367   10.9436    0.0563 H         1 <0>         0.0787
     44 H21        -2.1858    7.7659    0.8155 H         1 <0>         0.0563
     45 H22        -3.3976    6.8716   -0.1331 H         1 <0>         0.0602
     46 H23        -2.3349    6.0018    0.9993 H         1 <0>         0.0579
     47 H24        -0.7527    7.6300   -2.6268 H         1 <0>         0.0633
     48 H25        -2.4688    7.8559   -2.2117 H         1 <0>         0.0678
     49 H26        -1.2108    8.7232   -1.2989 H         1 <0>         0.0593
     50 H27        -1.6053    4.4871   -0.8489 H         1 <0>         0.0527
     51 H28        -2.6680    5.3569   -1.9813 H         1 <0>         0.0548
     52 H29        -0.9363    5.1721   -2.3494 H         1 <0>         0.0702
@<TRIPOS>BOND
     1    1    2 1
     2    1   27 1
     3    1   28 1
     4    1   29 1
     5    2    3 1
     6    2    4 1
     7    2   30 1
     8    3   31 1
     9    3   32 1
    10    3   33 1
    11    4    5 1
    12    4   34 1
    13    4   35 1
    14    5    6 1
    15    5    7 1
    16    5   14 1
    17    7    8 1
    18    7    9 1
    19    7   13 1
    20    9   10 2
    21    9   11 am
    22   11   12 1
    23   11   36 1
    24   12   37 1
    25   13   38 1
    26   14   15 2
    27   14   16 am
    28   16   17 1
    29   16   39 1
    30   17   18 1
    31   17   19 1
    32   17   23 1
    33   19   20 2
    34   19   21 am
    35   21   22 1
    36   21   40 1
    37   22   41 1
    38   22   42 1
    39   22   43 1
    40   23   24 1
    41   23   25 1
    42   23   26 1
    43   24   44 1
    44   24   45 1
    45   24   46 1
    46   25   47 1
    47   25   48 1
    48   25   49 1
    49   26   50 1
    50   26   51 1
    51   26   52 1
@<TRIPOS>MOLECULE
ZINC27079413
   52    51     0     0     0
SMALL
USER_CHARGES
(2R)-N-[(1R)-2,2-dimethyl-1-(methylcarbamoyl)propyl]-2-[(1S)-1-hydroxy-2-(hydroxyamino)-2-oxo-ethyl]-4-methyl-pentanamide
@<TRIPOS>ATOM
      1 C1          2.3780   -0.2951   -1.3458 C.3       1 <0>        -0.1494
      2 C2          1.1159   -1.1242   -1.5916 C.3       1 <0>        -0.1207
      3 C3          1.1613   -1.7164   -3.0016 C.3       1 <0>        -0.1713
      4 C4          1.0413   -2.2563   -0.5651 C.3       1 <0>        -0.1281
      5 C5         -0.3905   -2.7914   -0.4990 C.3       1 <0>        -0.0961
      6 H1         -0.5487   -3.3198    0.4527 H         1 <0>         0.1133
      7 C6         -0.6330   -3.7454   -1.6703 C.3       1 <0>         0.1246
      8 H2         -0.4451   -3.2573   -2.6380 H         1 <0>         0.1008
      9 C7          0.2421   -4.9626   -1.5162 C.2       1 <0>         0.4890
     10 O1         -0.2224   -5.9911   -1.0719 O.2       1 <0>        -0.5099
     11 N1          1.5408   -4.9083   -1.8721 N.am      1 <0>        -0.5972
     12 O2          2.3876   -6.0177   -1.6327 O.3       1 <0>        -0.3525
     13 O3         -2.0053   -4.1439   -1.6838 O.3       1 <0>        -0.5474
     14 C8         -1.3608   -1.6411   -0.5789 C.2       1 <0>         0.5327
     15 O4         -2.2680   -1.6677   -1.3835 O.2       1 <0>        -0.5096
     16 N2         -1.2206   -0.5827    0.2437 N.am      1 <0>        -0.7291
     17 C9         -2.2380    0.4712    0.2614 C.3       1 <0>         0.1408
     18 H3         -3.1982    0.0098   -0.0129 H         1 <0>         0.1105
     19 C10        -2.3304    1.0570    1.6468 C.2       1 <0>         0.5168
     20 O5         -1.4133    0.9150    2.4276 O.2       1 <0>        -0.5378
     21 N3         -3.4322    1.7386    2.0181 N.am      1 <0>        -0.7413
     22 C11        -3.4700    2.4196    3.3147 C.3       1 <0>         0.0866
     23 C12        -1.8523    1.5691   -0.7319 C.3       1 <0>        -0.0667
     24 C13        -0.4271    2.0432   -0.4400 C.3       1 <0>        -0.1495
     25 C14        -1.9241    1.0162   -2.1567 C.3       1 <0>        -0.1371
     26 C15        -2.8198    2.7461   -0.5923 C.3       1 <0>        -0.1570
     27 H4          2.3453    0.1307   -0.3321 H         1 <0>         0.0597
     28 H5          2.4315    0.5188   -2.0838 H         1 <0>         0.0593
     29 H6          3.2645   -0.9387   -1.4448 H         1 <0>         0.0566
     30 H7          0.2294   -0.4805   -1.4926 H         1 <0>         0.0958
     31 H8          0.2539   -2.3125   -3.1783 H         1 <0>         0.0712
     32 H9          2.0479   -2.3600   -3.1006 H         1 <0>         0.0524
     33 H10         1.2148   -0.9024   -3.7396 H         1 <0>         0.0686
     34 H11         1.7223   -3.0671   -0.8633 H         1 <0>         0.0831
     35 H12         1.3361   -1.8748    0.4236 H         1 <0>         0.0875
     36 H13         1.9430   -4.0021   -2.3486 H         1 <0>         0.4194
     37 H14         3.4476   -5.9733   -1.9232 H         1 <0>         0.4177
     38 H15        -2.3702   -4.8334   -2.4593 H         1 <0>         0.4149
     39 H16        -0.3422   -0.5103    0.9018 H         1 <0>         0.4297
     40 H17        -4.3031    1.7836    1.3476 H         1 <0>         0.4261
     41 H18        -4.4430    2.9173    3.4392 H         1 <0>         0.0776
     42 H19        -2.6663    3.1694    3.3586 H         1 <0>         0.0589
     43 H20        -3.3291    1.6834    4.1198 H         1 <0>         0.0598
     44 H21        -0.1498    2.8326   -1.1542 H         1 <0>         0.0583
     45 H22         0.2686    1.1970   -0.5403 H         1 <0>         0.0651
     46 H23        -0.3755    2.4408    0.5843 H         1 <0>         0.0567
     47 H24        -1.6468    1.8057   -2.8707 H         1 <0>         0.0527
     48 H25        -2.9487    0.6754   -2.3665 H         1 <0>         0.0623
     49 H26        -1.2284    0.1701   -2.2571 H         1 <0>         0.0631
     50 H27        -2.5424    3.5354   -1.3065 H         1 <0>         0.0644
     51 H28        -2.7681    3.1437    0.4320 H         1 <0>         0.0650
     52 H29        -3.8444    2.4053   -0.8021 H         1 <0>         0.0600
@<TRIPOS>BOND
     1    1    2 1
     2    1   27 1
     3    1   28 1
     4    1   29 1
     5    2    3 1
     6    2    4 1
     7    2   30 1
     8    3   31 1
     9    3   32 1
    10    3   33 1
    11    4    5 1
    12    4   34 1
    13    4   35 1
    14    5    6 1
    15    5    7 1
    16    5   14 1
    17    7    8 1
    18    7    9 1
    19    7   13 1
    20    9   10 2
    21    9   11 am
    22   11   12 1
    23   11   36 1
    24   12   37 1
    25   13   38 1
    26   14   15 2
    27   14   16 am
    28   16   17 1
    29   16   39 1
    30   17   18 1
    31   17   19 1
    32   17   23 1
    33   19   20 2
    34   19   21 am
    35   21   22 1
    36   21   40 1
    37   22   41 1
    38   22   42 1
    39   22   43 1
    40   23   24 1
    41   23   25 1
    42   23   26 1
    43   24   44 1
    44   24   45 1
    45   24   46 1
    46   25   47 1
    47   25   48 1
    48   25   49 1
    49   26   50 1
    50   26   51 1
    51   26   52 1
@<TRIPOS>MOLECULE
ZINC03871391
   62    62     0     0     0
SMALL
USER_CHARGES

@<TRIPOS>ATOM
      1 C1          2.3387    1.7536    5.3875 C.3       1 <0>        -0.1532
      2 C2          2.9033    0.4162    4.9042 C.3       1 <0>        -0.1245
      3 C3          1.7512   -0.5413    4.5931 C.3       1 <0>        -0.1167
      4 C4          2.3159   -1.8786    4.1099 C.3       1 <0>        -0.1204
      5 C5          1.1637   -2.8361    3.7988 C.3       1 <0>        -0.1032
      6 C6          1.7219   -4.1266    3.1955 C.3       1 <0>        -0.0894
      7 H1          2.3719   -3.8833    2.3550 H         1 <0>         0.1097
      8 C7          0.5663   -5.0037    2.7092 C.3       1 <0>        -0.1237
      9 C8         -0.1138   -4.3365    1.5416 C.2       1 <0>         0.5258
     10 O1          0.2746   -3.2565    1.1498 O.2       1 <0>        -0.5081
     11 N1         -1.1537   -4.9402    0.9327 N.am      1 <0>        -0.5978
     12 O2         -1.7927   -4.3133   -0.1645 O.3       1 <0>        -0.3171
     13 C9          2.5110   -4.8702    4.2421 C.2       1 <0>         0.5227
     14 O3          2.6165   -4.4130    5.3604 O.2       1 <0>        -0.5166
     15 N2          3.0993   -6.0433    3.9353 N.am      1 <0>        -0.7138
     16 C10         3.8664   -6.7662    4.9528 C.3       1 <0>         0.1375
     17 H2          4.3747   -6.0517    5.6003 H         1 <0>         0.1095
     18 C11         2.9187   -7.6281    5.7893 C.3       1 <0>        -0.1001
     19 C12         1.9651   -6.7242    6.5731 C.3       1 <0>        -0.1383
     20 C13         2.1112   -8.5421    4.8654 C.3       1 <0>        -0.1478
     21 C14         4.8863   -7.6486    4.2803 C.2       1 <0>         0.5332
     22 O4          4.6991   -8.0365    3.1465 O.2       1 <0>        -0.5371
     23 N3          6.0065   -8.0066    4.9387 N.am      1 <0>        -0.6025
     24 C15         6.3116   -7.6960    6.3472 C.3       1 <0>         0.0957
     25 C16         7.3191   -8.7883    6.7848 C.3       1 <0>        -0.1319
     26 C17         8.1648   -8.9663    5.4962 C.3       1 <0>        -0.1269
     27 C18         7.1236   -8.7770    4.3731 C.3       1 <0>         0.1391
     28 H3          6.7674   -9.7476    4.0279 H         1 <0>         0.0900
     29 C19         7.7512   -8.0061    3.2100 C.3       1 <0>         0.0622
     30 O5          8.3399   -6.7999    3.7005 O.3       1 <0>        -0.5674
     31 H4          1.7460    1.5936    6.2881 H         1 <0>         0.0528
     32 H5          3.1595    2.4357    5.6091 H         1 <0>         0.0520
     33 H6          1.7084    2.1842    4.6095 H         1 <0>         0.0528
     34 H7          3.4961    0.5762    4.0036 H         1 <0>         0.0588
     35 H8          3.5337   -0.0145    5.6823 H         1 <0>         0.0599
     36 H9          1.1585   -0.7013    5.4938 H         1 <0>         0.0597
     37 H10         1.1209   -0.1106    3.8151 H         1 <0>         0.0589
     38 H11         2.9086   -1.7186    3.2092 H         1 <0>         0.0553
     39 H12         2.9462   -2.3093    4.8879 H         1 <0>         0.0758
     40 H13         0.6256   -3.0678    4.7179 H         1 <0>         0.0680
     41 H14         0.4835   -2.3671    3.0878 H         1 <0>         0.0838
     42 H15         0.9528   -5.9743    2.3985 H         1 <0>         0.1022
     43 H16        -0.1514   -5.1404    3.5181 H         1 <0>         0.1080
     44 H17        -1.4643   -5.8040    1.2460 H         1 <0>         0.4084
     45 H18        -2.5271   -4.8218   -0.5349 H         1 <0>         0.3887
     46 H19         3.0149   -6.4090    3.0409 H         1 <0>         0.4082
     47 H20         3.4981   -8.2351    6.4850 H         1 <0>         0.0800
     48 H21         1.2899   -7.3383    7.1691 H         1 <0>         0.0523
     49 H22         2.5404   -6.0731    7.2313 H         1 <0>         0.0631
     50 H23         1.3856   -6.1172    5.8775 H         1 <0>         0.0604
     51 H24         2.7906   -9.1861    4.3070 H         1 <0>         0.0579
     52 H25         1.4360   -9.1562    5.4614 H         1 <0>         0.0588
     53 H26         1.5317   -7.9351    4.1698 H         1 <0>         0.0572
     54 H27         6.7644   -6.7079    6.4283 H         1 <0>         0.0768
     55 H28         5.4066   -7.7504    6.9523 H         1 <0>         0.0788
     56 H29         7.9370   -8.4407    7.6128 H         1 <0>         0.0879
     57 H30         6.8042   -9.7131    7.0450 H         1 <0>         0.0767
     58 H31         8.9432   -8.2055    5.4377 H         1 <0>         0.0919
     59 H32         8.5972   -9.9660    5.4537 H         1 <0>         0.0816
     60 H33         8.5192   -8.6200    2.7395 H         1 <0>         0.0557
     61 H34         6.9813   -7.7630    2.4778 H         1 <0>         0.0585
     62 H35         8.7576   -6.2594    3.0160 H         1 <0>         0.3803
@<TRIPOS>BOND
     1    1    2 1
     2    1   31 1
     3    1   32 1
     4    1   33 1
     5    2    3 1
     6    2   34 1
     7    2   35 1
     8    3    4 1
     9    3   36 1
    10    3   37 1
    11    4    5 1
    12    4   38 1
    13    4   39 1
    14    5    6 1
    15    5   40 1
    16    5   41 1
    17    6    7 1
    18    6    8 1
    19    6   13 1
    20    8    9 1
    21    8   42 1
    22    8   43 1
    23    9   10 2
    24    9   11 am
    25   11   12 1
    26   11   44 1
    27   12   45 1
    28   13   14 2
    29   13   15 am
    30   15   16 1
    31   15   46 1
    32   16   17 1
    33   16   18 1
    34   16   21 1
    35   18   19 1
    36   18   20 1
    37   18   47 1
    38   19   48 1
    39   19   49 1
    40   19   50 1
    41   20   51 1
    42   20   52 1
    43   20   53 1
    44   21   22 2
    45   21   23 am
    46   23   27 1
    47   23   24 1
    48   24   25 1
    49   24   54 1
    50   24   55 1
    51   25   26 1
    52   25   56 1
    53   25   57 1
    54   26   27 1
    55   26   58 1
    56   26   59 1
    57   27   28 1
    58   27   29 1
    59   29   30 1
    60   29   60 1
    61   29   61 1
    62   30   62 1
@<TRIPOS>MOLECULE
ZINC03979014
   62    62     0     0     0
SMALL
USER_CHARGES

@<TRIPOS>ATOM
      1 C1          3.2541    2.1779    2.6729 C.3       1 <0>        -0.1533
      2 C2          3.5223    0.6722    2.6297 C.3       1 <0>        -0.1245
      3 C3          2.1925   -0.0837    2.6626 C.3       1 <0>        -0.1167
      4 C4          2.4606   -1.5894    2.6195 C.3       1 <0>        -0.1220
      5 C5          1.1309   -2.3454    2.6523 C.3       1 <0>        -0.1012
      6 C6          1.3906   -3.8423    2.4715 C.3       1 <0>        -0.0906
      7 H1          1.9759   -4.0028    1.5661 H         1 <0>         0.1121
      8 C7          0.0559   -4.5810    2.3536 C.3       1 <0>        -0.1229
      9 C8         -0.6306   -4.1768    1.0744 C.2       1 <0>         0.5261
     10 O1         -0.0560   -3.4677    0.2757 O.2       1 <0>        -0.5085
     11 N1         -1.8830   -4.6035    0.8179 N.am      1 <0>        -0.5979
     12 O2         -2.5281   -4.2238   -0.3841 O.3       1 <0>        -0.3170
     13 C9          2.1519   -4.3674    3.6614 C.2       1 <0>         0.5240
     14 O3          2.4567   -3.6181    4.5650 O.2       1 <0>        -0.5188
     15 N2          2.4941   -5.6696    3.7213 N.am      1 <0>        -0.7120
     16 C10         3.2342   -6.1801    4.8780 C.3       1 <0>         0.1368
     17 H2          3.9252   -5.4157    5.2334 H         1 <0>         0.1131
     18 C11         2.2515   -6.5381    5.9947 C.3       1 <0>        -0.1069
     19 C12         1.4658   -5.2901    6.4022 C.3       1 <0>        -0.1379
     20 C13         1.2815   -7.6111    5.4959 C.3       1 <0>        -0.1463
     21 C14         4.0080   -7.4094    4.4766 C.2       1 <0>         0.5325
     22 O4          3.9473   -7.8188    3.3366 O.2       1 <0>        -0.5380
     23 N3          4.7676   -8.0538    5.3845 N.am      1 <0>        -0.6013
     24 C15         4.9262   -7.6706    6.7992 C.3       1 <0>         0.0968
     25 C16         6.2883   -8.2744    7.2233 C.3       1 <0>        -0.1335
     26 C17         6.2883   -9.6182    6.4476 C.3       1 <0>        -0.1268
     27 C18         5.5701   -9.2590    5.1296 C.3       1 <0>         0.1392
     28 H3          6.3063   -9.0564    4.3518 H         1 <0>         0.0890
     29 C19         4.6583  -10.4101    4.7002 C.3       1 <0>         0.0623
     30 O5          3.7918  -10.7602    5.7813 O.3       1 <0>        -0.5666
     31 H4          2.7180    2.4254    3.5891 H         1 <0>         0.0527
     32 H5          4.2015    2.7165    2.6495 H         1 <0>         0.0520
     33 H6          2.6518    2.4646    1.8108 H         1 <0>         0.0528
     34 H7          4.0583    0.4248    1.7135 H         1 <0>         0.0590
     35 H8          4.1246    0.3856    3.4918 H         1 <0>         0.0600
     36 H9          1.6564    0.1637    3.5789 H         1 <0>         0.0596
     37 H10         1.5902    0.2029    1.8006 H         1 <0>         0.0585
     38 H11         2.9967   -1.8369    1.7032 H         1 <0>         0.0556
     39 H12         3.0630   -1.8761    3.4815 H         1 <0>         0.0786
     40 H13         0.6396   -2.1750    3.6103 H         1 <0>         0.0680
     41 H14         0.4897   -1.9880    1.8466 H         1 <0>         0.0795
     42 H15         0.2351   -5.6561    2.3458 H         1 <0>         0.1035
     43 H16        -0.5776   -4.3244    3.2027 H         1 <0>         0.1055
     44 H17        -2.3426   -5.1707    1.4566 H         1 <0>         0.4082
     45 H18        -3.4228   -4.5780   -0.4792 H         1 <0>         0.3886
     46 H19         2.2503   -6.2689    2.9986 H         1 <0>         0.4080
     47 H20         2.8021   -6.9179    6.8553 H         1 <0>         0.0882
     48 H21         0.7657   -5.5451    7.1978 H         1 <0>         0.0518
     49 H22         2.1568   -4.5257    6.7576 H         1 <0>         0.0658
     50 H23         0.9152   -4.9103    5.5416 H         1 <0>         0.0555
     51 H24         1.8412   -8.5002    5.2056 H         1 <0>         0.0560
     52 H25         0.5814   -7.8661    6.2915 H         1 <0>         0.0598
     53 H26         0.7308   -7.2313    4.6353 H         1 <0>         0.0542
     54 H27         4.9450   -6.5853    6.8985 H         1 <0>         0.0785
     55 H28         4.1205   -8.0934    7.3994 H         1 <0>         0.0793
     56 H29         7.1140   -7.6388    6.9035 H         1 <0>         0.0768
     57 H30         6.3222   -8.4445    8.2994 H         1 <0>         0.0878
     58 H31         7.3078   -9.9524    6.2553 H         1 <0>         0.0815
     59 H32         5.7286  -10.3782    6.9928 H         1 <0>         0.0913
     60 H33         4.0618  -10.1004    3.8421 H         1 <0>         0.0611
     61 H34         5.2662  -11.2729    4.4278 H         1 <0>         0.0544
     62 H35         3.1843  -11.4850    5.5795 H         1 <0>         0.3790
@<TRIPOS>BOND
     1    1    2 1
     2    1   31 1
     3    1   32 1
     4    1   33 1
     5    2    3 1
     6    2   34 1
     7    2   35 1
     8    3    4 1
     9    3   36 1
    10    3   37 1
    11    4    5 1
    12    4   38 1
    13    4   39 1
    14    5    6 1
    15    5   40 1
    16    5   41 1
    17    6    7 1
    18    6    8 1
    19    6   13 1
    20    8    9 1
    21    8   42 1
    22    8   43 1
    23    9   10 2
    24    9   11 am
    25   11   12 1
    26   11   44 1
    27   12   45 1
    28   13   14 2
    29   13   15 am
    30   15   16 1
    31   15   46 1
    32   16   17 1
    33   16   18 1
    34   16   21 1
    35   18   19 1
    36   18   20 1
    37   18   47 1
    38   19   48 1
    39   19   49 1
    40   19   50 1
    41   20   51 1
    42   20   52 1
    43   20   53 1
    44   21   22 2
    45   21   23 am
    46   23   27 1
    47   23   24 1
    48   24   25 1
    49   24   54 1
    50   24   55 1
    51   25   26 1
    52   25   56 1
    53   25   57 1
    54   26   27 1
    55   26   58 1
    56   26   59 1
    57   27   28 1
    58   27   29 1
    59   29   30 1
    60   29   60 1
    61   29   61 1
    62   30   62 1
@<TRIPOS>MOLECULE
ZINC13831240
   54    55     0     0     0
SMALL
USER_CHARGES

@<TRIPOS>ATOM
      1 C1          1.6084    1.4471   -0.3501 C.3       1 <0>        -0.1491
      2 C2          1.3061    0.0344    0.1538 C.3       1 <0>        -0.0899
      3 C3          1.6377   -0.0572    1.6446 C.3       1 <0>        -0.1615
      4 C4         -0.1769   -0.2764   -0.0588 C.3       1 <0>         0.1448
      5 H1         -0.7815    0.4342    0.5048 H         1 <0>         0.1278
      6 C5         -0.4704   -1.6753    0.4185 C.2       1 <0>         0.5128
      7 O1         -0.3600   -2.6119   -0.3440 O.2       1 <0>        -0.4950
      8 N1         -0.8555   -1.8856    1.6929 N.am      1 <0>        -0.5916
      9 O2         -1.0372   -3.2068    2.1687 O.3       1 <0>        -0.3150
     10 N2         -0.4988   -0.1691   -1.4840 N.pl3     1 <0>        -0.8509
     11 O3          0.2740   -0.8727   -2.4394 O.3       1 <0>        -0.0949
     12 C6         -0.2971   -2.1180   -2.8457 C.3       1 <0>         0.0570
     13 C7         -0.6610   -2.0519   -4.3303 C.3       1 <0>        -0.1792
     14 C8          0.7159   -3.2419   -2.6184 C.3       1 <0>        -0.1501
     15 S1         -1.7666    0.7751   -1.9776 S.o2      1 <0>         2.6873
     16 O4         -2.1981    0.2545   -3.2275 O.2       1 <0>        -0.9296
     17 O5         -2.6385    0.8998   -0.8625 O.2       1 <0>        -0.9419
     18 C9         -1.1243    2.3844   -2.2971 C.ar      1 <0>        -0.6741
     19 C10        -1.0799    3.3227   -1.2818 C.ar      1 <0>        -0.0145
     20 C11        -0.5777    4.5847   -1.5264 C.ar      1 <0>        -0.1336
     21 C12        -0.1150    4.9129   -2.7991 C.ar      1 <0>         0.0227
     22 C13        -0.1621    3.9639   -3.8182 C.ar      1 <0>        -0.1334
     23 C14        -0.6610    2.7030   -3.5609 C.ar      1 <0>        -0.0031
     24 C15         0.4256    6.2684   -3.0683 C.ar      1 <0>        -0.0668
     25 C16         0.4776    7.2158   -2.0478 C.ar      1 <0>        -0.1006
     26 C17         0.9817    8.4749   -2.3037 C.ar      1 <0>        -0.1196
     27 C18         1.4345    8.7971   -3.5703 C.ar      1 <0>        -0.1077
     28 C19         1.3848    7.8607   -4.5871 C.ar      1 <0>        -0.1191
     29 C20         0.8883    6.5966   -4.3409 C.ar      1 <0>        -0.1003
     30 H2          2.6649    1.6685   -0.1986 H         1 <0>         0.0659
     31 H3          1.3722    1.5124   -1.4121 H         1 <0>         0.0667
     32 H4          1.0036    2.1668    0.2016 H         1 <0>         0.0556
     33 H5          1.9109   -0.6853   -0.3979 H         1 <0>         0.0953
     34 H6          1.0694    0.6961    2.1902 H         1 <0>         0.0619
     35 H7          1.3760   -1.0484    2.0148 H         1 <0>         0.0608
     36 H8          2.7039    0.1155    1.7909 H         1 <0>         0.0710
     37 H9         -1.0082   -1.1319    2.2840 H         1 <0>         0.4083
     38 H10        -1.3137   -3.2570    3.0940 H         1 <0>         0.3892
     39 H11        -1.1951   -2.3143   -2.2598 H         1 <0>         0.0884
     40 H12        -0.9718   -3.0391   -4.6724 H         1 <0>         0.0678
     41 H13        -1.4776   -1.3442   -4.4730 H         1 <0>         0.0852
     42 H14         0.2070   -1.7255   -4.9030 H         1 <0>         0.0601
     43 H15         0.9752   -3.2889   -1.5607 H         1 <0>         0.0819
     44 H16         0.2803   -4.1918   -2.9283 H         1 <0>         0.0627
     45 H17         1.6139   -3.0456   -3.2042 H         1 <0>         0.0511
     46 H18        -1.4392    3.0673   -0.2958 H         1 <0>         0.1407
     47 H19        -0.5439    5.3167   -0.7330 H         1 <0>         0.1371
     48 H20         0.1950    4.2131   -4.8065 H         1 <0>         0.1373
     49 H21        -0.6936    1.9651   -4.3488 H         1 <0>         0.1448
     50 H22         0.1237    6.9655   -1.0587 H         1 <0>         0.1279
     51 H23         1.0225    9.2100   -1.5135 H         1 <0>         0.1276
     52 H24         1.8279    9.7837   -3.7662 H         1 <0>         0.1261
     53 H25         1.7393    8.1177   -5.5744 H         1 <0>         0.1277
     54 H26         0.8541    5.8648   -5.1344 H         1 <0>         0.1282
@<TRIPOS>BOND
     1    1    2 1
     2    1   30 1
     3    1   31 1
     4    1   32 1
     5    2    3 1
     6    2    4 1
     7    2   33 1
     8    3   34 1
     9    3   35 1
    10    3   36 1
    11    4    5 1
    12    4    6 1
    13    4   10 1
    14    6    7 2
    15    6    8 am
    16    8    9 1
    17    8   37 1
    18    9   38 1
    19   10   11 1
    20   10   15 1
    21   11   12 1
    22   12   13 1
    23   12   14 1
    24   12   39 1
    25   13   40 1
    26   13   41 1
    27   13   42 1
    28   14   43 1
    29   14   44 1
    30   14   45 1
    31   15   16 2
    32   15   17 2
    33   15   18 1
    34   18   23 ar
    35   18   19 ar
    36   19   20 ar
    37   19   46 1
    38   20   21 ar
    39   20   47 1
    40   21   22 ar
    41   21   24 1
    42   22   23 ar
    43   22   48 1
    44   23   49 1
    45   24   29 ar
    46   24   25 ar
    47   25   26 ar
    48   25   50 1
    49   26   27 ar
    50   26   51 1
    51   27   28 ar
    52   27   52 1
    53   28   29 ar
    54   28   53 1
    55   29   54 1
@<TRIPOS>MOLECULE
ZINC03818628
   45    46     0     0     0
SMALL
USER_CHARGES

@<TRIPOS>ATOM
      1 C1          2.6021   -2.0659    1.0178 C.3       1 <0>        -0.1558
      2 C2          2.1237   -0.7034    1.5234 C.3       1 <0>         0.0227
      3 C3          3.0258    0.3957    0.9583 C.3       1 <0>        -0.1646
      4 O1          0.7783   -0.4821    1.0958 O.3       1 <0>        -0.0944
      5 N1         -0.1653   -0.4599    2.1514 N.pl3     1 <0>        -0.8427
      6 C4         -0.9067   -1.6753    2.4967 C.3       1 <0>         0.0952
      7 C5         -0.1403   -2.4533    3.5352 C.2       1 <0>         0.4931
      8 O2          0.9208   -2.0339    3.9462 O.2       1 <0>        -0.5008
      9 N2         -0.6340   -3.6152    4.0070 N.am      1 <0>        -0.5914
     10 O3          0.0862   -4.3463    4.9827 O.3       1 <0>        -0.3153
     11 S1         -0.4306    0.9399    2.9954 S.o2      1 <0>         2.6901
     12 O4         -0.1309    2.0107    2.1107 O.2       1 <0>        -0.9261
     13 O5         -1.6983    0.8019    3.6225 O.2       1 <0>        -0.9379
     14 C6          0.7659    1.0040    4.2873 C.ar      1 <0>        -0.6759
     15 C7          0.4812    0.4421    5.5187 C.ar      1 <0>         0.0080
     16 C8          1.4148    0.4895    6.5342 C.ar      1 <0>        -0.1282
     17 C9          2.6459    1.1048    6.3170 C.ar      1 <0>         0.0214
     18 C10         2.9274    1.6693    5.0746 C.ar      1 <0>        -0.1336
     19 C11         1.9886    1.6112    4.0645 C.ar      1 <0>        -0.0153
     20 C12         3.6534    1.1593    7.4051 C.ar      1 <0>        -0.0633
     21 C13         3.3739    0.5902    8.6459 C.ar      1 <0>        -0.1010
     22 C14         4.3149    0.6433    9.6542 C.ar      1 <0>        -0.1194
     23 C15         5.5332    1.2605    9.4350 C.ar      1 <0>        -0.1096
     24 C16         5.8157    1.8275    8.2054 C.ar      1 <0>        -0.1194
     25 C17         4.8845    1.7747    7.1880 C.ar      1 <0>        -0.1016
     26 H1          2.4780   -2.1160   -0.0640 H         1 <0>         0.0640
     27 H2          3.6544   -2.1978    1.2693 H         1 <0>         0.0698
     28 H3          2.0146   -2.8546    1.4878 H         1 <0>         0.0564
     29 H4          2.1666   -0.6845    2.6124 H         1 <0>         0.1051
     30 H5          2.9829    0.3767   -0.1306 H         1 <0>         0.0703
     31 H6          2.6850    1.3663    1.3186 H         1 <0>         0.0666
     32 H7          4.0520    0.2269    1.2845 H         1 <0>         0.0761
     33 H8         -1.8845   -1.4037    2.8946 H         1 <0>         0.1437
     34 H9         -1.0350   -2.2885    1.6047 H         1 <0>         0.1359
     35 H10        -1.4827   -3.9507    3.6782 H         1 <0>         0.4108
     36 H11        -0.3469   -5.1654    5.2594 H         1 <0>         0.3896
     37 H12        -0.4735   -0.0343    5.6860 H         1 <0>         0.1339
     38 H13         1.1913    0.0507    7.4954 H         1 <0>         0.1333
     39 H14         3.8799    2.1478    4.9010 H         1 <0>         0.1354
     40 H15         2.2075    2.0442    3.0996 H         1 <0>         0.1403
     41 H16         2.4227    0.1087    8.8184 H         1 <0>         0.1271
     42 H17         4.0993    0.2025   10.6164 H         1 <0>         0.1270
     43 H18         6.2664    1.3001   10.2269 H         1 <0>         0.1256
     44 H19         6.7684    2.3084    8.0397 H         1 <0>         0.1272
     45 H20         5.1078    2.2138    6.2269 H         1 <0>         0.1276
@<TRIPOS>BOND
     1    1    2 1
     2    1   26 1
     3    1   27 1
     4    1   28 1
     5    2    3 1
     6    2    4 1
     7    2   29 1
     8    3   30 1
     9    3   31 1
    10    3   32 1
    11    4    5 1
    12    5    6 1
    13    5   11 1
    14    6    7 1
    15    6   33 1
    16    6   34 1
    17    7    8 2
    18    7    9 am
    19    9   10 1
    20    9   35 1
    21   10   36 1
    22   11   12 2
    23   11   13 2
    24   11   14 1
    25   14   19 ar
    26   14   15 ar
    27   15   16 ar
    28   15   37 1
    29   16   17 ar
    30   16   38 1
    31   17   18 ar
    32   17   20 1
    33   18   19 ar
    34   18   39 1
    35   19   40 1
    36   20   25 ar
    37   20   21 ar
    38   21   22 ar
    39   21   41 1
    40   22   23 ar
    41   22   42 1
    42   23   24 ar
    43   23   43 1
    44   24   25 ar
    45   24   44 1
    46   25   45 1
@<TRIPOS>MOLECULE
ZINC03780014
   56    57     0     0     0
SMALL
USER_CHARGES

@<TRIPOS>ATOM
      1 C1         -4.9014   -2.7959   -0.2874 C.3       1 <0>        -0.1475
      2 C2         -3.5376   -2.8042   -0.9809 C.3       1 <0>        -0.0930
      3 C3         -3.1945   -1.3884   -1.4484 C.3       1 <0>        -0.1554
      4 C4         -2.4693   -3.2902    0.0006 C.3       1 <0>        -0.1061
      5 C5         -1.1289   -3.4171   -0.7262 C.3       1 <0>        -0.1051
      6 H1         -0.8997   -2.4792   -1.2321 H         1 <0>         0.1276
      7 C6         -1.2122   -4.5451   -1.7565 C.3       1 <0>        -0.1172
      8 C7         -1.5195   -3.9649   -3.1129 C.2       1 <0>         0.5263
      9 O1         -1.2277   -2.8140   -3.3604 O.2       1 <0>        -0.5111
     10 N1         -2.1186   -4.7249   -4.0510 N.am      1 <0>        -0.5983
     11 O2         -2.4073   -4.1798   -5.3255 O.3       1 <0>        -0.3184
     12 C8         -0.0436   -3.7277    0.2721 C.2       1 <0>         0.5307
     13 O3          0.4797   -4.8218    0.2782 O.2       1 <0>        -0.5430
     14 N2          0.3456   -2.7896    1.1581 N.am      1 <0>        -0.6970
     15 C9          1.4614   -3.0597    2.0683 C.3       1 <0>         0.1359
     16 H2          2.1702   -3.7318    1.5846 H         1 <0>         0.1120
     17 C10         2.1624   -1.7460    2.4196 C.3       1 <0>        -0.0434
     18 C11         2.7912   -1.1648    1.1795 C.2       1 <0>        -0.1770
     19 C12         4.0613   -1.3280    0.7767 C.2       1 <0>         0.0630
     20 N3          4.2699   -0.6520   -0.3945 N.pl3     1 <0>        -0.5937
     21 H3          5.1101   -0.6216   -0.8783 H         1 <0>         0.4168
     22 C13         3.1096   -0.0211   -0.7839 C.ar      1 <0>         0.0948
     23 C14         2.1307   -0.3199    0.1817 C.ar      1 <0>        -0.0926
     24 C15         0.8375    0.1869    0.0425 C.ar      1 <0>        -0.0773
     25 C16         0.5277    0.9690   -1.0346 C.ar      1 <0>        -0.1349
     26 C17         1.4886    1.2632   -1.9919 C.ar      1 <0>        -0.0949
     27 C18         2.7736    0.7811   -1.8692 C.ar      1 <0>        -0.1271
     28 C19         0.9385   -3.7024    3.3271 C.2       1 <0>         0.5025
     29 O4         -0.2172   -3.5389    3.6565 O.2       1 <0>        -0.5287
     30 N4          1.7552   -4.4590    4.0868 N.am      1 <0>        -0.7323
     31 C20         1.2469   -5.0838    5.3105 C.3       1 <0>         0.0869
     32 H4         -5.6625   -2.4497   -0.9866 H         1 <0>         0.0552
     33 H5         -5.1458   -3.8046    0.0457 H         1 <0>         0.0533
     34 H6         -4.8674   -2.1275    0.5729 H         1 <0>         0.0568
     35 H7         -3.5716   -3.4727   -1.8412 H         1 <0>         0.0647
     36 H8         -3.2493   -0.7032   -0.6024 H         1 <0>         0.0525
     37 H9         -2.1857   -1.3764   -1.8609 H         1 <0>         0.0736
     38 H10        -3.9042   -1.0768   -2.2148 H         1 <0>         0.0517
     39 H11        -2.3735   -2.5744    0.8171 H         1 <0>         0.0747
     40 H12        -2.7588   -4.2617    0.4012 H         1 <0>         0.0715
     41 H13        -0.2596   -5.0735   -1.7946 H         1 <0>         0.1205
     42 H14        -2.0020   -5.2401   -1.4712 H         1 <0>         0.0973
     43 H15        -2.3519   -5.6454   -3.8530 H         1 <0>         0.4079
     44 H16        -2.8369   -4.7999   -5.9305 H         1 <0>         0.3870
     45 H17        -0.1130   -1.9356    1.1932 H         1 <0>         0.4054
     46 H18         1.4341   -1.0418    2.8219 H         1 <0>         0.0844
     47 H19         2.9354   -1.9346    3.1647 H         1 <0>         0.0914
     48 H20         4.8080   -1.9070    1.2999 H         1 <0>         0.1699
     49 H21         0.0845   -0.0385    0.7831 H         1 <0>         0.1149
     50 H22        -0.4730    1.3609   -1.1419 H         1 <0>         0.1230
     51 H23         1.2283    1.8821   -2.8378 H         1 <0>         0.1250
     52 H24         3.5139    1.0147   -2.6201 H         1 <0>         0.1186
     53 H25         2.6795   -4.5898    3.8233 H         1 <0>         0.4024
     54 H26         2.0457   -5.6518    5.7873 H         1 <0>         0.0763
     55 H27         0.8932   -4.3111    5.9931 H         1 <0>         0.0605
     56 H28         0.4236   -5.7533    5.0616 H         1 <0>         0.0594
@<TRIPOS>BOND
     1    1    2 1
     2    1   32 1
     3    1   33 1
     4    1   34 1
     5    2    3 1
     6    2    4 1
     7    2   35 1
     8    3   36 1
     9    3   37 1
    10    3   38 1
    11    4    5 1
    12    4   39 1
    13    4   40 1
    14    5    6 1
    15    5    7 1
    16    5   12 1
    17    7    8 1
    18    7   41 1
    19    7   42 1
    20    8    9 2
    21    8   10 am
    22   10   11 1
    23   10   43 1
    24   11   44 1
    25   12   13 2
    26   12   14 am
    27   14   15 1
    28   14   45 1
    29   15   16 1
    30   15   17 1
    31   15   28 1
    32   17   18 1
    33   17   46 1
    34   17   47 1
    35   18   23 1
    36   18   19 2
    37   19   20 1
    38   19   48 1
    39   20   21 1
    40   20   22 1
    41   22   27 ar
    42   22   23 ar
    43   23   24 ar
    44   24   25 ar
    45   24   49 1
    46   25   26 ar
    47   25   50 1
    48   26   27 ar
    49   26   51 1
    50   27   52 1
    51   28   29 2
    52   28   30 am
    53   30   31 1
    54   30   53 1
    55   31   54 1
    56   31   55 1
    57   31   56 1
@<TRIPOS>MOLECULE
ZINC28640034
   49    50     0     0     0
SMALL
USER_CHARGES

@<TRIPOS>ATOM
      1 C1          0.0802    1.7020    0.0022 C.3       1 <0>        -0.1407
      2 C2          0.2270    0.2073   -0.2894 C.3       1 <0>        -0.0962
      3 C3          0.9985   -0.4613    0.8501 C.3       1 <0>        -0.4312
      4 H1          0.4075   -0.4156    1.7649 H         1 <0>         0.1044
      5 P1          1.3241   -2.2035    0.4234 P.3       1 <0>         2.2344
      6 O1          2.4286   -2.7624    1.3480 O.2       1 <0>        -1.0693
      7 O2          0.0314   -3.0292    0.6080 O.3       1 <0>        -1.0844
      8 O3          1.8079   -2.2993   -1.1092 O.3       1 <0>        -0.9010
      9 N1          2.2699    0.2372    1.0548 N.pl3     1 <0>        -1.0882
     10 S1          2.6610    0.8229    2.5535 S.o2      1 <0>         2.6928
     11 O4          3.9346    1.4406    2.4286 O.2       1 <0>        -0.9763
     12 O5          1.5183    1.5224    3.0271 O.2       1 <0>        -0.9702
     13 C4          2.8771   -0.5662    3.6157 C.ar      1 <0>        -0.6542
     14 C5          1.8060   -1.0561    4.3394 C.ar      1 <0>        -0.0108
     15 C6          1.9755   -2.1460    5.1727 C.ar      1 <0>        -0.1320
     16 C7          3.2160   -2.7462    5.2820 C.ar      1 <0>        -0.0252
     17 C8          4.2868   -2.2568    4.5576 C.ar      1 <0>        -0.1294
     18 C9          4.1163   -1.1696    3.7210 C.ar      1 <0>         0.0130
     19 C10         3.4010   -3.9337    6.1912 C.3       1 <0>        -0.0747
     20 C11         3.1311   -5.2211    5.4099 C.3       1 <0>        -0.0808
     21 C12         3.3161   -6.4086    6.3191 C.ar      1 <0>        -0.0722
     22 C13         4.5579   -7.0053    6.4327 C.ar      1 <0>        -0.1176
     23 C14         4.7276   -8.0946    7.2667 C.ar      1 <0>        -0.1207
     24 C15         3.6557   -8.5869    7.9875 C.ar      1 <0>        -0.1311
     25 C16         2.4142   -7.9897    7.8746 C.ar      1 <0>        -0.1200
     26 C17         2.2454   -6.8977    7.0438 C.ar      1 <0>        -0.1171
     27 C18        -1.1599   -0.4279   -0.4078 C.3       1 <0>        -0.1641
     28 H2          1.0682    2.1545    0.0866 H         1 <0>         0.0466
     29 H3         -0.4695    2.1784   -0.8096 H         1 <0>         0.0478
     30 H4         -0.4628    1.8381    0.9375 H         1 <0>         0.0572
     31 H5          0.7700    0.0712   -1.2247 H         1 <0>         0.0754
     32 H6          1.9996   -3.1995   -1.4056 H         1 <0>         0.4108
     33 H7          2.8827    0.3565    0.3124 H         1 <0>         0.4134
     34 H8          0.8369   -0.5872    4.2540 H         1 <0>         0.1275
     35 H9          1.1389   -2.5283    5.7387 H         1 <0>         0.1246
     36 H10         5.2561   -2.7255    4.6432 H         1 <0>         0.1241
     37 H11         4.9521   -0.7896    3.1522 H         1 <0>         0.1298
     38 H12         4.4232   -3.9458    6.5696 H         1 <0>         0.0732
     39 H13         2.7050   -3.8632    7.0271 H         1 <0>         0.0730
     40 H14         2.1089   -5.2090    5.0316 H         1 <0>         0.0828
     41 H15         3.8271   -5.2916    4.5740 H         1 <0>         0.0824
     42 H16         5.3954   -6.6207    5.8696 H         1 <0>         0.1220
     43 H17         5.6976   -8.5612    7.3549 H         1 <0>         0.1185
     44 H18         3.7882   -9.4384    8.6385 H         1 <0>         0.1170
     45 H19         1.5766   -8.3745    8.4374 H         1 <0>         0.1189
     46 H20         1.2763   -6.4288    6.9585 H         1 <0>         0.1227
     47 H21        -1.7004    0.0314   -1.2355 H         1 <0>         0.0518
     48 H22        -1.0553   -1.4973   -0.5910 H         1 <0>         0.0879
     49 H23        -1.7120   -0.2702    0.5187 H         1 <0>         0.0550
@<TRIPOS>BOND
     1    1    2 1
     2    1   28 1
     3    1   29 1
     4    1   30 1
     5    2    3 1
     6    2   27 1
     7    2   31 1
     8    3    4 1
     9    3    5 1
    10    3    9 1
    11    5    6 2
    12    5    7 1
    13    5    8 1
    14    8   32 1
    15    9   10 1
    16    9   33 1
    17   10   11 2
    18   10   12 2
    19   10   13 1
    20   13   18 ar
    21   13   14 ar
    22   14   15 ar
    23   14   34 1
    24   15   16 ar
    25   15   35 1
    26   16   17 ar
    27   16   19 1
    28   17   18 ar
    29   17   36 1
    30   18   37 1
    31   19   20 1
    32   19   38 1
    33   19   39 1
    34   20   21 1
    35   20   40 1
    36   20   41 1
    37   21   26 ar
    38   21   22 ar
    39   22   23 ar
    40   22   42 1
    41   23   24 ar
    42   23   43 1
    43   24   25 ar
    44   24   44 1
    45   25   26 ar
    46   25   45 1
    47   26   46 1
    48   27   47 1
    49   27   48 1
    50   27   49 1
@<TRIPOS>MOLECULE
ZINC28640034
   48    49     0     0     0
SMALL
USER_CHARGES

@<TRIPOS>ATOM
      1 C1          1.3052    1.7703    0.4699 C.3       1 <0>        -0.1810
      2 C2          1.4427    0.2677    0.2163 C.3       1 <0>        -0.0800
      3 C3          0.6668   -0.5032    1.2861 C.3       1 <0>        -0.4271
      4 H1          1.0685   -0.2626    2.2704 H         1 <0>         0.0589
      5 P1         -1.0933   -0.0338    1.2168 P.3       1 <0>         2.2026
      6 O1         -1.2338    1.5055    1.4726 O.2       1 <0>        -1.1566
      7 O2         -1.6717   -0.3832   -0.1966 O.3       1 <0>        -1.1544
      8 O3         -1.8872   -0.8202    2.3149 O.3       1 <0>        -1.1704
      9 N1          0.7985   -1.9419    1.0432 N.pl3     1 <0>        -1.0607
     10 S1          1.9680   -2.8109    1.8302 S.o2      1 <0>         2.6814
     11 O4          1.7984   -4.1666    1.4400 O.2       1 <0>        -0.9884
     12 O5          3.1902   -2.1110    1.6413 O.2       1 <0>        -0.9778
     13 C4          1.6044   -2.7333    3.5525 C.ar      1 <0>        -0.6610
     14 C5          2.2114   -1.7769    4.3448 C.ar      1 <0>        -0.0172
     15 C6          1.9261   -1.7160    5.6960 C.ar      1 <0>        -0.1412
     16 C7          1.0334   -2.6113    6.2549 C.ar      1 <0>        -0.0400
     17 C8          0.4257   -3.5672    5.4625 C.ar      1 <0>        -0.1358
     18 C9          0.7077   -3.6253    4.1105 C.ar      1 <0>         0.0001
     19 C10         0.7231   -2.5456    7.7281 C.3       1 <0>        -0.0699
     20 C11        -0.4659   -1.6105    7.9577 C.3       1 <0>        -0.0867
     21 C12        -0.7762   -1.5448    9.4309 C.ar      1 <0>        -0.0687
     22 C13        -1.6646   -2.4437    9.9909 C.ar      1 <0>        -0.1163
     23 C14        -1.9492   -2.3835   11.3423 C.ar      1 <0>        -0.1206
     24 C15        -1.3451   -1.4246   12.1338 C.ar      1 <0>        -0.1327
     25 C16        -0.4560   -0.5263   11.5740 C.ar      1 <0>        -0.1209
     26 C17        -0.1681   -0.5892   10.2234 C.ar      1 <0>        -0.1171
     27 C18         0.8789   -0.0699   -1.1654 C.3       1 <0>        -0.1778
     28 H2          1.7069    2.0109    1.4542 H         1 <0>         0.0306
     29 H3          1.8580    2.3195   -0.2922 H         1 <0>         0.0243
     30 H4          0.2528    2.0510    0.4285 H         1 <0>         0.1341
     31 H5          2.4952   -0.0129    0.2577 H         1 <0>         0.0321
     32 H6          0.2006   -2.3855    0.4214 H         1 <0>         0.4180
     33 H7          2.9089   -1.0774    3.9081 H         1 <0>         0.1343
     34 H8          2.4009   -0.9692    6.3150 H         1 <0>         0.1256
     35 H9         -0.2715   -4.2669    5.8992 H         1 <0>         0.1279
     36 H10         0.2301   -4.3697    3.4907 H         1 <0>         0.1372
     37 H11         0.4766   -3.5430    8.0923 H         1 <0>         0.0736
     38 H12         1.5923   -2.1670    8.2660 H         1 <0>         0.0724
     39 H13        -0.2194   -0.6132    7.5935 H         1 <0>         0.0819
     40 H14        -1.3351   -1.9892    7.4199 H         1 <0>         0.0846
     41 H15        -2.1366   -3.1929    9.3725 H         1 <0>         0.1235
     42 H16        -2.6439   -3.0853   11.7797 H         1 <0>         0.1184
     43 H17        -1.5680   -1.3771   13.1895 H         1 <0>         0.1160
     44 H18         0.0157    0.2231   12.1923 H         1 <0>         0.1180
     45 H19         0.5293    0.1102    9.7867 H         1 <0>         0.1224
     46 H20        -0.1735    0.2107   -1.2068 H         1 <0>         0.1323
     47 H21         1.4317    0.4793   -1.9275 H         1 <0>         0.0193
     48 H22         0.9768   -1.1404   -1.3461 H         1 <0>         0.0328
@<TRIPOS>BOND
     1    1    2 1
     2    1   28 1
     3    1   29 1
     4    1   30 1
     5    2    3 1
     6    2   27 1
     7    2   31 1
     8    3    4 1
     9    3    5 1
    10    3    9 1
    11    5    6 2
    12    5    7 1
    13    5    8 1
    14    9   10 1
    15    9   32 1
    16   10   11 2
    17   10   12 2
    18   10   13 1
    19   13   18 ar
    20   13   14 ar
    21   14   15 ar
    22   14   33 1
    23   15   16 ar
    24   15   34 1
    25   16   17 ar
    26   16   19 1
    27   17   18 ar
    28   17   35 1
    29   18   36 1
    30   19   20 1
    31   19   37 1
    32   19   38 1
    33   20   21 1
    34   20   39 1
    35   20   40 1
    36   21   26 ar
    37   21   22 ar
    38   22   23 ar
    39   22   41 1
    40   23   24 ar
    41   23   42 1
    42   24   25 ar
    43   24   43 1
    44   25   26 ar
    45   25   44 1
    46   26   45 1
    47   27   46 1
    48   27   47 1
    49   27   48 1
@<TRIPOS>MOLECULE
ZINC00836095
   67    69     0     0     0
SMALL
USER_CHARGES
3-(cyclopentylmethyl)-4-oxo-4-(1-piperidyl)-2-[(3,4,4-trimethyl-2,5-dioxo-imidazolidin-1-yl)methyl]butanehydroxamic acid
@<TRIPOS>ATOM
      1 C1         10.4671   -2.6652    0.2435 C.3       1 <0>        -0.1431
      2 C2         10.1863   -1.1655    0.1302 C.3       1 <0>         0.1170
      3 C3          9.1803   -0.7266    1.1756 C.2       1 <0>         0.5224
      4 O1          9.3030   -0.7855    2.3803 O.2       1 <0>        -0.4408
      5 N1          8.1202   -0.2588    0.4873 N.am      1 <0>        -0.5835
      6 C4          8.3177   -0.3335   -0.8338 C.2       1 <0>         0.6957
      7 O2          7.5049    0.0322   -1.6602 O.2       1 <0>        -0.5329
      8 N2          9.5164   -0.8586   -1.1454 N.am      1 <0>        -0.6190
      9 C5         10.0510   -1.0823   -2.4909 C.3       1 <0>         0.1148
     10 C6          6.9044    0.2719    1.1090 C.3       1 <0>         0.1265
     11 C7          5.8483   -0.8324    1.1880 C.3       1 <0>        -0.0990
     12 H1          5.6684   -1.2350    0.1912 H         1 <0>         0.1108
     13 C8          4.5468   -0.2543    1.7470 C.3       1 <0>        -0.0966
     14 H2          4.7267    0.1484    2.7438 H         1 <0>         0.1117
     15 C9          4.0487    0.8630    0.8280 C.3       1 <0>        -0.1048
     16 C10         2.8463    1.5555    1.4725 C.3       1 <0>        -0.0926
     17 C11         1.6306    0.6059    1.4794 C.3       1 <0>        -0.1404
     18 C12         0.4217    1.5356    1.2046 C.3       1 <0>        -0.1230
     19 C13         0.9905    2.5414    0.1732 C.3       1 <0>        -0.1248
     20 C14         2.4395    2.7859    0.6427 C.3       1 <0>        -0.1191
     21 C15         3.5066   -1.3419    1.8248 C.2       1 <0>         0.5322
     22 O3          3.1445   -1.9080    0.8152 O.2       1 <0>        -0.5404
     23 N3          2.9786   -1.6855    3.0163 N.am      1 <0>        -0.6010
     24 C16         1.8886   -2.6674    3.0969 C.3       1 <0>         0.1107
     25 C17         0.7262   -2.0504    3.8811 C.3       1 <0>        -0.1358
     26 C18         1.2346   -1.5627    5.2397 C.3       1 <0>        -0.1203
     27 C19         2.3016   -0.4857    5.0304 C.3       1 <0>        -0.1389
     28 C20         3.4818   -1.0850    4.2592 C.3       1 <0>         0.1069
     29 C21         6.3389   -1.9328    2.0932 C.2       1 <0>         0.5300
     30 O4          6.2580   -1.8091    3.2970 O.2       1 <0>        -0.4994
     31 N4          6.8674   -3.0545    1.5651 N.am      1 <0>        -0.5932
     32 O5          7.2305   -4.1317    2.4095 O.3       1 <0>        -0.3102
     33 C22        11.4835   -0.3651    0.2632 C.3       1 <0>        -0.1464
     34 H3         11.1119   -2.9773   -0.5780 H         1 <0>         0.0822
     35 H4         10.9622   -2.8715    1.1925 H         1 <0>         0.0863
     36 H5          9.5273   -3.2154    0.1969 H         1 <0>         0.0598
     37 H6          9.3213   -0.7542   -3.2310 H         1 <0>         0.0928
     38 H7         10.9737   -0.5153   -2.6141 H         1 <0>         0.0700
     39 H8         10.2559   -2.1440   -2.6285 H         1 <0>         0.0693
     40 H9          6.5216    1.0987    0.5108 H         1 <0>         0.1195
     41 H10         7.1351    0.6265    2.1136 H         1 <0>         0.1111
     42 H11         4.8467    1.5893    0.6737 H         1 <0>         0.0797
     43 H12         3.7526    0.4392   -0.1316 H         1 <0>         0.0839
     44 H13         3.0909    1.8564    2.4912 H         1 <0>         0.0725
     45 H14         1.7249   -0.1403    0.6904 H         1 <0>         0.0776
     46 H15         1.5288    0.1236    2.4516 H         1 <0>         0.0730
     47 H16         0.1149    2.0488    2.1160 H         1 <0>         0.0631
     48 H17        -0.4112    0.9757    0.7793 H         1 <0>         0.0629
     49 H18         0.4213    3.4707    0.1927 H         1 <0>         0.0631
     50 H19         0.9816    2.1083   -0.8270 H         1 <0>         0.0646
     51 H20         2.4859    3.6838    1.2589 H         1 <0>         0.0641
     52 H21         3.0988    2.8896   -0.2191 H         1 <0>         0.0664
     53 H22         2.2405   -3.5628    3.6093 H         1 <0>         0.0654
     54 H23         1.5549   -2.9262    2.0921 H         1 <0>         0.0910
     55 H24        -0.0503   -2.8005    4.0311 H         1 <0>         0.0749
     56 H25         0.3166   -1.2088    3.3225 H         1 <0>         0.0695
     57 H26         0.4044   -1.1454    5.8096 H         1 <0>         0.0660
     58 H27         1.6665   -2.4001    5.7877 H         1 <0>         0.0645
     59 H28         1.8771    0.3411    4.4609 H         1 <0>         0.0688
     60 H29         2.6464   -0.1222    5.9984 H         1 <0>         0.0765
     61 H30         3.9637   -1.8514    4.8663 H         1 <0>         0.0748
     62 H31         4.1994   -0.2997    4.0212 H         1 <0>         0.0911
     63 H32         6.9991   -3.1239    0.6066 H         1 <0>         0.4019
     64 H33         7.6006   -4.8918    1.9401 H         1 <0>         0.3856
     65 H34        11.2577    0.7008    0.2304 H         1 <0>         0.0674
     66 H35        11.9633   -0.6058    1.2119 H         1 <0>         0.0855
     67 H36        12.1535   -0.6200   -0.5579 H         1 <0>         0.0814
@<TRIPOS>BOND
     1    1    2 1
     2    1   34 1
     3    1   35 1
     4    1   36 1
     5    2    8 1
     6    2    3 1
     7    2   33 1
     8    3    4 2
     9    3    5 am
    10    5    6 am
    11    5   10 1
    12    6    7 2
    13    6    8 am
    14    8    9 1
    15    9   37 1
    16    9   38 1
    17    9   39 1
    18   10   11 1
    19   10   40 1
    20   10   41 1
    21   11   12 1
    22   11   13 1
    23   11   29 1
    24   13   14 1
    25   13   15 1
    26   13   21 1
    27   15   16 1
    28   15   42 1
    29   15   43 1
    30   16   20 1
    31   16   17 1
    32   16   44 1
    33   17   18 1
    34   17   45 1
    35   17   46 1
    36   18   19 1
    37   18   47 1
    38   18   48 1
    39   19   20 1
    40   19   49 1
    41   19   50 1
    42   20   51 1
    43   20   52 1
    44   21   22 2
    45   21   23 am
    46   23   28 1
    47   23   24 1
    48   24   25 1
    49   24   53 1
    50   24   54 1
    51   25   26 1
    52   25   55 1
    53   25   56 1
    54   26   27 1
    55   26   57 1
    56   26   58 1
    57   27   28 1
    58   27   59 1
    59   27   60 1
    60   28   61 1
    61   28   62 1
    62   29   30 2
    63   29   31 am
    64   31   32 1
    65   31   63 1
    66   32   64 1
    67   33   65 1
    68   33   66 1
    69   33   67 1
@<TRIPOS>MOLECULE
ZINC03818629
   41    41     0     0     0
SMALL
USER_CHARGES

@<TRIPOS>ATOM
      1 C1          0.3217    1.2381   -0.4555 C.3       1 <0>        -0.1483
      2 C2          0.1189   -0.2089   -0.0016 C.3       1 <0>        -0.1216
      3 C3          0.8424   -0.4325    1.3278 C.3       1 <0>        -0.1516
      4 C4         -1.3757   -0.4820    0.1789 C.3       1 <0>         0.1171
      5 N1         -1.5796   -1.9006    0.4828 N.pl3     1 <0>        -0.9744
      6 C5         -1.4984   -2.3721    1.8675 C.3       1 <0>         0.1129
      7 C6         -2.8306   -2.1756    2.5440 C.2       1 <0>         0.5050
      8 O1         -3.7567   -1.6895    1.9300 O.2       1 <0>        -0.5035
      9 N2         -2.9929   -2.5400    3.8314 N.am      1 <0>        -0.5967
     10 O2         -4.2447   -2.3553    4.4670 O.3       1 <0>        -0.3162
     11 S1         -1.9019   -2.9711   -0.7389 S.o2      1 <0>         2.6937
     12 O3         -2.5809   -4.0702   -0.1471 O.2       1 <0>        -0.9505
     13 O4         -2.4604   -2.2150   -1.8046 O.2       1 <0>        -0.9449
     14 C7         -0.3543   -3.5859   -1.3146 C.ar      1 <0>        -0.7163
     15 C8          0.3126   -2.9311   -2.3335 C.ar      1 <0>         0.0203
     16 C9          1.5258   -3.4114   -2.7870 C.ar      1 <0>        -0.1694
     17 C10         2.0753   -4.5515   -2.2188 C.ar      1 <0>         0.1849
     18 C11         1.4045   -5.2065   -1.1963 C.ar      1 <0>        -0.2285
     19 C12         0.1939   -4.7192   -0.7428 C.ar      1 <0>         0.0201
     20 O5          3.2686   -5.0262   -2.6635 O.3       1 <0>        -0.3098
     21 C13         3.7739   -6.2044   -2.0322 C.3       1 <0>         0.0218
     22 H1          1.3864    1.4327   -0.5841 H         1 <0>         0.0600
     23 H2         -0.1938    1.3974   -1.4026 H         1 <0>         0.0607
     24 H3         -0.0831    1.9150    0.2968 H         1 <0>         0.0590
     25 H4          0.5237   -0.8858   -0.7539 H         1 <0>         0.0739
     26 H5          0.8024   -1.4898    1.5899 H         1 <0>         0.0573
     27 H6          1.8826   -0.1210    1.2323 H         1 <0>         0.0583
     28 H7          0.3577    0.1539    2.1084 H         1 <0>         0.0575
     29 H8         -1.7593    0.1241    0.9995 H         1 <0>         0.0896
     30 H9         -1.9051   -0.2274   -0.7393 H         1 <0>         0.1005
     31 H10        -1.2392   -3.4308    1.8762 H         1 <0>         0.1169
     32 H11        -0.7337   -1.8064    2.3997 H         1 <0>         0.1252
     33 H12        -2.2523   -2.9287    4.3224 H         1 <0>         0.4079
     34 H13        -4.2643   -2.6463    5.3890 H         1 <0>         0.3880
     35 H14        -0.1156   -2.0436   -2.7755 H         1 <0>         0.1477
     36 H15         2.0460   -2.9000   -3.5834 H         1 <0>         0.1429
     37 H16         1.8301   -6.0943   -0.7524 H         1 <0>         0.1395
     38 H17        -0.3266   -5.2262    0.0562 H         1 <0>         0.1420
     39 H18         3.9123   -6.0154   -0.9677 H         1 <0>         0.0609
     40 H19         3.0651   -7.0214   -2.1670 H         1 <0>         0.0613
     41 H20         4.7299   -6.4752   -2.4804 H         1 <0>         0.1066
@<TRIPOS>BOND
     1    1    2 1
     2    1   22 1
     3    1   23 1
     4    1   24 1
     5    2    3 1
     6    2    4 1
     7    2   25 1
     8    3   26 1
     9    3   27 1
    10    3   28 1
    11    4    5 1
    12    4   29 1
    13    4   30 1
    14    5    6 1
    15    5   11 1
    16    6    7 1
    17    6   31 1
    18    6   32 1
    19    7    8 2
    20    7    9 am
    21    9   10 1
    22    9   33 1
    23   10   34 1
    24   11   12 2
    25   11   13 2
    26   11   14 1
    27   14   19 ar
    28   14   15 ar
    29   15   16 ar
    30   15   35 1
    31   16   17 ar
    32   16   36 1
    33   17   18 ar
    34   17   20 1
    35   18   19 ar
    36   18   37 1
    37   19   38 1
    38   20   21 1
    39   21   39 1
    40   21   40 1
    41   21   41 1
@<TRIPOS>MOLECULE
ZINC00580356
   46    48     0     0     0
SMALL
USER_CHARGES
methyl 2-[2,6-dimethyl-4-(3-methyl-4-oxo-phthalazin-1-yl)-phenoxy]acetate
@<TRIPOS>ATOM
      1 C1          0.0154    1.6990   -0.1333 C.3       1 <0>        -0.1195
      2 C2         -0.7045    1.8661    1.1800 C.ar      1 <0>        -0.0876
      3 C3          0.0131    2.1000    2.3338 C.ar      1 <0>        -0.0940
      4 C4         -0.6542    2.2546    3.5490 C.ar      1 <0>        -0.0275
      5 C5         -2.0460    2.1720    3.5923 C.ar      1 <0>        -0.0734
      6 C6         -2.7574    1.9379    2.4348 C.ar      1 <0>        -0.0885
      7 C7         -2.0903    1.7901    1.2258 C.ar      1 <0>         0.1021
      8 O1         -2.7947    1.5651    0.0862 O.3       1 <0>        -0.3068
      9 C8         -3.0556    0.2027   -0.2569 C.3       1 <0>         0.0724
     10 C9         -3.8420    0.1498   -1.5414 C.2       1 <0>         0.4611
     11 O2         -4.1477    1.1739   -2.1052 O.2       1 <0>        -0.4810
     12 O3         -4.2029   -1.0348   -2.0592 O.3       1 <0>        -0.3570
     13 C10        -4.9588   -1.0098   -3.2986 C.3       1 <0>         0.0371
     14 C11        -4.2610    1.8490    2.4805 C.3       1 <0>        -0.1141
     15 C12         0.1136    2.5055    4.7907 C.2       1 <0>         0.1783
     16 C13         1.2638    3.4209    4.7736 C.ar      1 <0>        -0.0555
     17 C14         1.6654    4.0742    3.6094 C.ar      1 <0>        -0.1041
     18 C15         2.7501    4.9225    3.6452 C.ar      1 <0>        -0.0866
     19 C16         3.4465    5.1344    4.8279 C.ar      1 <0>        -0.1100
     20 C17         3.0673    4.4995    5.9900 C.ar      1 <0>        -0.0538
     21 C18         1.9725    3.6363    5.9758 C.ar      1 <0>        -0.1243
     22 C19         1.5231    2.9331    7.1845 C.2       1 <0>         0.5260
     23 O4          2.1050    3.0889    8.2432 O.2       1 <0>        -0.5173
     24 N1          0.4563    2.1119    7.1036 N.am      1 <0>        -0.4304
     25 N2         -0.2337    1.9169    5.9068 N.2       1 <0>        -0.2253
     26 C20         0.0056    1.4096    8.3077 C.3       1 <0>         0.0976
     27 H1          0.2542    0.6464   -0.2853 H         1 <0>         0.0733
     28 H2          0.9362    2.2821   -0.1196 H         1 <0>         0.0739
     29 H3         -0.6234    2.0475   -0.9448 H         1 <0>         0.0781
     30 H4          1.0906    2.1630    2.2968 H         1 <0>         0.1395
     31 H5         -2.5656    2.2909    4.5315 H         1 <0>         0.1368
     32 H6         -2.1116   -0.3265   -0.3868 H         1 <0>         0.1007
     33 H7         -3.6299   -0.2692    0.5403 H         1 <0>         0.1008
     34 H8         -5.8884   -0.4614   -3.1462 H         1 <0>         0.0662
     35 H9         -4.3700   -0.5186   -4.0734 H         1 <0>         0.0663
     36 H10        -5.1854   -2.0305   -3.6067 H         1 <0>         0.1066
     37 H11        -4.6884    2.8398    2.3267 H         1 <0>         0.0795
     38 H12        -4.6093    1.1773    1.6958 H         1 <0>         0.0670
     39 H13        -4.5730    1.4655    3.4519 H         1 <0>         0.0724
     40 H14         1.1299    3.9155    2.6850 H         1 <0>         0.1473
     41 H15         3.0621    5.4287    2.7437 H         1 <0>         0.1379
     42 H16         4.2943    5.8035    4.8365 H         1 <0>         0.1385
     43 H17         3.6144    4.6689    6.9056 H         1 <0>         0.1441
     44 H18        -0.7285    2.0216    8.8319 H         1 <0>         0.0710
     45 H19        -0.4482    0.4596    8.0258 H         1 <0>         0.0887
     46 H20         0.8582    1.2252    8.9614 H         1 <0>         0.0931
@<TRIPOS>BOND
     1    1    2 1
     2    1   27 1
     3    1   28 1
     4    1   29 1
     5    2    7 ar
     6    2    3 ar
     7    3    4 ar
     8    3   30 1
     9    4    5 ar
    10    4   15 1
    11    5    6 ar
    12    5   31 1
    13    6    7 ar
    14    6   14 1
    15    7    8 1
    16    8    9 1
    17    9   10 1
    18    9   32 1
    19    9   33 1
    20   10   11 2
    21   10   12 1
    22   12   13 1
    23   13   34 1
    24   13   35 1
    25   13   36 1
    26   14   37 1
    27   14   38 1
    28   14   39 1
    29   15   25 2
    30   15   16 1
    31   16   21 ar
    32   16   17 ar
    33   17   18 ar
    34   17   40 1
    35   18   19 ar
    36   18   41 1
    37   19   20 ar
    38   19   42 1
    39   20   21 ar
    40   20   43 1
    41   21   22 1
    42   22   23 2
    43   22   24 am
    44   24   25 1
    45   24   26 1
    46   26   44 1
    47   26   45 1
    48   26   46 1
@<TRIPOS>MOLECULE
ZINC13534671
   45    46     0     0     0
SMALL
USER_CHARGES

@<TRIPOS>ATOM
      1 C1         -0.0187    1.5258    0.0104 C.3       1 <0>        -0.1413
      2 C2          0.0021   -0.0041    0.0020 C.3       1 <0>        -0.0786
      3 C3          0.7182   -0.4975   -1.2568 C.3       1 <0>        -0.1477
      4 C4          0.7421   -0.5109    1.2415 C.3       1 <0>         0.0758
      5 H1          0.8346   -1.5958    1.1912 H         1 <0>         0.0799
      6 C5          2.1149    0.1084    1.2952 C.2       1 <0>         0.4897
      7 O1          2.3764    0.9381    2.1495 O.co2     1 <0>        -0.6772
      8 O2          2.9641   -0.2203    0.4845 O.co2     1 <0>        -0.6912
      9 N1         -0.0083   -0.1401    2.4439 N.pl3     1 <0>        -1.0834
     10 S1         -0.0331   -1.1568    3.7508 S.o2      1 <0>         2.6976
     11 O3         -0.8106   -0.5134    4.7512 O.2       1 <0>        -0.9776
     12 O4         -0.3504   -2.4496    3.2537 O.2       1 <0>        -0.9720
     13 C6          1.6131   -1.2463    4.3726 C.ar      1 <0>        -0.6532
     14 C7          2.4803   -2.2101    3.8904 C.ar      1 <0>        -0.0064
     15 C8          3.7710   -2.2846    4.3735 C.ar      1 <0>        -0.1317
     16 C9          4.2000   -1.3864    5.3488 C.ar      1 <0>         0.0098
     17 C10         3.3221   -0.4175    5.8309 C.ar      1 <0>        -0.1358
     18 C11         2.0352   -0.3489    5.3369 C.ar      1 <0>         0.0030
     19 C12         5.5861   -1.4618    5.8723 C.ar      1 <0>        -0.0821
     20 C13         6.4648   -2.4280    5.3854 C.ar      1 <0>        -0.0638
     21 C14         7.7528   -2.4953    5.8736 C.ar      1 <0>        -0.1497
     22 C15         8.1744   -1.6023    6.8494 C.ar      1 <0>         0.1265
     23 C16         7.3014   -0.6388    7.3363 C.ar      1 <0>        -0.2074
     24 C17         6.0140   -0.5629    6.8478 C.ar      1 <0>        -0.0640
     25 O5          9.4437   -1.6716    7.3291 O.3       1 <0>        -0.3182
     26 C18         9.8110   -0.7221    8.3320 C.3       1 <0>         0.0269
     27 H2          1.0039    1.9031    0.0027 H         1 <0>         0.0651
     28 H3         -0.5459    1.8868   -0.8726 H         1 <0>         0.0449
     29 H4         -0.5289    1.8773    0.9072 H         1 <0>         0.0481
     30 H5         -1.0205   -0.3814    0.0098 H         1 <0>         0.0607
     31 H6          1.7408   -0.1202   -1.2645 H         1 <0>         0.0874
     32 H7          0.7330   -1.5874   -1.2628 H         1 <0>         0.0474
     33 H8          0.1910   -0.1364   -2.1398 H         1 <0>         0.0409
     34 H9         -0.4906    0.7010    2.4745 H         1 <0>         0.4119
     35 H10         2.1466   -2.9059    3.1348 H         1 <0>         0.1346
     36 H11         4.4471   -3.0377    3.9966 H         1 <0>         0.1289
     37 H12         3.6494    0.2811    6.5868 H         1 <0>         0.1273
     38 H13         1.3554    0.4044    5.7065 H         1 <0>         0.1354
     39 H14         6.1372   -3.1234    4.6269 H         1 <0>         0.1362
     40 H15         8.4341   -3.2438    5.4967 H         1 <0>         0.1331
     41 H16         7.6320    0.0544    8.0956 H         1 <0>         0.1295
     42 H17         5.3365    0.1894    7.2239 H         1 <0>         0.1309
     43 H18         9.7030    0.2869    7.9340 H         1 <0>         0.0561
     44 H19         9.1628   -0.8416    9.2001 H         1 <0>         0.0551
     45 H20        10.8473   -0.8875    8.6267 H         1 <0>         0.0987
@<TRIPOS>BOND
     1    1    2 1
     2    1   27 1
     3    1   28 1
     4    1   29 1
     5    2    3 1
     6    2    4 1
     7    2   30 1
     8    3   31 1
     9    3   32 1
    10    3   33 1
    11    4    5 1
    12    4    6 1
    13    4    9 1
    14    6    7 2
    15    6    8 1
    16    9   10 1
    17    9   34 1
    18   10   11 2
    19   10   12 2
    20   10   13 1
    21   13   18 ar
    22   13   14 ar
    23   14   15 ar
    24   14   35 1
    25   15   16 ar
    26   15   36 1
    27   16   17 ar
    28   16   19 1
    29   17   18 ar
    30   17   37 1
    31   18   38 1
    32   19   24 ar
    33   19   20 ar
    34   20   21 ar
    35   20   39 1
    36   21   22 ar
    37   21   40 1
    38   22   23 ar
    39   22   25 1
    40   23   24 ar
    41   23   41 1
    42   24   42 1
    43   25   26 1
    44   26   43 1
    45   26   44 1
    46   26   45 1
@<TRIPOS>MOLECULE
ZINC03093383
   43    43     0     0     0
SMALL
USER_CHARGES

@<TRIPOS>ATOM
      1 C1         -6.8110   10.5081   -0.8098 C.3       1 <0>        -0.1536
      2 C2         -6.5729    9.0123   -0.5934 C.3       1 <0>        -0.1264
      3 C3         -5.0857    8.7014   -0.7732 C.3       1 <0>        -0.1189
      4 C4         -4.8475    7.2056   -0.5568 C.3       1 <0>        -0.1183
      5 C5         -3.3603    6.8947   -0.7366 C.3       1 <0>        -0.1178
      6 C6         -3.1222    5.3989   -0.5202 C.3       1 <0>         0.0584
      7 O1         -1.7331    5.1085   -0.6882 O.3       1 <0>        -0.3187
      8 C7         -1.3496    3.8145   -0.5287 C.ar      1 <0>         0.1204
      9 C8         -0.0162    3.4616   -0.6774 C.ar      1 <0>        -0.1531
     10 C9          0.3710    2.1455   -0.5152 C.ar      1 <0>        -0.0738
     11 C10        -0.5692    1.1802   -0.2055 C.ar      1 <0>        -0.1028
     12 C11        -1.8997    1.5284   -0.0624 C.ar      1 <0>        -0.0641
     13 C12        -2.2910    2.8442   -0.2175 C.ar      1 <0>        -0.2061
     14 C13        -0.1442   -0.2548   -0.0296 C.3       1 <0>        -0.0474
     15 H1          0.9318   -0.3366   -0.1839 H         1 <0>         0.0975
     16 C14        -0.4934   -0.7205    1.3853 C.3       1 <0>        -0.1422
     17 C15         0.0613   -2.1035    1.6103 C.2       1 <0>         0.4639
     18 O2          0.7446   -2.6258    0.7616 O.co2     1 <0>        -0.6417
     19 C16        -0.8627   -1.1183   -1.0343 C.2       1 <0>         0.5508
     20 O3         -1.9807   -1.5235   -0.7961 O.2       1 <0>        -0.5491
     21 N1         -0.2628   -1.4402   -2.1975 N.am      1 <0>        -0.8529
     22 H2         -6.2305   11.0772   -0.0837 H         1 <0>         0.0534
     23 H3         -6.5017   10.7831   -1.8181 H         1 <0>         0.0532
     24 H4         -7.8706   10.7296   -0.6816 H         1 <0>         0.0529
     25 H5         -7.1535    8.4432   -1.3194 H         1 <0>         0.0612
     26 H6         -6.8822    8.7373    0.4150 H         1 <0>         0.0615
     27 H7         -4.5051    9.2705   -0.0471 H         1 <0>         0.0630
     28 H8         -4.7763    8.9764   -1.7815 H         1 <0>         0.0627
     29 H9         -5.4281    6.6365   -1.2829 H         1 <0>         0.0652
     30 H10        -5.1569    6.9306    0.4516 H         1 <0>         0.0657
     31 H11        -2.7797    7.4638   -0.0106 H         1 <0>         0.0729
     32 H12        -3.0510    7.1697   -1.7450 H         1 <0>         0.0723
     33 H13        -3.7027    4.8298   -1.2463 H         1 <0>         0.0605
     34 H14        -3.4315    5.1239    0.4881 H         1 <0>         0.0615
     35 H15         0.7186    4.2153   -0.9194 H         1 <0>         0.1284
     36 H16         1.4089    1.8703   -0.6309 H         1 <0>         0.1313
     37 H17        -2.6329    0.7718    0.1748 H         1 <0>         0.1330
     38 H18        -3.3297    3.1163   -0.1016 H         1 <0>         0.1250
     39 H19        -0.0601   -0.0326    2.1115 H         1 <0>         0.0734
     40 H20        -1.5767   -0.7397    1.5045 H         1 <0>         0.0785
     41 H21         0.6579   -1.1798   -2.3567 H         1 <0>         0.3982
     42 H22        -0.7518   -1.9323   -2.8754 H         1 <0>         0.3930
     43 O4         -0.2037   -2.7551    2.7535 O.co2     1 <0>        -0.7712
@<TRIPOS>BOND
     1    1    2 1
     2    1   22 1
     3    1   23 1
     4    1   24 1
     5    2    3 1
     6    2   25 1
     7    2   26 1
     8    3    4 1
     9    3   27 1
    10    3   28 1
    11    4    5 1
    12    4   29 1
    13    4   30 1
    14    5    6 1
    15    5   31 1
    16    5   32 1
    17    6    7 1
    18    6   33 1
    19    6   34 1
    20    7    8 1
    21    8   13 ar
    22    8    9 ar
    23    9   10 ar
    24    9   35 1
    25   10   11 ar
    26   10   36 1
    27   11   12 ar
    28   11   14 1
    29   12   13 ar
    30   12   37 1
    31   13   38 1
    32   14   15 1
    33   14   16 1
    34   14   19 1
    35   16   17 1
    36   16   39 1
    37   16   40 1
    38   17   18 2
    39   17   43 1
    40   19   20 2
    41   19   21 am
    42   21   41 1
    43   21   42 1
@<TRIPOS>MOLECULE
ZINC03093384
   43    43     0     0     0
SMALL
USER_CHARGES

@<TRIPOS>ATOM
      1 C1         -0.1648    2.0292   -1.2079 C.3       1 <0>        -0.1533
      2 C2         -0.1232    0.5085   -1.0452 C.3       1 <0>        -0.1262
      3 C3          0.5585   -0.1164   -2.2641 C.3       1 <0>        -0.1190
      4 C4          0.6001   -1.6372   -2.1013 C.3       1 <0>        -0.1178
      5 C5          1.2818   -2.2621   -3.3203 C.3       1 <0>        -0.1178
      6 C6          1.3234   -3.7828   -3.1575 C.3       1 <0>         0.0598
      7 O1          1.9601   -4.3664   -4.2960 O.3       1 <0>        -0.3213
      8 C7          2.0792   -5.7202   -4.3098 C.ar      1 <0>         0.1168
      9 C8          1.5881   -6.4717   -3.2521 C.ar      1 <0>        -0.2149
     10 C9          1.7100   -7.8477   -3.2688 C.ar      1 <0>        -0.0395
     11 C10         2.3212   -8.4758   -4.3382 C.ar      1 <0>        -0.0693
     12 C11         2.8118   -7.7290   -5.3933 C.ar      1 <0>        -0.0501
     13 C12         2.6868   -6.3532   -5.3843 C.ar      1 <0>        -0.1605
     14 C13         2.4532   -9.9770   -4.3536 C.3       1 <0>        -0.0452
     15 H1          2.0127  -10.3897   -3.4460 H         1 <0>         0.1050
     16 C14         3.9335  -10.3580   -4.4209 C.3       1 <0>        -0.1740
     17 C15         4.6203   -9.9318   -3.1491 C.2       1 <0>         0.4956
     18 O2          3.9654   -9.4851   -2.2228 O.co2     1 <0>        -0.6853
     19 O3          5.8309  -10.0336   -3.0464 O.co2     1 <0>        -0.7036
     20 C16         1.7363  -10.5320   -5.5573 C.2       1 <0>         0.5213
     21 O4          1.2815   -9.7795   -6.3926 O.2       1 <0>        -0.5444
     22 N1          1.6005  -11.8647   -5.7056 N.am      1 <0>        -0.8599
     23 H2          0.8517    2.4135   -1.2926 H         1 <0>         0.0534
     24 H3         -0.7254    2.2831   -2.1076 H         1 <0>         0.0529
     25 H4         -0.6504    2.4744   -0.3396 H         1 <0>         0.0522
     26 H5          0.4374    0.2546   -0.1455 H         1 <0>         0.0615
     27 H6         -1.1397    0.1241   -0.9605 H         1 <0>         0.0607
     28 H7         -0.0021    0.1375   -3.1638 H         1 <0>         0.0622
     29 H8          1.5749    0.2679   -2.3488 H         1 <0>         0.0630
     30 H9          1.1607   -1.8911   -1.2017 H         1 <0>         0.0656
     31 H10        -0.4164   -2.0215   -2.0167 H         1 <0>         0.0643
     32 H11         0.7212   -2.0082   -4.2200 H         1 <0>         0.0710
     33 H12         2.2982   -1.8777   -3.4049 H         1 <0>         0.0722
     34 H13         1.8840   -4.0367   -2.2578 H         1 <0>         0.0603
     35 H14         0.3069   -4.1671   -3.0729 H         1 <0>         0.0579
     36 H15         1.1113   -5.9815   -2.4162 H         1 <0>         0.1196
     37 H16         1.3279   -8.4332   -2.4456 H         1 <0>         0.1224
     38 H17         3.2891   -8.2220   -6.2274 H         1 <0>         0.1198
     39 H18         3.0663   -5.7707   -6.2108 H         1 <0>         0.1219
     40 H19         4.0257  -11.4377   -4.5394 H         1 <0>         0.0624
     41 H20         4.3990   -9.8582   -5.2704 H         1 <0>         0.0640
     42 H21         2.0268  -12.4685   -5.0774 H         1 <0>         0.4017
     43 H22         1.0765  -12.2200   -6.4405 H         1 <0>         0.3943
@<TRIPOS>BOND
     1    1    2 1
     2    1   23 1
     3    1   24 1
     4    1   25 1
     5    2    3 1
     6    2   26 1
     7    2   27 1
     8    3    4 1
     9    3   28 1
    10    3   29 1
    11    4    5 1
    12    4   30 1
    13    4   31 1
    14    5    6 1
    15    5   32 1
    16    5   33 1
    17    6    7 1
    18    6   34 1
    19    6   35 1
    20    7    8 1
    21    8   13 ar
    22    8    9 ar
    23    9   10 ar
    24    9   36 1
    25   10   11 ar
    26   10   37 1
    27   11   12 ar
    28   11   14 1
    29   12   13 ar
    30   12   38 1
    31   13   39 1
    32   14   15 1
    33   14   16 1
    34   14   20 1
    35   16   17 1
    36   16   40 1
    37   16   41 1
    38   17   18 2
    39   17   19 1
    40   20   21 2
    41   20   22 am
    42   22   42 1
    43   22   43 1
@<TRIPOS>MOLECULE
ZINC04501577
   40    41     0     0     0
SMALL
USER_CHARGES

@<TRIPOS>ATOM
      1 C1         -0.0167    1.3790    0.0096 C.ar      1 <0>        -0.1251
      2 C2          1.1687    2.0919    0.0021 C.ar      1 <0>        -0.1216
      3 C3          2.3774    1.4258   -0.0129 C.ar      1 <0>        -0.1078
      4 C4          2.4022    0.0327   -0.0206 C.ar      1 <0>        -0.0380
      5 C5          1.2051   -0.6804   -0.0130 C.ar      1 <0>        -0.1056
      6 C6          0.0021   -0.0041    0.0020 C.ar      1 <0>        -0.1201
      7 C7          3.6987   -0.6889   -0.0373 C.ar      1 <0>        -0.0082
      8 C8          4.8958    0.0241   -0.0395 C.ar      1 <0>        -0.1338
      9 C9          6.0988   -0.6522   -0.0546 C.ar      1 <0>        -0.0067
     10 C10         6.1176   -2.0352   -0.0680 C.ar      1 <0>        -0.6550
     11 C11         4.9322   -2.7481   -0.0663 C.ar      1 <0>        -0.0020
     12 C12         3.7235   -2.0821   -0.0450 C.ar      1 <0>        -0.1246
     13 S1          7.6571   -2.8920   -0.0877 S.o2      1 <0>         2.6934
     14 O1          7.4021   -4.1724   -0.6489 O.2       1 <0>        -0.9662
     15 O2          8.6134   -1.9962   -0.6373 O.2       1 <0>        -0.9811
     16 N1          8.0968   -3.1452    1.4886 N.pl3     1 <0>        -1.0760
     17 C13         7.2857   -4.0143    2.3448 C.3       1 <0>         0.0765
     18 H1          6.7397   -4.7266    1.7262 H         1 <0>         0.0758
     19 C14         8.1975   -4.7725    3.3115 C.3       1 <0>        -0.0746
     20 C15         9.1061   -5.7165    2.5214 C.3       1 <0>        -0.1797
     21 C16        10.0042   -6.4633    3.4737 C.2       1 <0>         0.4910
     22 O3          9.9249   -6.2595    4.6731 O.co2     1 <0>        -0.6996
     23 O4         10.8101   -7.2714    3.0446 O.co2     1 <0>        -0.7196
     24 C17         6.3083   -3.1768    3.1285 C.2       1 <0>         0.4901
     25 O5          5.2310   -3.6441    3.4565 O.co2     1 <0>        -0.7010
     26 O6          6.5948   -2.0320    3.4346 O.co2     1 <0>        -0.6887
     27 H2         -0.9603    1.9042    0.0260 H         1 <0>         0.1187
     28 H3          1.1483    3.1717    0.0077 H         1 <0>         0.1214
     29 H4          3.3023    1.9834   -0.0191 H         1 <0>         0.1271
     30 H5          1.2186   -1.7603   -0.0193 H         1 <0>         0.1290
     31 H6         -0.9264   -0.5558    0.0082 H         1 <0>         0.1223
     32 H7          4.8823    1.1040   -0.0299 H         1 <0>         0.1276
     33 H8          7.0273   -0.1005   -0.0564 H         1 <0>         0.1375
     34 H9          4.9525   -3.8278   -0.0771 H         1 <0>         0.1396
     35 H10         2.7986   -2.6396   -0.0392 H         1 <0>         0.1294
     36 H11         8.8914   -2.7181    1.8450 H         1 <0>         0.4149
     37 H12         8.8083   -4.0616    3.8681 H         1 <0>         0.0622
     38 H13         7.5891   -5.3511    4.0067 H         1 <0>         0.0696
     39 H14         8.4953   -6.4274    1.9649 H         1 <0>         0.0551
     40 H15         9.7145   -5.1380    1.8263 H         1 <0>         0.0538
@<TRIPOS>BOND
     1    1    6 ar
     2    1    2 ar
     3    1   27 1
     4    2    3 ar
     5    2   28 1
     6    3    4 ar
     7    3   29 1
     8    4    5 ar
     9    4    7 1
    10    5    6 ar
    11    5   30 1
    12    6   31 1
    13    7   12 ar
    14    7    8 ar
    15    8    9 ar
    16    8   32 1
    17    9   10 ar
    18    9   33 1
    19   10   11 ar
    20   10   13 1
    21   11   12 ar
    22   11   34 1
    23   12   35 1
    24   13   14 2
    25   13   15 2
    26   13   16 1
    27   16   17 1
    28   16   36 1
    29   17   18 1
    30   17   19 1
    31   17   24 1
    32   19   20 1
    33   19   37 1
    34   19   38 1
    35   20   21 1
    36   20   39 1
    37   20   40 1
    38   21   22 2
    39   21   23 1
    40   24   25 2
    41   24   26 1
@<TRIPOS>MOLECULE
ZINC04501578
   40    41     0     0     0
SMALL
USER_CHARGES

@<TRIPOS>ATOM
      1 C1         -0.0167    1.3790    0.0096 C.ar      1 <0>        -0.1219
      2 C2          1.1687    2.0919    0.0021 C.ar      1 <0>        -0.1206
      3 C3          2.3774    1.4258   -0.0129 C.ar      1 <0>        -0.1048
      4 C4          2.4022    0.0327   -0.0206 C.ar      1 <0>        -0.0434
      5 C5          1.2051   -0.6804   -0.0130 C.ar      1 <0>        -0.1054
      6 C6          0.0021   -0.0041    0.0020 C.ar      1 <0>        -0.1206
      7 C7          3.6987   -0.6889   -0.0373 C.ar      1 <0>        -0.0051
      8 C8          4.8958    0.0241   -0.0395 C.ar      1 <0>        -0.1311
      9 C9          6.0988   -0.6522   -0.0546 C.ar      1 <0>        -0.0131
     10 C10         6.1176   -2.0352   -0.0680 C.ar      1 <0>        -0.6667
     11 C11         4.9322   -2.7481   -0.0663 C.ar      1 <0>        -0.0146
     12 C12         3.7235   -2.0821   -0.0450 C.ar      1 <0>        -0.1311
     13 S1          7.6571   -2.8920   -0.0877 S.o2      1 <0>         2.6919
     14 O1          7.4021   -4.1724   -0.6489 O.2       1 <0>        -0.9502
     15 O2          8.6134   -1.9962   -0.6373 O.2       1 <0>        -0.9824
     16 N1          8.0968   -3.1452    1.4886 N.pl3     1 <0>        -1.0740
     17 C13         7.2857   -4.0143    2.3448 C.3       1 <0>         0.0854
     18 H1          6.2629   -4.0423    1.9691 H         1 <0>         0.0670
     19 C14         7.2892   -3.4690    3.7743 C.3       1 <0>        -0.0792
     20 C15         6.5915   -2.1077    3.8026 C.3       1 <0>        -0.1761
     21 C16         6.5949   -1.5706    5.2106 C.2       1 <0>         0.4909
     22 O3          7.1079   -2.2167    6.1083 O.co2     1 <0>        -0.6974
     23 O4          6.0847   -0.4899    5.4521 O.co2     1 <0>        -0.7201
     24 C17         7.8621   -5.4068    2.3369 C.2       1 <0>         0.4950
     25 O5          8.9520   -5.6125    1.8308 O.co2     1 <0>        -0.6882
     26 O6          7.2384   -6.3275    2.8366 O.co2     1 <0>        -0.7015
     27 H2         -0.9603    1.9042    0.0260 H         1 <0>         0.1196
     28 H3          1.1483    3.1717    0.0077 H         1 <0>         0.1227
     29 H4          3.3023    1.9834   -0.0191 H         1 <0>         0.1281
     30 H5          1.2186   -1.7603   -0.0193 H         1 <0>         0.1285
     31 H6         -0.9264   -0.5558    0.0082 H         1 <0>         0.1228
     32 H7          4.8823    1.1040   -0.0299 H         1 <0>         0.1309
     33 H8          7.0273   -0.1005   -0.0564 H         1 <0>         0.1406
     34 H9          4.9525   -3.8278   -0.0771 H         1 <0>         0.1440
     35 H10         2.7986   -2.6396   -0.0392 H         1 <0>         0.1317
     36 H11         8.8914   -2.7181    1.8450 H         1 <0>         0.4135
     37 H12         6.7605   -4.1620    4.4288 H         1 <0>         0.0743
     38 H13         8.3176   -3.3574    4.1181 H         1 <0>         0.0604
     39 H14         7.1202   -1.4148    3.1481 H         1 <0>         0.0517
     40 H15         5.5631   -2.2193    3.4588 H         1 <0>         0.0486
@<TRIPOS>BOND
     1    1    6 ar
     2    1    2 ar
     3    1   27 1
     4    2    3 ar
     5    2   28 1
     6    3    4 ar
     7    3   29 1
     8    4    5 ar
     9    4    7 1
    10    5    6 ar
    11    5   30 1
    12    6   31 1
    13    7   12 ar
    14    7    8 ar
    15    8    9 ar
    16    8   32 1
    17    9   10 ar
    18    9   33 1
    19   10   11 ar
    20   10   13 1
    21   11   12 ar
    22   11   34 1
    23   12   35 1
    24   13   14 2
    25   13   15 2
    26   13   16 1
    27   16   17 1
    28   16   36 1
    29   17   18 1
    30   17   19 1
    31   17   24 1
    32   19   20 1
    33   19   37 1
    34   19   38 1
    35   20   21 1
    36   20   39 1
    37   20   40 1
    38   21   22 2
    39   21   23 1
    40   24   25 2
    41   24   26 1
@<TRIPOS>MOLECULE
ZINC06744035
   50    53     0     0     0
SMALL
USER_CHARGES
3-phenyl-3-[[4-[4-(4-pyridyl)phenyl]-2-thienyl]carbonylamino]propanoic acid
@<TRIPOS>ATOM
      1 C1          3.3384    8.0117    3.9168 C.ar      1 <0>        -0.1296
      2 C2          2.8712    8.8800    2.9480 C.ar      1 <0>        -0.1204
      3 C3          2.6986    8.4385    1.6494 C.ar      1 <0>        -0.1045
      4 C4          2.9938    7.1289    1.3197 C.ar      1 <0>        -0.0807
      5 C5          3.4561    6.2593    2.2897 C.ar      1 <0>        -0.1082
      6 C6          3.6327    6.7019    3.5873 C.ar      1 <0>        -0.1228
      7 C7          2.8057    6.6476   -0.0960 C.3       1 <0>         0.2043
      8 H1          2.1225    7.3164   -0.6194 H         1 <0>         0.1008
      9 C8          4.1567    6.6348   -0.8140 C.3       1 <0>        -0.1652
     10 C9          3.9508    6.2867   -2.2657 C.2       1 <0>         0.4588
     11 O1          2.8495    5.9919   -2.6659 O.co2     1 <0>        -0.6272
     12 N1          2.2477    5.2932   -0.0812 N.am      1 <0>        -0.6877
     13 C10         0.9140    5.1146   -0.0047 C.2       1 <0>         0.6082
     14 O2          0.1793    6.0733    0.1443 O.2       1 <0>        -0.5294
     15 C11         0.3481    3.7652   -0.1011 C.2       1 <0>        -0.2078
     16 C12        -0.9763    3.3749   -0.0463 C.2       1 <0>        -0.0781
     17 C13        -1.2433    2.0234   -0.1691 C.2       1 <0>        -0.1053
     18 C14        -0.1812    1.1560   -0.3263 C.2       1 <0>        -0.1943
     19 S1          1.1943    2.2106   -0.3178 S.3       1 <0>         0.1755
     20 C15        -2.6371    1.5178   -0.1283 C.ar      1 <0>        -0.0027
     21 C16        -3.6973    2.4086    0.0364 C.ar      1 <0>        -0.1123
     22 C17        -4.9921    1.9398    0.0686 C.ar      1 <0>        -0.0928
     23 C18        -5.2419    0.5729   -0.0520 C.ar      1 <0>        -0.0685
     24 C19        -4.1811   -0.3185   -0.2109 C.ar      1 <0>        -0.0951
     25 C20        -2.8868    0.1511   -0.2489 C.ar      1 <0>        -0.1133
     26 C21        -6.6353    0.0676   -0.0116 C.ar      1 <0>         0.0090
     27 C22        -6.9079   -1.2981   -0.1369 C.ar      1 <0>        -0.1699
     28 C23        -8.2184   -1.7260   -0.0883 C.ar      1 <0>         0.1019
     29 N2         -9.2068   -0.8651    0.0629 N.ar      1 <0>        -0.4919
     30 C24        -8.9933    0.4317    0.1792 C.ar      1 <0>         0.1027
     31 C25        -7.7129    0.9442    0.1469 C.ar      1 <0>        -0.1691
     32 H2          3.4739    8.3568    4.9312 H         1 <0>         0.1163
     33 H3          2.6412    9.9033    3.2055 H         1 <0>         0.1190
     34 H4          2.3336    9.1168    0.8925 H         1 <0>         0.1228
     35 H5          3.6825    5.2349    2.0330 H         1 <0>         0.1164
     36 H6          3.9981    6.0236    4.3442 H         1 <0>         0.1174
     37 H7          4.6178    7.6196   -0.7383 H         1 <0>         0.0837
     38 H8          4.8071    5.8926   -0.3511 H         1 <0>         0.0713
     39 H9          2.8380    4.5248   -0.1265 H         1 <0>         0.3950
     40 H10        -1.7703    4.0957    0.0823 H         1 <0>         0.1490
     41 H11        -0.2024    0.0816   -0.4333 H         1 <0>         0.1905
     42 H12        -3.5035    3.4665    0.1345 H         1 <0>         0.1322
     43 H13        -5.8134    2.6301    0.1917 H         1 <0>         0.1285
     44 H14        -4.3745   -1.3769   -0.3047 H         1 <0>         0.1276
     45 H15        -2.0653   -0.5391   -0.3716 H         1 <0>         0.1282
     46 H16        -6.1040   -2.0078   -0.2655 H         1 <0>         0.1370
     47 H17        -8.4387   -2.7793   -0.1797 H         1 <0>         0.1565
     48 H18        -9.8322    1.1009    0.3010 H         1 <0>         0.1570
     49 H19        -7.5454    2.0068    0.2431 H         1 <0>         0.1379
     50 O3          4.9908    6.3042   -3.1141 O.co2     1 <0>        -0.7712
@<TRIPOS>BOND
     1    1    6 ar
     2    1    2 ar
     3    1   32 1
     4    2    3 ar
     5    2   33 1
     6    3    4 ar
     7    3   34 1
     8    4    5 ar
     9    4    7 1
    10    5    6 ar
    11    5   35 1
    12    6   36 1
    13    7    8 1
    14    7    9 1
    15    7   12 1
    16    9   10 1
    17    9   37 1
    18    9   38 1
    19   10   11 2
    20   10   50 1
    21   12   13 am
    22   12   39 1
    23   13   14 2
    24   13   15 1
    25   15   19 1
    26   15   16 2
    27   16   17 1
    28   16   40 1
    29   17   18 2
    30   17   20 1
    31   18   19 1
    32   18   41 1
    33   20   25 ar
    34   20   21 ar
    35   21   22 ar
    36   21   42 1
    37   22   23 ar
    38   22   43 1
    39   23   24 ar
    40   23   26 1
    41   24   25 ar
    42   24   44 1
    43   25   45 1
    44   26   31 ar
    45   26   27 ar
    46   27   28 ar
    47   27   46 1
    48   28   29 ar
    49   28   47 1
    50   29   30 ar
    51   30   31 ar
    52   30   48 1
    53   31   49 1
@<TRIPOS>MOLECULE
ZINC43014500
   49    52     0     0     0
SMALL
USER_CHARGES

@<TRIPOS>ATOM
      1 C1         -0.0187    1.5258    0.0104 C.3       1 <0>        -0.1420
      2 C2          0.0021   -0.0041    0.0020 C.3       1 <0>        -0.0807
      3 C3          0.7421   -0.5109    1.2415 C.3       1 <0>        -0.1427
      4 C4         -1.4333   -0.5336    0.0129 C.3       1 <0>         0.0748
      5 H1         -1.4190   -1.6203    0.0965 H         1 <0>         0.0817
      6 C5         -2.1755    0.0508    1.1870 C.2       1 <0>         0.4901
      7 O1         -2.7808    1.1019    1.0636 O.co2     1 <0>        -0.6798
      8 O2         -2.1706   -0.5275    2.2604 O.co2     1 <0>        -0.6901
      9 N1         -2.1054   -0.1483   -1.2305 N.pl3     1 <0>        -1.0826
     10 S1         -3.2090   -1.1686   -1.9257 S.o2      1 <0>         2.7004
     11 O3         -3.6969   -0.5094   -3.0862 O.2       1 <0>        -0.9702
     12 O4         -2.5998   -2.4514   -1.9777 O.2       1 <0>        -0.9611
     13 C6         -4.5687   -1.3016   -0.8130 C.ar      1 <0>        -0.6285
     14 C7         -4.5656   -2.2885    0.1600 C.ar      1 <0>        -0.0276
     15 C8         -5.6249   -2.4004    1.0358 C.ar      1 <0>        -0.0717
     16 C9         -6.6962   -1.5189    0.9385 C.ar      1 <0>        -0.0741
     17 C10        -7.9577   -1.3527    1.6856 C.ar      1 <0>        -0.0929
     18 C11        -8.5367   -2.0171    2.7613 C.ar      1 <0>        -0.0886
     19 C12        -9.7678   -1.6023    3.2412 C.ar      1 <0>         0.1553
     20 C13       -10.4186   -0.5255    2.6471 C.ar      1 <0>        -0.1135
     21 C14        -9.8487    0.1356    1.5806 C.ar      1 <0>        -0.0865
     22 C15        -8.6134   -0.2681    1.0873 C.ar      1 <0>         0.0743
     23 O5         -7.8440    0.1932    0.0756 O.3       1 <0>        -0.1943
     24 C16        -6.7025   -0.5197   -0.0444 C.ar      1 <0>         0.0644
     25 C17        -5.6234   -0.4192   -0.9148 C.ar      1 <0>         0.0042
     26 N2        -10.3580   -2.2671    4.3247 N.am      1 <0>        -0.5709
     27 C18       -11.6613   -1.9446    4.9386 C.3       1 <0>         0.0581
     28 C19       -11.9440   -3.2062    5.7883 C.3       1 <0>         0.0395
     29 O6        -10.6173   -3.7239    6.0076 O.3       1 <0>        -0.3199
     30 C20        -9.8409   -3.3181    4.9885 C.2       1 <0>         0.6417
     31 O7         -8.7834   -3.8420    4.6987 O.2       1 <0>        -0.4900
     32 H2          1.0039    1.9031    0.0027 H         1 <0>         0.0419
     33 H3         -0.5459    1.8868   -0.8726 H         1 <0>         0.0491
     34 H4         -0.5289    1.8773    0.9072 H         1 <0>         0.0713
     35 H5          0.5123   -0.3556   -0.8948 H         1 <0>         0.0634
     36 H6          0.2319   -0.1594    2.1383 H         1 <0>         0.0719
     37 H7          0.7568   -1.6008    1.2356 H         1 <0>         0.0514
     38 H8          1.7647   -0.1336    1.2338 H         1 <0>         0.0458
     39 H9         -1.9040    0.7045   -1.6466 H         1 <0>         0.4149
     40 H10        -3.7320   -2.9715    0.2322 H         1 <0>         0.1476
     41 H11        -5.6227   -3.1697    1.7938 H         1 <0>         0.1388
     42 H12        -8.0290   -2.8528    3.2199 H         1 <0>         0.1624
     43 H13       -11.3785   -0.2053    3.0246 H         1 <0>         0.1406
     44 H14       -10.3632    0.9697    1.1267 H         1 <0>         0.1438
     45 H15        -5.6130    0.3484   -1.6745 H         1 <0>         0.1498
     46 H16       -11.5841   -1.0601    5.5710 H         1 <0>         0.0997
     47 H17       -12.4276   -1.8113    4.1750 H         1 <0>         0.1076
     48 H18       -12.4193   -2.9410    6.7327 H         1 <0>         0.1260
     49 H19       -12.5537   -3.9200    5.2343 H         1 <0>         0.0973
@<TRIPOS>BOND
     1    1    2 1
     2    1   32 1
     3    1   33 1
     4    1   34 1
     5    2    3 1
     6    2    4 1
     7    2   35 1
     8    3   36 1
     9    3   37 1
    10    3   38 1
    11    4    5 1
    12    4    6 1
    13    4    9 1
    14    6    7 2
    15    6    8 1
    16    9   10 1
    17    9   39 1
    18   10   11 2
    19   10   12 2
    20   10   13 1
    21   13   25 ar
    22   13   14 ar
    23   14   15 ar
    24   14   40 1
    25   15   16 ar
    26   15   41 1
    27   16   24 ar
    28   16   17 1
    29   17   22 ar
    30   17   18 ar
    31   18   19 ar
    32   18   42 1
    33   19   20 ar
    34   19   26 1
    35   20   21 ar
    36   20   43 1
    37   21   22 ar
    38   21   44 1
    39   22   23 1
    40   23   24 1
    41   24   25 ar
    42   25   45 1
    43   26   30 am
    44   26   27 1
    45   27   28 1
    46   27   46 1
    47   27   47 1
    48   28   29 1
    49   28   48 1
    50   28   49 1
    51   29   30 1
    52   30   31 2
@<TRIPOS>MOLECULE
ZINC00580328
   49    51     0     0     0
SMALL
USER_CHARGES

@<TRIPOS>ATOM
      1 C1         -0.0029    1.3711   -0.0350 C.3       1 <0>        -0.1551
      2 C2          0.0599   -0.1492    0.1253 C.3       1 <0>        -0.0205
      3 C3         -1.3580   -0.7082    0.2895 C.3       1 <0>         0.1574
      4 H1         -1.3146   -1.7952    0.3563 H         1 <0>         0.1168
      5 N1         -1.9569   -0.1678    1.5108 N.pl3     1 <0>        -0.9918
      6 C4         -1.4145   -0.5101    2.8265 C.3       1 <0>         0.1160
      7 C5         -0.0034    0.0725    2.9646 C.3       1 <0>        -0.1077
      8 S1          1.0250   -0.5670    1.6084 S.3       1 <0>        -0.2262
      9 S2         -3.2637    0.8436    1.4027 S.o2      1 <0>         2.6638
     10 O1         -3.2544    1.6460    2.5755 O.2       1 <0>        -0.9406
     11 O2         -3.2374    1.4031    0.0968 O.2       1 <0>        -0.9070
     12 C6         -4.7087   -0.1609    1.4913 C.ar      1 <0>        -0.6812
     13 C7         -5.3754   -0.5145    0.3327 C.ar      1 <0>        -0.0242
     14 C8         -6.5084   -1.3019    0.3993 C.ar      1 <0>        -0.1440
     15 C9         -6.9773   -1.7380    1.6303 C.ar      1 <0>         0.1424
     16 C10        -6.3064   -1.3817    2.7914 C.ar      1 <0>        -0.1508
     17 C11        -5.1706   -0.5988    2.7188 C.ar      1 <0>        -0.0009
     18 O3         -8.0919   -2.5123    1.6986 O.3       1 <0>        -0.2546
     19 C12        -9.2474   -1.9310    2.1098 C.ar      1 <0>         0.1604
     20 C13       -10.3960   -2.6917    2.3154 C.ar      1 <0>        -0.1954
     21 C14       -11.5508   -2.0633    2.7336 C.ar      1 <0>         0.1366
     22 N2        -11.5753   -0.7598    2.9382 N.ar      1 <0>        -0.5003
     23 C15       -10.5082   -0.0056    2.7544 C.ar      1 <0>         0.1393
     24 C16        -9.3135   -0.5593    2.3425 C.ar      1 <0>        -0.2494
     25 C17        -2.1953   -0.3110   -0.8989 C.2       1 <0>         0.5107
     26 O4         -1.8928    0.6627   -1.5556 O.2       1 <0>        -0.4421
     27 N3         -3.2804   -1.0378   -1.2319 N.am      1 <0>        -0.6056
     28 O5         -4.0671   -0.6646   -2.3485 O.3       1 <0>        -0.3002
     29 C18         0.7201   -0.7686   -1.1082 C.3       1 <0>        -0.1346
     30 H2          0.9974    1.7898    0.0758 H         1 <0>         0.0685
     31 H3         -0.3921    1.6165   -1.0231 H         1 <0>         0.1121
     32 H4         -0.6587    1.7901    0.7282 H         1 <0>         0.0417
     33 H5         -2.0566   -0.0950    3.6034 H         1 <0>         0.1078
     34 H6         -1.3719   -1.5942    2.9312 H         1 <0>         0.0967
     35 H7         -0.0494    1.1600    2.9073 H         1 <0>         0.0943
     36 H8          0.4245   -0.2280    3.9210 H         1 <0>         0.1249
     37 H9         -5.0102   -0.1745   -0.6251 H         1 <0>         0.1711
     38 H10        -7.0290   -1.5776   -0.5059 H         1 <0>         0.1463
     39 H11        -6.6695   -1.7195    3.7507 H         1 <0>         0.1444
     40 H12        -4.6455   -0.3248    3.6219 H         1 <0>         0.1468
     41 H13       -10.3827   -3.7588    2.1494 H         1 <0>         0.1473
     42 H14       -12.4461   -2.6453    2.8951 H         1 <0>         0.1686
     43 H15       -10.5698    1.0579    2.9325 H         1 <0>         0.1629
     44 H16        -8.4426    0.0630    2.1984 H         1 <0>         0.1388
     45 H17        -3.5223   -1.8166   -0.7066 H         1 <0>         0.4038
     46 H18        -4.8235   -1.2455   -2.5085 H         1 <0>         0.3858
     47 H19         1.7303   -0.3739   -1.2164 H         1 <0>         0.0779
     48 H20         0.7637   -1.8515   -0.9917 H         1 <0>         0.0674
     49 H21         0.1366   -0.5218   -1.9951 H         1 <0>         0.0819
@<TRIPOS>BOND
     1    1    2 1
     2    1   30 1
     3    1   31 1
     4    1   32 1
     5    2    8 1
     6    2    3 1
     7    2   29 1
     8    3    4 1
     9    3    5 1
    10    3   25 1
    11    5    6 1
    12    5    9 1
    13    6    7 1
    14    6   33 1
    15    6   34 1
    16    7    8 1
    17    7   35 1
    18    7   36 1
    19    9   10 2
    20    9   11 2
    21    9   12 1
    22   12   17 ar
    23   12   13 ar
    24   13   14 ar
    25   13   37 1
    26   14   15 ar
    27   14   38 1
    28   15   16 ar
    29   15   18 1
    30   16   17 ar
    31   16   39 1
    32   17   40 1
    33   18   19 1
    34   19   24 ar
    35   19   20 ar
    36   20   21 ar
    37   20   41 1
    38   21   22 ar
    39   21   42 1
    40   22   23 ar
    41   23   24 ar
    42   23   43 1
    43   24   44 1
    44   25   26 2
    45   25   27 am
    46   27   28 1
    47   27   45 1
    48   28   46 1
    49   29   47 1
    50   29   48 1
    51   29   49 1
@<TRIPOS>MOLECULE
ZINC00580328
   50    52     0     0     0
SMALL
USER_CHARGES

@<TRIPOS>ATOM
      1 C1         -0.0029    1.3711   -0.0350 C.3       1 <0>        -0.1559
      2 C2          0.0599   -0.1492    0.1253 C.3       1 <0>        -0.0229
      3 C3         -1.3580   -0.7082    0.2895 C.3       1 <0>         0.1575
      4 H1         -1.3146   -1.7952    0.3563 H         1 <0>         0.1190
      5 N1         -1.9569   -0.1678    1.5108 N.pl3     1 <0>        -0.9895
      6 C4         -1.4145   -0.5101    2.8265 C.3       1 <0>         0.1158
      7 C5         -0.0034    0.0725    2.9646 C.3       1 <0>        -0.1109
      8 S1          1.0250   -0.5670    1.6084 S.3       1 <0>        -0.2176
      9 S2         -3.2637    0.8436    1.4027 S.o2      1 <0>         2.6595
     10 O1         -3.2544    1.6460    2.5755 O.2       1 <0>        -0.9343
     11 O2         -3.2374    1.4031    0.0968 O.2       1 <0>        -0.9002
     12 C6         -4.7087   -0.1609    1.4913 C.ar      1 <0>        -0.6647
     13 C7         -5.3754   -0.5145    0.3327 C.ar      1 <0>        -0.0213
     14 C8         -6.5084   -1.3019    0.3993 C.ar      1 <0>        -0.1296
     15 C9         -6.9773   -1.7380    1.6303 C.ar      1 <0>         0.0976
     16 C10        -6.3064   -1.3817    2.7914 C.ar      1 <0>        -0.1433
     17 C11        -5.1706   -0.5988    2.7188 C.ar      1 <0>         0.0014
     18 O3         -8.0919   -2.5123    1.6986 O.3       1 <0>        -0.2172
     19 C12        -9.2474   -1.9310    2.1098 C.ar      1 <0>         0.2458
     20 C13       -10.3960   -2.6917    2.3154 C.ar      1 <0>        -0.1546
     21 C14       -11.5508   -2.0633    2.7336 C.ar      1 <0>         0.1685
     22 N2        -11.5753   -0.7598    2.9382 N.ar      1 <0>        -0.4682
     23 C15       -10.5083   -0.0055    2.7539 C.ar      1 <0>         0.1749
     24 C16        -9.3135   -0.5593    2.3425 C.ar      1 <0>        -0.2149
     25 C17        -2.1953   -0.3110   -0.8989 C.2       1 <0>         0.5084
     26 O4         -1.8928    0.6627   -1.5556 O.2       1 <0>        -0.4349
     27 N3         -3.2804   -1.0378   -1.2319 N.am      1 <0>        -0.6093
     28 O5         -4.0671   -0.6646   -2.3485 O.3       1 <0>        -0.2988
     29 C18         0.7201   -0.7686   -1.1082 C.3       1 <0>        -0.1360
     30 H2          0.9974    1.7898    0.0758 H         1 <0>         0.0714
     31 H3         -0.3921    1.6165   -1.0231 H         1 <0>         0.1118
     32 H4         -0.6587    1.7901    0.7282 H         1 <0>         0.0405
     33 H5         -2.0566   -0.0950    3.6034 H         1 <0>         0.1071
     34 H6         -1.3719   -1.5942    2.9312 H         1 <0>         0.0981
     35 H7         -0.0494    1.1600    2.9073 H         1 <0>         0.0952
     36 H8          0.4245   -0.2280    3.9210 H         1 <0>         0.1270
     37 H9         -5.0102   -0.1745   -0.6251 H         1 <0>         0.1791
     38 H10        -7.0290   -1.5776   -0.5059 H         1 <0>         0.1529
     39 H11        -6.6695   -1.7195    3.7507 H         1 <0>         0.1492
     40 H12        -4.6455   -0.3248    3.6219 H         1 <0>         0.1552
     41 H13       -10.3827   -3.7588    2.1494 H         1 <0>         0.1957
     42 H14       -12.4461   -2.6453    2.8951 H         1 <0>         0.2201
     43 H15       -10.5700    1.0580    2.9318 H         1 <0>         0.2154
     44 H16        -8.4426    0.0630    2.1984 H         1 <0>         0.1847
     45 H17        -3.5223   -1.8166   -0.7066 H         1 <0>         0.4019
     46 H18        -4.8235   -1.2455   -2.5085 H         1 <0>         0.3840
     47 H19         1.7303   -0.3739   -1.2164 H         1 <0>         0.0804
     48 H20         0.7637   -1.8515   -0.9917 H         1 <0>         0.0684
     49 H21         0.1366   -0.5218   -1.9951 H         1 <0>         0.0819
     50 H22       -12.4011   -0.3444    3.2320 H         1 <0>         0.4557
@<TRIPOS>BOND
     1    1    2 1
     2    1   30 1
     3    1   31 1
     4    1   32 1
     5    2    8 1
     6    2    3 1
     7    2   29 1
     8    3    4 1
     9    3    5 1
    10    3   25 1
    11    5    6 1
    12    5    9 1
    13    6    7 1
    14    6   33 1
    15    6   34 1
    16    7    8 1
    17    7   35 1
    18    7   36 1
    19    9   10 2
    20    9   11 2
    21    9   12 1
    22   12   17 ar
    23   12   13 ar
    24   13   14 ar
    25   13   37 1
    26   14   15 ar
    27   14   38 1
    28   15   16 ar
    29   15   18 1
    30   16   17 ar
    31   16   39 1
    32   17   40 1
    33   18   19 1
    34   19   24 ar
    35   19   20 ar
    36   20   21 ar
    37   20   41 1
    38   21   22 ar
    39   21   42 1
    40   22   23 ar
    41   22   50 1
    42   23   24 ar
    43   23   43 1
    44   24   44 1
    45   25   26 2
    46   25   27 am
    47   27   28 1
    48   27   45 1
    49   28   46 1
    50   29   47 1
    51   29   48 1
    52   29   49 1
@<TRIPOS>MOLECULE
ZINC00538656
   46    48     0     0     0
SMALL
USER_CHARGES
4-[4-(4-chlorophenyl)phenyl]-4-oxo-2-(phenylsulfanylmethyl)butanoic acid
@<TRIPOS>ATOM
      1 C1          1.1201   -0.4538   -7.4017 C.ar      1 <0>        -0.1478
      2 C2         -0.0171    0.2963   -7.6403 C.ar      1 <0>        -0.1014
      3 C3         -0.6896    0.8871   -6.5889 C.ar      1 <0>        -0.1105
      4 C4         -0.2223    0.7275   -5.2899 C.ar      1 <0>        -0.0980
      5 C5          0.9243   -0.0218   -5.0546 C.ar      1 <0>        -0.1474
      6 C6          1.5879   -0.6151   -6.1102 C.ar      1 <0>        -0.1005
      7 S1         -1.0772    1.4794   -3.9451 S.3       1 <0>        -0.0149
      8 C7         -0.1114    0.9981   -2.4870 C.3       1 <0>        -0.0921
      9 C8         -0.7527    1.5927   -1.2315 C.3       1 <0>        -0.1170
     10 H1         -1.7985    1.2898   -1.1795 H         1 <0>         0.0844
     11 C9         -0.0127    1.0858    0.0080 C.3       1 <0>        -0.1288
     12 C10        -0.7181    1.5718    1.2479 C.2       1 <0>         0.3986
     13 O1         -1.7145    2.2562    1.1498 O.2       1 <0>        -0.4246
     14 C11        -0.1984    1.2164    2.5760 C.ar      1 <0>        -0.1404
     15 C12         0.9485    0.4217    2.6905 C.ar      1 <0>        -0.0740
     16 C13         1.4347    0.0964    3.9303 C.ar      1 <0>        -0.1194
     17 C14         0.7808    0.5475    5.0780 C.ar      1 <0>        -0.0362
     18 C15        -0.3664    1.3347    4.9664 C.ar      1 <0>        -0.1182
     19 C16        -0.8529    1.6674    3.7287 C.ar      1 <0>        -0.0627
     20 C17         1.3051    0.1895    6.4173 C.ar      1 <0>        -0.0353
     21 C18         0.6576    0.6427    7.5662 C.ar      1 <0>        -0.0980
     22 C19         1.1465    0.3018    8.8104 C.ar      1 <0>        -0.1072
     23 C20         2.2846   -0.4792    8.9196 C.ar      1 <0>        -0.0369
     24 C21         2.9347   -0.9271    7.7819 C.ar      1 <0>        -0.1075
     25 C22         2.4509   -0.5968    6.5329 C.ar      1 <0>        -0.0981
     26 Cl1         2.8991   -0.8980   10.4883 Cl        1 <0>        -0.0729
     27 C23        -0.6673    3.0962   -1.2877 C.2       1 <0>         0.4712
     28 O2         -0.0754    3.7004   -0.4249 O.co2     1 <0>        -0.6348
     29 H2          1.6439   -0.9150   -8.2259 H         1 <0>         0.1162
     30 H3         -0.3797    0.4199   -8.6500 H         1 <0>         0.1203
     31 H4         -1.5776    1.4727   -6.7759 H         1 <0>         0.1244
     32 H5          1.2929   -0.1442   -4.0469 H         1 <0>         0.1184
     33 H6          2.4760   -1.2019   -5.9277 H         1 <0>         0.1172
     34 H7          0.9076    1.3722   -2.5864 H         1 <0>         0.0804
     35 H8         -0.0932   -0.0887   -2.4058 H         1 <0>         0.0761
     36 H9          0.0008    0.0859    0.0024 H         1 <0>         0.0782
     37 H10         1.0099    1.4631    0.0003 H         1 <0>         0.0999
     38 H11         1.4522    0.0687    1.8028 H         1 <0>         0.1352
     39 H12         2.3217   -0.5133    4.0192 H         1 <0>         0.1297
     40 H13        -0.8709    1.6823    5.8558 H         1 <0>         0.1294
     41 H14        -1.7406    2.2765    3.6428 H         1 <0>         0.1369
     42 H15        -0.2274    1.2559    7.4821 H         1 <0>         0.1373
     43 H16         0.6434    0.6489    9.7008 H         1 <0>         0.1354
     44 H17         3.8223   -1.5357    7.8726 H         1 <0>         0.1354
     45 H18         2.9589   -0.9463    5.6462 H         1 <0>         0.1374
     46 O3         -1.2489    3.7642   -2.2963 O.co2     1 <0>        -0.7375
@<TRIPOS>BOND
     1    1    6 ar
     2    1    2 ar
     3    1   29 1
     4    2    3 ar
     5    2   30 1
     6    3    4 ar
     7    3   31 1
     8    4    5 ar
     9    4    7 1
    10    5    6 ar
    11    5   32 1
    12    6   33 1
    13    7    8 1
    14    8    9 1
    15    8   34 1
    16    8   35 1
    17    9   10 1
    18    9   11 1
    19    9   27 1
    20   11   12 1
    21   11   36 1
    22   11   37 1
    23   12   13 2
    24   12   14 1
    25   14   19 ar
    26   14   15 ar
    27   15   16 ar
    28   15   38 1
    29   16   17 ar
    30   16   39 1
    31   17   18 ar
    32   17   20 1
    33   18   19 ar
    34   18   40 1
    35   19   41 1
    36   20   25 ar
    37   20   21 ar
    38   21   22 ar
    39   21   42 1
    40   22   23 ar
    41   22   43 1
    42   23   24 ar
    43   23   26 1
    44   24   25 ar
    45   24   44 1
    46   25   45 1
    47   27   28 2
    48   27   46 1
@<TRIPOS>MOLECULE
ZINC06116142
   46    48     0     0     0
SMALL
USER_CHARGES
4-[4-(4-chlorophenyl)phenyl]-4-oxo-2-(phenylsulfanylmethyl)butanoic acid
@<TRIPOS>ATOM
      1 C1         -0.0167    1.3788    0.0096 C.ar      1 <0>        -0.1443
      2 C2          1.1695    2.0899    0.0021 C.ar      1 <0>        -0.0999
      3 C3          2.3774    1.4209   -0.0131 C.ar      1 <0>        -0.1423
      4 C4          2.4001    0.0314   -0.0208 C.ar      1 <0>        -0.0769
      5 C5          1.2062   -0.6798   -0.0132 C.ar      1 <0>        -0.1106
      6 C6          0.0021   -0.0041    0.0020 C.ar      1 <0>        -0.1012
      7 S1          3.9390   -0.8266   -0.0396 S.3       1 <0>        -0.0667
      8 C7          5.1794    0.4971   -0.0445 C.3       1 <0>        -0.0815
      9 C8          6.5806   -0.1171   -0.0608 C.3       1 <0>        -0.1180
     10 H1          6.6846   -0.8071    0.7766 H         1 <0>         0.0834
     11 C9          7.6257    0.9936    0.0607 C.3       1 <0>        -0.1207
     12 C10         8.9988    0.3819    0.1683 C.2       1 <0>         0.3567
     13 O1          9.1286   -0.8238    0.1496 O.2       1 <0>        -0.3573
     14 C11        10.1806    1.2464    0.2958 C.ar      1 <0>        -0.1321
     15 C12        10.0325    2.6385    0.3118 C.ar      1 <0>        -0.0817
     16 C13        11.1357    3.4427    0.4357 C.ar      1 <0>        -0.1181
     17 C14        12.4069    2.8749    0.5357 C.ar      1 <0>        -0.0425
     18 C15        12.5575    1.4875    0.5147 C.ar      1 <0>        -0.1162
     19 C16        11.4567    0.6791    0.3958 C.ar      1 <0>        -0.0664
     20 C17        13.5987    3.7467    0.6639 C.ar      1 <0>        -0.0327
     21 C18        14.8698    3.1831    0.7693 C.ar      1 <0>        -0.0992
     22 C19        15.9763    3.9992    0.8827 C.ar      1 <0>        -0.1068
     23 C20        15.8253    5.3755    0.9033 C.ar      1 <0>        -0.0381
     24 C21        14.5649    5.9402    0.8047 C.ar      1 <0>        -0.1073
     25 C22        13.4523    5.1333    0.6853 C.ar      1 <0>        -0.0995
     26 Cl1        17.2212    6.3966    1.0540 Cl        1 <0>        -0.0739
     27 C23         6.7875   -0.8622   -1.3543 C.2       1 <0>         0.4579
     28 O2          5.9048   -0.8983   -2.1785 O.co2     1 <0>        -0.6241
     29 H2         -0.9600    1.9047    0.0170 H         1 <0>         0.1178
     30 H3          1.1511    3.1697    0.0081 H         1 <0>         0.1192
     31 H4          3.3033    1.9769   -0.0186 H         1 <0>         0.1208
     32 H5          1.2201   -1.7597   -0.0194 H         1 <0>         0.1247
     33 H6         -0.9262   -0.5561    0.0076 H         1 <0>         0.1216
     34 H7          5.0446    1.1180   -0.9302 H         1 <0>         0.0871
     35 H8          5.0613    1.1090    0.8497 H         1 <0>         0.0728
     36 H9          7.5845    1.5800   -0.7483 H         1 <0>         0.0804
     37 H10         7.4222    1.5883    0.9513 H         1 <0>         0.0817
     38 H11         9.0495    3.0784    0.2299 H         1 <0>         0.1332
     39 H12        11.0217    4.5166    0.4515 H         1 <0>         0.1280
     40 H13        13.5421    1.0504    0.5919 H         1 <0>         0.1283
     41 H14        11.5738   -0.3944    0.3789 H         1 <0>         0.1375
     42 H15        14.9882    2.1096    0.7582 H         1 <0>         0.1373
     43 H16        16.9616    3.5638    0.9602 H         1 <0>         0.1350
     44 H17        14.4525    7.0142    0.8217 H         1 <0>         0.1348
     45 H18        12.4696    5.5747    0.6088 H         1 <0>         0.1369
     46 O3          7.9524   -1.4858   -1.5906 O.co2     1 <0>        -0.7371
@<TRIPOS>BOND
     1    1    6 ar
     2    1    2 ar
     3    1   29 1
     4    2    3 ar
     5    2   30 1
     6    3    4 ar
     7    3   31 1
     8    4    5 ar
     9    4    7 1
    10    5    6 ar
    11    5   32 1
    12    6   33 1
    13    7    8 1
    14    8    9 1
    15    8   34 1
    16    8   35 1
    17    9   10 1
    18    9   11 1
    19    9   27 1
    20   11   12 1
    21   11   36 1
    22   11   37 1
    23   12   13 2
    24   12   14 1
    25   14   19 ar
    26   14   15 ar
    27   15   16 ar
    28   15   38 1
    29   16   17 ar
    30   16   39 1
    31   17   18 ar
    32   17   20 1
    33   18   19 ar
    34   18   40 1
    35   19   41 1
    36   20   25 ar
    37   20   21 ar
    38   21   22 ar
    39   21   42 1
    40   22   23 ar
    41   22   43 1
    42   23   24 ar
    43   23   26 1
    44   24   25 ar
    45   24   44 1
    46   25   45 1
    47   27   28 2
    48   27   46 1
