@<TRIPOS>MOLECULE
ZINC02575702
   42    43     0     0     0
SMALL
USER_CHARGES

@<TRIPOS>ATOM
      1 C1          2.7792   -0.9284   -4.2869 C.ar      1 <0>        -0.0663
      2 C2          3.5243    0.1685   -3.8942 C.ar      1 <0>        -0.1632
      3 C3          4.1453    0.1812   -2.6595 C.ar      1 <0>        -0.0720
      4 C4          4.0217   -0.9084   -1.8096 C.ar      1 <0>        -0.1866
      5 C5          3.2696   -2.0147   -2.2057 C.ar      1 <0>         0.2459
      6 C6          2.6504   -2.0187   -3.4466 C.ar      1 <0>        -0.1854
      7 N1          3.1411   -3.1172   -1.3539 N.pl3     1 <0>        -0.8705
      8 S1          4.8127   -0.8954   -0.2352 S.3       1 <0>         0.0062
      9 C7          5.7412    0.6021   -0.2370 C.2       1 <0>         0.1816
     10 C8          7.1235    0.5588   -0.2665 C.2       1 <0>        -0.0347
     11 C9          7.7962   -0.6855   -0.4900 C.1       1 <0>         0.2757
     12 N2          8.3299   -1.6725   -0.6673 N.1       1 <0>        -0.3973
     13 C10         7.9101    1.8029   -0.0664 C.2       1 <0>        -0.0932
     14 C11         9.2841    1.7857   -0.2255 C.2       1 <0>         0.2045
     15 N3         10.0132    2.9389   -0.0400 N.pl3     1 <0>        -0.8282
     16 S2         10.1013    0.2879   -0.6656 S.3       1 <0>         0.0436
     17 C12        11.0309   -0.1287    0.7721 C.ar      1 <0>        -0.1954
     18 C13        10.8989    0.6257    1.9289 C.ar      1 <0>        -0.0710
     19 C14        11.6289    0.2966    3.0556 C.ar      1 <0>        -0.1630
     20 C15        12.4923   -0.7835    3.0342 C.ar      1 <0>        -0.0630
     21 C16        12.6303   -1.5410    1.8858 C.ar      1 <0>        -0.1852
     22 C17        11.8977   -1.2218    0.7524 C.ar      1 <0>         0.2542
     23 N4         12.0318   -1.9902   -0.4092 N.pl3     1 <0>        -0.8663
     24 C18         7.2460    3.0202    0.2913 C.1       1 <0>         0.2669
     25 N5          6.7191    3.9858    0.5750 N.1       1 <0>        -0.4225
     26 N6          5.0909    1.8154   -0.2091 N.pl3     1 <0>        -0.8426
     27 H1          2.2926   -0.9314   -5.2511 H         1 <0>         0.1254
     28 H2          3.6215    1.0176   -4.5545 H         1 <0>         0.1228
     29 H3          4.7270    1.0392   -2.3564 H         1 <0>         0.1245
     30 H4          2.0677   -2.8735   -3.7566 H         1 <0>         0.1270
     31 H5          3.5752   -3.1132   -0.4865 H         1 <0>         0.3994
     32 H6          2.6178   -3.8856   -1.6307 H         1 <0>         0.4026
     33 H7          9.5741    3.7452    0.2730 H         1 <0>         0.4022
     34 H8         10.9659    2.9449   -0.2223 H         1 <0>         0.4127
     35 H9         10.2261    1.4703    1.9490 H         1 <0>         0.1213
     36 H10        11.5249    0.8849    3.9552 H         1 <0>         0.1237
     37 H11        13.0608   -1.0358    3.9171 H         1 <0>         0.1265
     38 H12        13.3058   -2.3835    1.8727 H         1 <0>         0.1282
     39 H13        11.5217   -1.7633   -1.2024 H         1 <0>         0.3998
     40 H14        12.6349   -2.7499   -0.4213 H         1 <0>         0.4032
     41 H15         4.2134    1.8861    0.1980 H         1 <0>         0.4085
     42 H16         5.5104    2.5995   -0.5966 H         1 <0>         0.3999
@<TRIPOS>BOND
     1    1    6 ar
     2    1    2 ar
     3    1   27 1
     4    2    3 ar
     5    2   28 1
     6    3    4 ar
     7    3   29 1
     8    4    5 ar
     9    4    8 1
    10    5    6 ar
    11    5    7 1
    12    6   30 1
    13    7   31 1
    14    7   32 1
    15    8    9 1
    16    9   10 2
    17    9   26 1
    18   10   11 1
    19   10   13 1
    20   11   12 3
    21   13   14 2
    22   13   24 1
    23   14   15 1
    24   14   16 1
    25   15   33 1
    26   15   34 1
    27   16   17 1
    28   17   22 ar
    29   17   18 ar
    30   18   19 ar
    31   18   35 1
    32   19   20 ar
    33   19   36 1
    34   20   21 ar
    35   20   37 1
    36   21   22 ar
    37   21   38 1
    38   22   23 1
    39   23   39 1
    40   23   40 1
    41   24   25 3
    42   26   41 1
    43   26   42 1
@<TRIPOS>MOLECULE
ZINC02575702
   42    43     0     0     0
SMALL
USER_CHARGES

@<TRIPOS>ATOM
      1 C1          9.4552   -1.5104   -3.9323 C.ar      1 <0>        -0.0499
      2 C2          8.8116   -0.3156   -3.6661 C.ar      1 <0>        -0.1886
      3 C3          7.7475   -0.2843   -2.7780 C.ar      1 <0>         0.2629
      4 C4          7.3289   -1.4611   -2.1554 C.ar      1 <0>        -0.2252
      5 C5          7.9801   -2.6548   -2.4289 C.ar      1 <0>        -0.0741
      6 C6          9.0407   -2.6762   -3.3156 C.ar      1 <0>        -0.1677
      7 S1          5.9777   -1.4304   -1.0249 S.3       1 <0>         0.0643
      8 C7          5.1850   -2.9855   -1.2658 C.2       1 <0>         0.2299
      9 C8          4.1470   -3.3687   -0.4355 C.2       1 <0>        -0.1359
     10 C9          3.5641   -4.7298   -0.5550 C.2       1 <0>        -0.0675
     11 C10         4.3243   -5.8388   -0.2300 C.2       1 <0>         0.1991
     12 S2          3.6878   -7.4571   -0.5136 S.3       1 <0>         0.0175
     13 C11         3.4774   -8.1220    1.1045 C.ar      1 <0>        -0.1917
     14 C12         3.0948   -9.4540    1.2696 C.ar      1 <0>         0.2474
     15 C13         2.9309   -9.9706    2.5457 C.ar      1 <0>        -0.1850
     16 C14         3.1461   -9.1666    3.6502 C.ar      1 <0>        -0.0631
     17 C15         3.5247   -7.8470    3.4867 C.ar      1 <0>        -0.1610
     18 C16         3.6969   -7.3249    2.2181 C.ar      1 <0>        -0.0697
     19 N1          2.8767  -10.2653    0.1508 N.pl3     1 <0>        -0.8705
     20 N2          5.5785   -5.6780    0.3151 N.pl3     1 <0>        -0.8286
     21 C17         2.2151   -4.8938   -1.0065 C.1       1 <0>         0.2661
     22 N3          1.1449   -5.0239   -1.3648 N.1       1 <0>        -0.4210
     23 C18         3.6345   -2.4532    0.5391 C.1       1 <0>         0.2667
     24 N4          3.2279   -1.7270    1.3123 N.1       1 <0>        -0.4280
     25 N5          5.5987   -3.8193   -2.2804 N.pl3     1 <0>        -0.8391
     26 N6          7.0955    0.9234   -2.5064 N.pl3     1 <0>        -0.8663
     27 H1         10.2813   -1.5336   -4.6276 H         1 <0>         0.1298
     28 H2          9.1382    0.5931   -4.1497 H         1 <0>         0.1307
     29 H3          7.6589   -3.5675   -1.9489 H         1 <0>         0.1379
     30 H4          9.5466   -3.6066   -3.5274 H         1 <0>         0.1285
     31 H5          2.6349  -11.0009    2.6772 H         1 <0>         0.1282
     32 H6          3.0176   -9.5707    4.6434 H         1 <0>         0.1268
     33 H7          3.6907   -7.2234    4.3527 H         1 <0>         0.1248
     34 H8          3.9977   -6.2951    2.0942 H         1 <0>         0.1263
     35 H9          2.9915   -9.9022   -0.7414 H         1 <0>         0.3988
     36 H10         2.6108  -11.1908    0.2672 H         1 <0>         0.4036
     37 H11         5.8987   -4.7909    0.5416 H         1 <0>         0.4066
     38 H12         6.1417   -6.4519    0.4726 H         1 <0>         0.4100
     39 H13         6.1743   -3.4793   -2.9832 H         1 <0>         0.4107
     40 H14         5.3145   -4.7466   -2.2923 H         1 <0>         0.4080
     41 H15         7.3878    1.7405   -2.9397 H         1 <0>         0.4050
     42 H16         6.3511    0.9436   -1.8848 H         1 <0>         0.4034
@<TRIPOS>BOND
     1    1    6 ar
     2    1    2 ar
     3    1   27 1
     4    2    3 ar
     5    2   28 1
     6    3    4 ar
     7    3   26 1
     8    4    5 ar
     9    4    7 1
    10    5    6 ar
    11    5   29 1
    12    6   30 1
    13    7    8 1
    14    8    9 2
    15    8   25 1
    16    9   10 1
    17    9   23 1
    18   10   11 2
    19   10   21 1
    20   11   12 1
    21   11   20 1
    22   12   13 1
    23   13   18 ar
    24   13   14 ar
    25   14   15 ar
    26   14   19 1
    27   15   16 ar
    28   15   31 1
    29   16   17 ar
    30   16   32 1
    31   17   18 ar
    32   17   33 1
    33   18   34 1
    34   19   35 1
    35   19   36 1
    36   20   37 1
    37   20   38 1
    38   21   22 3
    39   23   24 3
    40   25   39 1
    41   25   40 1
    42   26   41 1
    43   26   42 1
@<TRIPOS>MOLECULE
ZINC01489691
   39    41     0     0     0
SMALL
USER_CHARGES
2-(2-chloro-4-iodo-phenyl)amino-N-(cyclopropylmethoxy)-3,4-difluoro-benzamide
@<TRIPOS>ATOM
      1 C1          7.5301   -6.0664    2.0665 C.ar      1 <0>        -0.0309
      2 C2          6.2573   -5.5404    1.9576 C.ar      1 <0>        -0.1758
      3 C3          5.9995   -4.2515    2.4051 C.ar      1 <0>         0.2608
      4 C4          7.0254   -3.4920    2.9565 C.ar      1 <0>        -0.0926
      5 C5          8.2948   -4.0260    3.0673 C.ar      1 <0>        -0.0287
      6 C6          8.5477   -5.3108    2.6201 C.ar      1 <0>        -0.1420
      7 I1         10.4759   -6.1135    2.7827 I         1 <0>        -0.0344
      8 Cl1         6.7101   -1.8774    3.5111 Cl        1 <0>        -0.0563
      9 N1          4.7124   -3.7165    2.2963 N.pl3     1 <0>        -0.6767
     10 C7          3.6613   -4.5165    1.8612 C.ar      1 <0>         0.1959
     11 C8          3.4265   -4.6874    0.4874 C.ar      1 <0>        -0.1130
     12 C9          2.3705   -5.4986    0.0620 C.ar      1 <0>        -0.0636
     13 C10         1.5642   -6.1206    0.9885 C.ar      1 <0>        -0.1216
     14 C11         1.7938   -5.9474    2.3469 C.ar      1 <0>         0.1065
     15 C12         2.8351   -5.1470    2.7838 C.ar      1 <0>         0.0674
     16 F1          3.0515   -4.9828    4.1072 F         1 <0>        -0.1087
     17 F2          0.9963   -6.5631    3.2470 F         1 <0>        -0.1136
     18 C13         4.2922   -4.0203   -0.5005 C.2       1 <0>         0.5700
     19 O1          5.1439   -3.2348   -0.1305 O.2       1 <0>        -0.4840
     20 N2          4.1403   -4.2803   -1.8142 N.am      1 <0>        -0.5952
     21 O2          4.9724   -3.6391   -2.7636 O.3       1 <0>        -0.1294
     22 C14         4.7012   -4.0081   -4.1173 C.3       1 <0>         0.0626
     23 C15         5.6542   -3.2589   -5.0508 C.3       1 <0>        -0.1552
     24 C16         5.0390   -2.2701   -6.0432 C.3       1 <0>        -0.1733
     25 C17         5.6009   -3.6043   -6.5403 C.3       1 <0>        -0.1653
     26 H1          7.7309   -7.0689    1.7185 H         1 <0>         0.1353
     27 H2          5.4637   -6.1310    1.5245 H         1 <0>         0.1307
     28 H3          9.0916   -3.4383    3.4988 H         1 <0>         0.1412
     29 H4          4.5526   -2.7873    2.5243 H         1 <0>         0.4221
     30 H5          2.1874   -5.6376   -0.9933 H         1 <0>         0.1494
     31 H6          0.7490   -6.7467    0.6570 H         1 <0>         0.1622
     32 H7          3.4611   -4.9068   -2.1092 H         1 <0>         0.4049
     33 H8          3.6718   -3.7494   -4.3651 H         1 <0>         0.0650
     34 H9          4.8449   -5.0819   -4.2369 H         1 <0>         0.0683
     35 H10         6.6264   -3.0073   -4.6270 H         1 <0>         0.1189
     36 H11         3.9553   -2.1533   -6.0309 H         1 <0>         0.0975
     37 H12         5.6066   -1.3683   -6.2725 H         1 <0>         0.1006
     38 H13         6.5379   -3.5797   -7.0966 H         1 <0>         0.1032
     39 H14         4.8872   -4.3657   -6.8552 H         1 <0>         0.0980
@<TRIPOS>BOND
     1    1    6 ar
     2    1    2 ar
     3    1   26 1
     4    2    3 ar
     5    2   27 1
     6    3    4 ar
     7    3    9 1
     8    4    5 ar
     9    4    8 1
    10    5    6 ar
    11    5   28 1
    12    6    7 1
    13    9   10 1
    14    9   29 1
    15   10   15 ar
    16   10   11 ar
    17   11   12 ar
    18   11   18 1
    19   12   13 ar
    20   12   30 1
    21   13   14 ar
    22   13   31 1
    23   14   15 ar
    24   14   17 1
    25   15   16 1
    26   18   19 2
    27   18   20 am
    28   20   21 1
    29   20   32 1
    30   21   22 1
    31   22   23 1
    32   22   33 1
    33   22   34 1
    34   23   25 1
    35   23   24 1
    36   23   35 1
    37   24   25 1
    38   24   36 1
    39   24   37 1
    40   25   38 1
    41   25   39 1
@<TRIPOS>MOLECULE
ZINC53295703
   42    43     0     0     0
SMALL
USER_CHARGES

@<TRIPOS>ATOM
      1 C1         -0.8052    1.8143    1.1300 C.3       1 <0>        -0.1909
      2 C2         -0.6036    0.5373    0.3558 C.2       1 <0>         0.4165
      3 O1          0.4085    0.3758   -0.2969 O.2       1 <0>        -0.4713
      4 C3         -1.5889   -0.4697    0.3887 C.2       1 <0>        -0.0803
      5 C4         -2.7811   -0.4127    1.0812 C.2       1 <0>        -0.0693
      6 C5         -3.4592   -1.6225    0.8395 C.2       1 <0>        -0.2177
      7 C6         -2.6494   -2.3901   -0.0037 C.2       1 <0>         0.3570
      8 N1         -1.5302   -1.6871   -0.2743 N.pl3     1 <0>        -0.4026
      9 C7         -0.4285   -2.1381   -1.1282 C.3       1 <0>         0.0579
     10 N2         -2.9457   -3.6430   -0.4798 N.pl3     1 <0>        -0.6512
     11 C8         -2.1989   -4.7475   -0.0552 C.ar      1 <0>         0.1924
     12 C9         -1.0837   -4.5648    0.7516 C.ar      1 <0>        -0.1592
     13 C10        -0.3485   -5.6569    1.1697 C.ar      1 <0>        -0.0458
     14 C11        -0.7211   -6.9326    0.7855 C.ar      1 <0>        -0.1199
     15 C12        -1.8313   -7.1198   -0.0182 C.ar      1 <0>        -0.0744
     16 C13        -2.5752   -6.0313   -0.4357 C.ar      1 <0>         0.0539
     17 F1         -3.6625   -6.2142   -1.2163 F         1 <0>        -0.1289
     18 I1          0.3990   -8.5847    1.4218 I         1 <0>        -0.0263
     19 C14        -4.7723   -2.0071    1.3738 C.2       1 <0>         0.6020
     20 O2         -5.2523   -3.0881    1.0883 O.2       1 <0>        -0.5152
     21 N3         -5.4454   -1.1626    2.1801 N.am      1 <0>        -0.5969
     22 O3         -6.7112   -1.5333    2.6952 O.3       1 <0>        -0.1292
     23 C15        -7.3098   -0.5436    3.5343 C.3       1 <0>         0.0299
     24 C16        -8.6660   -1.0487    4.0310 C.3       1 <0>         0.0836
     25 O4         -8.4714   -2.1886    4.8705 O.3       1 <0>        -0.5666
     26 H1          0.0552    2.4674    0.9841 H         1 <0>         0.0896
     27 H2         -1.7060    2.3156    0.7759 H         1 <0>         0.0962
     28 H3         -0.9107    1.5837    2.1901 H         1 <0>         0.0967
     29 H4         -3.1287    0.4063    1.6935 H         1 <0>         0.1624
     30 H5          0.3474   -2.5913   -0.5112 H         1 <0>         0.0878
     31 H6         -0.7998   -2.8727   -1.8427 H         1 <0>         0.0880
     32 H7         -0.0133   -1.2857   -1.6660 H         1 <0>         0.1090
     33 H8         -3.6729   -3.7627   -1.1105 H         1 <0>         0.4305
     34 H9         -0.7912   -3.5695    1.0517 H         1 <0>         0.1348
     35 H10         0.5189   -5.5146    1.7972 H         1 <0>         0.1390
     36 H11        -2.1196   -8.1169   -0.3164 H         1 <0>         0.1469
     37 H12        -5.0627   -0.3008    2.4077 H         1 <0>         0.4050
     38 H13        -6.6599   -0.3493    4.3875 H         1 <0>         0.0709
     39 H14        -7.4503    0.3767    2.9675 H         1 <0>         0.0775
     40 H15        -9.1619   -0.2606    4.5977 H         1 <0>         0.0728
     41 H16        -9.2847   -1.3271    3.1779 H         1 <0>         0.0602
     42 H17        -9.2909   -2.5625    5.2222 H         1 <0>         0.3852
@<TRIPOS>BOND
     1    1    2 1
     2    1   26 1
     3    1   27 1
     4    1   28 1
     5    2    3 2
     6    2    4 1
     7    4    8 1
     8    4    5 2
     9    5    6 1
    10    5   29 1
    11    6    7 2
    12    6   19 1
    13    7    8 1
    14    7   10 1
    15    8    9 1
    16    9   30 1
    17    9   31 1
    18    9   32 1
    19   10   11 1
    20   10   33 1
    21   11   16 ar
    22   11   12 ar
    23   12   13 ar
    24   12   34 1
    25   13   14 ar
    26   13   35 1
    27   14   15 ar
    28   14   18 1
    29   15   16 ar
    30   15   36 1
    31   16   17 1
    32   19   20 2
    33   19   21 am
    34   21   22 1
    35   21   37 1
    36   22   23 1
    37   23   24 1
    38   23   38 1
    39   23   39 1
    40   24   25 1
    41   24   40 1
    42   24   41 1
    43   25   42 1
@<TRIPOS>MOLECULE
ZINC21982951
   60    63     0     0     0
SMALL
USER_CHARGES

@<TRIPOS>ATOM
      1 C1         -2.0700    1.6928    0.2333 C.3       1 <0>        -0.1170
      2 C2         -1.6482    0.2604    0.0301 C.ar      1 <0>        -0.0813
      3 C3         -1.8479   -0.3525   -1.1919 C.ar      1 <0>        -0.1034
      4 C4         -1.4615   -1.6665   -1.3798 C.ar      1 <0>        -0.0990
      5 C5         -0.8738   -2.3725   -0.3459 C.ar      1 <0>        -0.1046
      6 C6         -0.6714   -1.7660    0.8791 C.ar      1 <0>        -0.0220
      7 C7         -1.0534   -0.4428    1.0688 C.ar      1 <0>         0.1347
      8 N1         -0.8441    0.1769    2.3055 N.am      1 <0>        -0.6659
      9 C8         -1.2819   -0.4110    3.4365 C.2       1 <0>         0.6018
     10 O1         -1.7689   -1.5261    3.3939 O.2       1 <0>        -0.4722
     11 C9         -1.1720    0.2905    4.7149 C.2       1 <0>        -0.2635
     12 C10        -1.5472   -0.1201    5.9866 C.2       1 <0>         0.1512
     13 N2         -1.3262    0.7270    6.9599 N.2       1 <0>        -0.5510
     14 C11        -0.7756    1.9070    6.7361 C.2       1 <0>         0.2513
     15 S1         -0.5107    1.9100    5.0742 S.3       1 <0>         0.2445
     16 N3         -0.4817    2.8997    7.6498 N.pl3     1 <0>        -0.5870
     17 C12        -0.6908    2.6801    9.0050 C.ar      1 <0>         0.4543
     18 C13        -1.0534    1.4192    9.4679 C.ar      1 <0>        -0.2926
     19 C14        -1.2512    1.2508   10.8352 C.ar      1 <0>         0.4935
     20 N4         -1.0875    2.2952   11.6453 N.ar      1 <0>        -0.5328
     21 C15        -0.7435    3.4737   11.1677 C.ar      1 <0>         0.4541
     22 N5         -0.5417    3.6719    9.8809 N.ar      1 <0>        -0.5672
     23 C16        -0.5694    4.6273   12.1217 C.3       1 <0>        -0.1251
     24 N6         -1.6138    0.0143   11.3464 N.pl3     1 <0>        -0.5370
     25 C17        -2.0559   -0.1253   12.7422 C.3       1 <0>         0.1090
     26 C18        -3.3866   -0.8852   12.7576 C.3       1 <0>         0.0383
     27 N7         -3.2335   -2.1493   12.0251 N.3       1 <0>        -0.5289
     28 C19        -2.9165   -1.9105   10.6107 C.3       1 <0>         0.0343
     29 C20        -1.5725   -1.1917   10.5056 C.3       1 <0>         0.1057
     30 C21        -4.4334   -2.9856   12.1619 C.3       1 <0>         0.0545
     31 C22        -4.1483   -4.3816   11.6043 C.3       1 <0>         0.0776
     32 O2         -3.1500   -5.0191   12.4038 O.3       1 <0>        -0.5606
     33 Cl1         0.0658   -2.6526    2.1768 Cl        1 <0>        -0.0453
     34 H1         -1.2464    2.3553   -0.0328 H         1 <0>         0.0773
     35 H2         -2.9308    1.9112   -0.3987 H         1 <0>         0.0785
     36 H3         -2.3379    1.8478    1.2784 H         1 <0>         0.0640
     37 H4         -2.3069    0.1956   -2.0014 H         1 <0>         0.1372
     38 H5         -1.6193   -2.1430   -2.3361 H         1 <0>         0.1391
     39 H6         -0.5731   -3.3989   -0.4959 H         1 <0>         0.1403
     40 H7         -0.3838    1.0296    2.3489 H         1 <0>         0.4083
     41 H8         -1.9972   -1.0858    6.1634 H         1 <0>         0.2027
     42 H9         -0.1293    3.7505    7.3451 H         1 <0>         0.4460
     43 H10        -1.1784    0.5927    8.7841 H         1 <0>         0.2218
     44 H11         0.4644    4.6619   12.4652 H         1 <0>         0.1245
     45 H12        -0.8146    5.5596   11.6130 H         1 <0>         0.1071
     46 H13        -1.2322    4.4948   12.9768 H         1 <0>         0.1273
     47 H14        -1.3096   -0.6823   13.3087 H         1 <0>         0.0989
     48 H15        -2.1929    0.8619   13.1834 H         1 <0>         0.1094
     49 H16        -3.6740   -1.0944   13.7880 H         1 <0>         0.1036
     50 H17        -4.1569   -0.2794   12.2806 H         1 <0>         0.0428
     51 H18        -2.8631   -2.8634   10.0841 H         1 <0>         0.1043
     52 H19        -3.6935   -1.2904   10.1636 H         1 <0>         0.0450
     53 H20        -1.3900   -0.9091    9.4688 H         1 <0>         0.1029
     54 H21        -0.7788   -1.8532   10.8529 H         1 <0>         0.1042
     55 H22        -4.7041   -3.0633   13.2149 H         1 <0>         0.0912
     56 H23        -5.2561   -2.5340   11.6075 H         1 <0>         0.0533
     57 H24        -5.0627   -4.9745   11.6240 H         1 <0>         0.0547
     58 H25        -3.7921   -4.2970   10.5776 H         1 <0>         0.0454
     59 H26        -2.9188   -5.9101   12.1076 H         1 <0>         0.3805
     60 H27        -0.2852    4.5531    9.5669 H         1 <0>         0.4414
@<TRIPOS>BOND
     1    1    2 1
     2    1   34 1
     3    1   35 1
     4    1   36 1
     5    2    7 ar
     6    2    3 ar
     7    3    4 ar
     8    3   37 1
     9    4    5 ar
    10    4   38 1
    11    5    6 ar
    12    5   39 1
    13    6    7 ar
    14    6   33 1
    15    7    8 1
    16    8    9 am
    17    8   40 1
    18    9   10 2
    19    9   11 1
    20   11   15 1
    21   11   12 2
    22   12   13 1
    23   12   41 1
    24   13   14 2
    25   14   15 1
    26   14   16 1
    27   16   17 1
    28   16   42 1
    29   17   22 ar
    30   17   18 ar
    31   18   19 ar
    32   18   43 1
    33   19   20 ar
    34   19   24 1
    35   20   21 ar
    36   21   22 ar
    37   21   23 1
    38   22   60 1
    39   23   44 1
    40   23   45 1
    41   23   46 1
    42   24   29 1
    43   24   25 1
    44   25   26 1
    45   25   47 1
    46   25   48 1
    47   26   27 1
    48   26   49 1
    49   26   50 1
    50   27   28 1
    51   27   30 1
    52   28   29 1
    53   28   51 1
    54   28   52 1
    55   29   53 1
    56   29   54 1
    57   30   31 1
    58   30   55 1
    59   30   56 1
    60   31   32 1
    61   31   57 1
    62   31   58 1
    63   32   59 1
@<TRIPOS>MOLECULE
ZINC21982951
   60    63     0     0     0
SMALL
USER_CHARGES

@<TRIPOS>ATOM
      1 C1          3.2739    6.6585    1.8418 C.3       1 <0>        -0.1168
      2 C2          2.5810    7.9910    1.9663 C.ar      1 <0>        -0.0823
      3 C3          2.8983    9.0189    1.0995 C.ar      1 <0>        -0.1038
      4 C4          2.2635   10.2419    1.2126 C.ar      1 <0>        -0.1008
      5 C5          1.3088   10.4411    2.1933 C.ar      1 <0>        -0.1049
      6 C6          0.9869    9.4175    3.0639 C.ar      1 <0>        -0.0226
      7 C7          1.6192    8.1849    2.9486 C.ar      1 <0>         0.1373
      8 N1          1.2913    7.1440    3.8238 N.am      1 <0>        -0.6678
      9 C8          1.3128    7.3511    5.1554 C.2       1 <0>         0.6036
     10 O1          1.5184    8.4680    5.5945 O.2       1 <0>        -0.4759
     11 C9          1.0891    6.2346    6.0728 C.2       1 <0>        -0.2694
     12 C10         1.0619    6.2190    7.4604 C.2       1 <0>         0.1522
     13 N2          0.8357    5.0596    8.0247 N.2       1 <0>        -0.5060
     14 C11         0.6446    3.9678    7.3056 C.2       1 <0>         0.2464
     15 S1          0.7674    4.5141    5.7185 S.3       1 <0>         0.2029
     16 N3          0.3973    2.6842    7.7505 N.pl3     1 <0>        -0.5650
     17 C12         0.2197    2.4414    9.1063 C.ar      1 <0>         0.4999
     18 C13        -0.1342    1.1736    9.5555 C.ar      1 <0>        -0.3181
     19 C14        -0.3003    0.9817   10.9244 C.ar      1 <0>         0.4940
     20 N4         -0.1157    2.0114   11.7481 N.ar      1 <0>        -0.5712
     21 C15         0.2193    3.1978   11.2829 C.ar      1 <0>         0.4509
     22 N5          0.3911    3.4178    9.9956 N.ar      1 <0>        -0.4879
     23 C16         0.4179    4.3344   12.2523 C.3       1 <0>        -0.1253
     24 N6         -0.6531   -0.2629   11.4224 N.pl3     1 <0>        -0.5744
     25 C17        -0.9639   -0.4449   12.8484 C.3       1 <0>         0.1013
     26 C18        -2.3114   -1.1652   12.9649 C.3       1 <0>         0.0387
     27 N7         -2.2712   -2.4031   12.1749 N.3       1 <0>        -0.5277
     28 C19        -2.0835   -2.1176   10.7462 C.3       1 <0>         0.0305
     29 C20        -0.7325   -1.4351   10.5377 C.3       1 <0>         0.1149
     30 C21        -3.4796   -3.2085   12.3965 C.3       1 <0>         0.0543
     31 C22        -3.2958   -4.5889   11.7629 C.3       1 <0>         0.0774
     32 O2         -2.2472   -5.2869   12.4378 O.3       1 <0>        -0.5615
     33 Cl1        -0.2110    9.6681    4.2952 Cl        1 <0>        -0.0453
     34 H1          2.7121    6.0191    1.1609 H         1 <0>         0.0767
     35 H2          4.2810    6.8077    1.4524 H         1 <0>         0.0779
     36 H3          3.3298    6.1850    2.8220 H         1 <0>         0.0648
     37 H4          3.6435    8.8670    0.3327 H         1 <0>         0.1365
     38 H5          2.5139   11.0437    0.5337 H         1 <0>         0.1383
     39 H6          0.8148   11.3976    2.2790 H         1 <0>         0.1396
     40 H7          1.0484    6.2731    3.4723 H         1 <0>         0.4083
     41 H8          1.2191    7.1147    8.0430 H         1 <0>         0.1979
     42 H9          0.3477    1.9521    7.1161 H         1 <0>         0.4525
     43 H10        -0.2767    0.3593    8.8606 H         1 <0>         0.1835
     44 H11         1.4596    4.3615   12.5720 H         1 <0>         0.1250
     45 H12         0.1626    5.2758   11.7656 H         1 <0>         0.1301
     46 H13        -0.2249    4.1881   13.1203 H         1 <0>         0.1049
     47 H14        -0.1857   -1.0458   13.3190 H         1 <0>         0.1119
     48 H15        -1.0251    0.5276   13.3369 H         1 <0>         0.0843
     49 H16        -2.5057   -1.4068   14.0099 H         1 <0>         0.1076
     50 H17        -3.1034   -0.5184   12.5874 H         1 <0>         0.0465
     51 H18        -2.1124   -3.0499   10.1822 H         1 <0>         0.1076
     52 H19        -2.8786   -1.4576   10.3996 H         1 <0>         0.0467
     53 H20        -0.6409   -1.1170    9.4992 H         1 <0>         0.1034
     54 H21         0.0684   -2.1330   10.7819 H         1 <0>         0.1075
     55 H22        -3.6507   -3.3200   13.4672 H         1 <0>         0.0925
     56 H23        -4.3362   -2.7111   11.9416 H         1 <0>         0.0553
     57 H24        -4.2233   -5.1548   11.8494 H         1 <0>         0.0565
     58 H25        -3.0370   -4.4741   10.7103 H         1 <0>         0.0456
     59 H26        -2.0752   -6.1719   12.0881 H         1 <0>         0.3821
     60 H27        -0.2297    1.8867   12.7033 H         1 <0>         0.4392
@<TRIPOS>BOND
     1    1    2 1
     2    1   34 1
     3    1   35 1
     4    1   36 1
     5    2    7 ar
     6    2    3 ar
     7    3    4 ar
     8    3   37 1
     9    4    5 ar
    10    4   38 1
    11    5    6 ar
    12    5   39 1
    13    6    7 ar
    14    6   33 1
    15    7    8 1
    16    8    9 am
    17    8   40 1
    18    9   10 2
    19    9   11 1
    20   11   15 1
    21   11   12 2
    22   12   13 1
    23   12   41 1
    24   13   14 2
    25   14   15 1
    26   14   16 1
    27   16   17 1
    28   16   42 1
    29   17   18 ar
    30   17   22 ar
    31   18   43 1
    32   18   19 ar
    33   19   24 1
    34   19   20 ar
    35   20   60 1
    36   20   21 ar
    37   21   23 1
    38   21   22 ar
    39   23   44 1
    40   23   45 1
    41   23   46 1
    42   24   29 1
    43   24   25 1
    44   25   26 1
    45   25   47 1
    46   25   48 1
    47   26   27 1
    48   26   49 1
    49   26   50 1
    50   27   28 1
    51   27   30 1
    52   28   29 1
    53   28   51 1
    54   28   52 1
    55   29   53 1
    56   29   54 1
    57   30   31 1
    58   30   55 1
    59   30   56 1
    60   31   32 1
    61   31   57 1
    62   31   58 1
    63   32   59 1
@<TRIPOS>MOLECULE
ZINC21982951
   59    62     0     0     0
SMALL
USER_CHARGES

@<TRIPOS>ATOM
      1 C1          3.4106    6.6420    1.8847 C.3       1 <0>        -0.1165
      2 C2          2.6976    7.9659    1.9845 C.ar      1 <0>        -0.0852
      3 C3          3.0204    8.9921    1.1176 C.ar      1 <0>        -0.1055
      4 C4          2.3672   10.2073    1.2080 C.ar      1 <0>        -0.1070
      5 C5          1.3885   10.4004    2.1660 C.ar      1 <0>        -0.1064
      6 C6          1.0609    9.3785    3.0365 C.ar      1 <0>        -0.0243
      7 C7          1.7118    8.1536    2.9438 C.ar      1 <0>         0.1460
      8 N1          1.3783    7.1144    3.8189 N.am      1 <0>        -0.6734
      9 C8          1.3676    7.3308    5.1492 C.2       1 <0>         0.6131
     10 O1          1.5489    8.4533    5.5848 O.2       1 <0>        -0.4899
     11 C9          1.1384    6.2176    6.0693 C.2       1 <0>        -0.3092
     12 C10         1.0807    6.2111    7.4561 C.2       1 <0>         0.1722
     13 N2          0.8573    5.0526    8.0233 N.2       1 <0>        -0.5180
     14 C11         0.6966    3.9535    7.3079 C.2       1 <0>         0.3121
     15 S1          0.8472    4.4907    5.7202 S.3       1 <0>         0.1340
     16 N3          0.4564    2.6698    7.7563 N.pl3     1 <0>        -0.5904
     17 C12         0.2490    2.4343    9.1091 C.ar      1 <0>         0.4412
     18 C13        -0.1036    1.1661    9.5586 C.ar      1 <0>        -0.3412
     19 C14        -0.3003    0.9817   10.9244 C.ar      1 <0>         0.4686
     20 N4         -0.1450    2.0186   11.7452 N.ar      1 <0>        -0.5923
     21 C15         0.1898    3.2050   11.2799 C.ar      1 <0>         0.3946
     22 N5          0.3901    3.4182    9.9956 N.ar      1 <0>        -0.5459
     23 C16         0.3546    4.3498   12.2460 C.3       1 <0>        -0.0834
     24 N6         -0.6531   -0.2629   11.4224 N.pl3     1 <0>        -0.5966
     25 C17        -1.0693   -0.4249   12.8237 C.3       1 <0>         0.1300
     26 C18        -2.3993   -1.1856   12.8517 C.3       1 <0>         0.0401
     27 N7         -2.2595   -2.4378   12.0965 N.3       1 <0>        -0.5276
     28 C19        -1.9688   -2.1765   10.6804 C.3       1 <0>         0.0363
     29 C20        -0.6270   -1.4554   10.5619 C.3       1 <0>         0.1269
     30 C21        -3.4565   -3.2768   12.2420 C.3       1 <0>         0.0537
     31 C22        -3.1814   -4.6636   11.6572 C.3       1 <0>         0.0792
     32 O2         -2.1684   -5.3132   12.4279 O.3       1 <0>        -0.5589
     33 Cl1        -0.1672    9.6214    4.2392 Cl        1 <0>        -0.0433
     34 H1          2.8725    5.9906    1.1961 H         1 <0>         0.0754
     35 H2          4.4240    6.8020    1.5166 H         1 <0>         0.0754
     36 H3          3.4510    6.1760    2.8692 H         1 <0>         0.0676
     37 H4          3.7844    8.8450    0.3685 H         1 <0>         0.1337
     38 H5          2.6220   11.0077    0.5292 H         1 <0>         0.1350
     39 H6          0.8801   11.3508    2.2339 H         1 <0>         0.1371
     40 H7          1.1547    6.2381    3.4683 H         1 <0>         0.4085
     41 H8          1.2132    7.1127    8.0357 H         1 <0>         0.1884
     42 H9          0.4325    1.9325    7.1264 H         1 <0>         0.4387
     43 H10        -0.2220    0.3459    8.8660 H         1 <0>         0.1413
     44 H11         1.3882    4.3890   12.5900 H         1 <0>         0.0870
     45 H12         0.1021    5.2855   11.7470 H         1 <0>         0.0890
     46 H13        -0.3072    4.2031   13.0995 H         1 <0>         0.0846
     47 H14        -0.3126   -0.9904   13.3674 H         1 <0>         0.0744
     48 H15        -1.1984    0.5551   13.2831 H         1 <0>         0.1008
     49 H16        -2.6676   -1.4113   13.8837 H         1 <0>         0.0903
     50 H17        -3.1785   -0.5727   12.3986 H         1 <0>         0.0372
     51 H18        -1.9249   -3.1208   10.1378 H         1 <0>         0.0905
     52 H19        -2.7540   -1.5497   10.2576 H         1 <0>         0.0380
     53 H20        -0.4638   -1.1563    9.5265 H         1 <0>         0.0877
     54 H21         0.1731   -2.1219   10.8840 H         1 <0>         0.0802
     55 H22        -3.7077   -3.3713   13.2985 H         1 <0>         0.0861
     56 H23        -4.2894   -2.8169   11.7102 H         1 <0>         0.0487
     57 H24        -4.0952   -5.2572   11.6843 H         1 <0>         0.0498
     58 H25        -2.8443   -4.5626   10.6256 H         1 <0>         0.0451
     59 H26        -1.9426   -6.1994   12.1134 H         1 <0>         0.3762
@<TRIPOS>BOND
     1    1    2 1
     2    1   34 1
     3    1   35 1
     4    1   36 1
     5    2    7 ar
     6    2    3 ar
     7    3    4 ar
     8    3   37 1
     9    4    5 ar
    10    4   38 1
    11    5    6 ar
    12    5   39 1
    13    6    7 ar
    14    6   33 1
    15    7    8 1
    16    8    9 am
    17    8   40 1
    18    9   10 2
    19    9   11 1
    20   11   15 1
    21   11   12 2
    22   12   13 1
    23   12   41 1
    24   13   14 2
    25   14   15 1
    26   14   16 1
    27   16   17 1
    28   16   42 1
    29   17   18 ar
    30   17   22 ar
    31   18   43 1
    32   18   19 ar
    33   19   24 1
    34   19   20 ar
    35   20   21 ar
    36   21   23 1
    37   21   22 ar
    38   23   44 1
    39   23   45 1
    40   23   46 1
    41   24   29 1
    42   24   25 1
    43   25   26 1
    44   25   47 1
    45   25   48 1
    46   26   27 1
    47   26   49 1
    48   26   50 1
    49   27   28 1
    50   27   30 1
    51   28   29 1
    52   28   51 1
    53   28   52 1
    54   29   53 1
    55   29   54 1
    56   30   31 1
    57   30   55 1
    58   30   56 1
    59   31   32 1
    60   31   57 1
    61   31   58 1
    62   32   59 1
@<TRIPOS>MOLECULE
ZINC21982951
   61    64     0     0     0
SMALL
USER_CHARGES

@<TRIPOS>ATOM
      1 C1          3.2770    6.6581    1.8427 C.3       1 <0>        -0.1166
      2 C2          2.5837    7.9904    1.9667 C.ar      1 <0>        -0.0814
      3 C3          2.9012    9.0183    1.0999 C.ar      1 <0>        -0.1028
      4 C4          2.2660   10.2411    1.2125 C.ar      1 <0>        -0.0975
      5 C5          1.3108   10.4402    2.1928 C.ar      1 <0>        -0.1039
      6 C6          0.9888    9.4167    3.0634 C.ar      1 <0>        -0.0218
      7 C7          1.6215    8.1842    2.9485 C.ar      1 <0>         0.1327
      8 N1          1.2933    7.1433    3.8237 N.am      1 <0>        -0.6648
      9 C8          1.3141    7.3507    5.1552 C.2       1 <0>         0.5983
     10 O1          1.5193    8.4677    5.5943 O.2       1 <0>        -0.4690
     11 C9          1.0903    6.2342    6.0727 C.2       1 <0>        -0.2500
     12 C10         1.0624    6.2188    7.4604 C.2       1 <0>         0.1439
     13 N2          0.8362    5.0594    8.0246 N.2       1 <0>        -0.4984
     14 C11         0.6458    3.9675    7.3056 C.2       1 <0>         0.2172
     15 S1          0.7692    4.5136    5.7185 S.3       1 <0>         0.2242
     16 N3          0.3986    2.6839    7.7506 N.pl3     1 <0>        -0.5513
     17 C12         0.2203    2.4413    9.1063 C.ar      1 <0>         0.5098
     18 C13        -0.1335    1.1734    9.5556 C.ar      1 <0>        -0.3097
     19 C14        -0.3003    0.9817   10.9244 C.ar      1 <0>         0.4927
     20 N4         -0.1163    2.0116   11.7481 N.ar      1 <0>        -0.5695
     21 C15         0.2187    3.1980   11.2828 C.ar      1 <0>         0.4589
     22 N5          0.3911    3.4178    9.9956 N.ar      1 <0>        -0.4762
     23 C16         0.4165    4.3348   12.2521 C.3       1 <0>        -0.1303
     24 N6         -0.6531   -0.2629   11.4224 N.pl3     1 <0>        -0.6123
     25 C17        -0.9643   -0.4465   12.8484 C.3       1 <0>         0.0782
     26 C18        -2.3027   -1.1838   12.9625 C.3       1 <0>        -0.0204
     27 N7         -2.2406   -2.4311   12.1903 N.4       1 <0>        -0.3852
     28 C19        -2.0770   -2.1279   10.7629 C.3       1 <0>        -0.0304
     29 C20        -0.7330   -1.4363   10.5388 C.3       1 <0>         0.0932
     30 C21        -3.4827   -3.1900   12.3886 C.3       1 <0>        -0.0061
     31 C22        -3.3702   -4.5448   11.6865 C.3       1 <0>         0.0434
     32 O2         -2.3479   -5.3224   12.3128 O.3       1 <0>        -0.5819
     33 Cl1        -0.2098    9.6671    4.2940 Cl        1 <0>        -0.0466
     34 H1          2.7157    6.0184    1.1617 H         1 <0>         0.0770
     35 H2          4.2843    6.8074    1.4538 H         1 <0>         0.0791
     36 H3          3.3325    6.1847    2.8230 H         1 <0>         0.0631
     37 H4          3.6468    8.8665    0.3335 H         1 <0>         0.1380
     38 H5          2.5166   11.0428    0.5336 H         1 <0>         0.1401
     39 H6          0.8165   11.3966    2.2780 H         1 <0>         0.1410
     40 H7          1.0508    6.2723    3.4722 H         1 <0>         0.4077
     41 H8          1.2191    7.1146    8.0429 H         1 <0>         0.2016
     42 H9          0.3494    1.9517    7.1163 H         1 <0>         0.4545
     43 H10        -0.2756    0.3590    8.8607 H         1 <0>         0.1860
     44 H11         1.4581    4.3621   12.5724 H         1 <0>         0.1309
     45 H12         0.1613    5.2760   11.7653 H         1 <0>         0.1358
     46 H13        -0.2267    4.1885   13.1199 H         1 <0>         0.1083
     47 H14        -0.1795   -1.0367   13.3215 H         1 <0>         0.1249
     48 H15        -1.0392    0.5259   13.3352 H         1 <0>         0.1232
     49 H16        -2.5028   -1.4138   14.0090 H         1 <0>         0.1602
     50 H17        -3.0999   -0.5526   12.5701 H         1 <0>         0.1410
     51 H18        -2.1110   -3.0537   10.1885 H         1 <0>         0.1585
     52 H19        -2.8811   -1.4682   10.4370 H         1 <0>         0.1418
     53 H20        -0.6550   -1.1179    9.4992 H         1 <0>         0.1416
     54 H21         0.0756   -2.1281   10.7747 H         1 <0>         0.1211
     55 H22        -3.6469   -3.3459   13.4548 H         1 <0>         0.1465
     56 H23        -4.3202   -2.6321   11.9697 H         1 <0>         0.1464
     57 H24        -4.3221   -5.0710   11.7578 H         1 <0>         0.1026
     58 H25        -3.1180   -4.3904   10.6374 H         1 <0>         0.0719
     59 H26        -2.2211   -6.1961   11.9183 H         1 <0>         0.4154
     60 H27        -0.2308    1.8869   12.7032 H         1 <0>         0.4393
     61 H28        -1.4578   -2.9831   12.5075 H         1 <0>         0.4359
@<TRIPOS>BOND
     1    1    2 1
     2    1   34 1
     3    1   35 1
     4    1   36 1
     5    2    7 ar
     6    2    3 ar
     7    3    4 ar
     8    3   37 1
     9    4    5 ar
    10    4   38 1
    11    5    6 ar
    12    5   39 1
    13    6    7 ar
    14    6   33 1
    15    7    8 1
    16    8    9 am
    17    8   40 1
    18    9   10 2
    19    9   11 1
    20   11   15 1
    21   11   12 2
    22   12   13 1
    23   12   41 1
    24   13   14 2
    25   14   15 1
    26   14   16 1
    27   16   17 1
    28   16   42 1
    29   17   18 ar
    30   17   22 ar
    31   18   43 1
    32   18   19 ar
    33   19   24 1
    34   19   20 ar
    35   20   60 1
    36   20   21 ar
    37   21   23 1
    38   21   22 ar
    39   23   44 1
    40   23   45 1
    41   23   46 1
    42   24   29 1
    43   24   25 1
    44   25   26 1
    45   25   47 1
    46   25   48 1
    47   26   27 1
    48   26   49 1
    49   26   50 1
    50   27   28 1
    51   27   30 1
    52   27   61 1
    53   28   29 1
    54   28   51 1
    55   28   52 1
    56   29   53 1
    57   29   54 1
    58   30   31 1
    59   30   55 1
    60   30   56 1
    61   31   32 1
    62   31   57 1
    63   31   58 1
    64   32   59 1
@<TRIPOS>MOLECULE
ZINC13472189
   31    33     0     0     0
SMALL
USER_CHARGES

@<TRIPOS>ATOM
      1 C1         -0.0161    1.3397    0.0094 C.2       1 <0>         0.0270
      2 C2          1.2536    1.7794   -0.0004 C.2       1 <0>         0.0613
      3 N1          2.0636    0.6663   -0.0141 N.pl3     1 <0>        -0.5418
      4 H1          3.0335    0.6587   -0.0231 H         1 <0>         0.4599
      5 C3          1.2460   -0.4209   -0.0121 C.cat     1 <0>         0.5896
      6 N2          0.0021   -0.0041    0.0020 N.pl3     1 <0>        -0.5135
      7 N3          1.6570   -1.7434   -0.0235 N.pl3     1 <0>        -0.8050
      8 C4          1.7050    3.2172    0.0026 C.3       1 <0>         0.0538
      9 H2          2.7067    3.2686    0.4293 H         1 <0>         0.1181
     10 C5          0.7682    4.0171    0.8685 C.3       1 <0>        -0.1369
     11 C6          1.2955    5.3776    1.2347 C.3       1 <0>         0.1042
     12 N4          1.1929    6.3591    0.1882 N.am      1 <0>        -0.6907
     13 C7          1.3661    6.2124   -1.1046 C.2       1 <0>         0.5834
     14 O1          1.3041    7.2355   -1.7609 O.2       1 <0>        -0.5489
     15 C8          1.6220    4.9986   -1.8612 C.2       1 <0>         0.0311
     16 C9          1.7579    3.7077   -1.4096 C.2       1 <0>        -0.0852
     17 C10         1.9671    2.8938   -2.5330 C.2       1 <0>        -0.1444
     18 C11         1.9647    3.6882   -3.6296 C.2       1 <0>         0.0872
     19 N5          1.7697    4.9660   -3.2399 N.pl3     1 <0>        -0.4852
     20 H3          1.7338    5.7357   -3.8291 H         1 <0>         0.4437
     21 Br1         2.2033    3.1052   -5.4126 Br        1 <0>         0.0565
     22 Br2         2.2104    1.0186   -2.5183 Br        1 <0>        -0.0176
     23 H4         -0.9001    1.9600    0.0252 H         1 <0>         0.2216
     24 H5          2.6031   -1.9572   -0.0340 H         1 <0>         0.4394
     25 H6          0.9988   -2.4559   -0.0210 H         1 <0>         0.4406
     26 H7         -0.1761    4.1408    0.3382 H         1 <0>         0.0878
     27 H8          0.5788    3.4586    1.7852 H         1 <0>         0.1064
     28 H9          0.7446    5.7394    2.1029 H         1 <0>         0.1050
     29 H10         2.3447    5.2779    1.5131 H         1 <0>         0.0744
     30 H11         0.9630    7.2555    0.4787 H         1 <0>         0.4171
     31 H12        -0.7814   -0.5760    0.0064 H         1 <0>         0.4610
@<TRIPOS>BOND
     1    1    6 1
     2    1    2 2
     3    1   23 1
     4    2    3 1
     5    2    8 1
     6    3    4 1
     7    3    5 1
     8    5    6 2
     9    5    7 1
    10    6   31 1
    11    7   24 1
    12    7   25 1
    13    8    9 1
    14    8   16 1
    15    8   10 1
    16   10   11 1
    17   10   26 1
    18   10   27 1
    19   11   12 1
    20   11   28 1
    21   11   29 1
    22   12   13 am
    23   12   30 1
    24   13   14 2
    25   13   15 1
    26   15   19 1
    27   15   16 2
    28   16   17 1
    29   17   18 2
    30   17   22 1
    31   18   19 1
    32   18   21 1
    33   19   20 1
@<TRIPOS>MOLECULE
ZINC13472189
   30    32     0     0     0
SMALL
USER_CHARGES
(4R)-4-(2-amino-3H-imidazol-4-yl)-2,3-dibromo-4,5,6,7-tetrahydro-1H-pyrrolo[2,3-c]azepin-8-one
@<TRIPOS>ATOM
      1 C1          1.3969    5.3924   -2.2489 C.2       1 <0>        -0.0699
      2 C2          1.1870    5.2913   -0.9254 C.2       1 <0>         0.0192
      3 N1          1.4566    6.5266   -0.3808 N.2       1 <0>        -0.4945
      4 H1          1.9921    7.0081   -3.4307 H         1 <0>         0.4177
      5 C3          1.8195    7.3431   -1.4065 C.2       1 <0>         0.4447
      6 N2          1.7764    6.6526   -2.5212 N.pl3     1 <0>        -0.5540
      7 N3          2.1743    8.6771   -1.2932 N.pl3     1 <0>        -0.8458
      8 C4          0.7461    4.0588   -0.1788 C.3       1 <0>         0.0645
      9 H2          1.1121    4.1207    0.8461 H         1 <0>         0.1019
     10 C5          1.3545    2.8495   -0.8382 C.3       1 <0>        -0.1296
     11 C6          1.2791    1.6015   -0.0016 C.3       1 <0>         0.1048
     12 N4         -0.0111    0.9658    0.0074 N.am      1 <0>        -0.6910
     13 C7         -1.2039    1.5137    0.0165 C.2       1 <0>         0.5919
     14 O1         -2.1369    0.7366    0.0996 O.2       1 <0>        -0.5689
     15 C8         -1.5651    2.9192   -0.0520 C.2       1 <0>        -0.0030
     16 C9         -0.7493    4.0216   -0.1519 C.2       1 <0>        -0.0525
     17 C10        -1.5794    5.1504   -0.2259 C.2       1 <0>        -0.1310
     18 C11        -2.8642    4.7281   -0.1609 C.2       1 <0>         0.0664
     19 N5         -2.8734    3.3797   -0.0483 N.pl3     1 <0>        -0.4979
     20 H3         -3.6661    2.8254    0.0239 H         1 <0>         0.4337
     21 Br1        -4.3932    5.8392   -0.2181 Br        1 <0>         0.0331
     22 Br2        -1.0051    6.9447   -0.3884 Br        1 <0>         0.0259
     23 H4          1.2784    4.5977   -2.9705 H         1 <0>         0.1662
     24 H5          2.1775    9.1059   -0.4232 H         1 <0>         0.4186
     25 H6          2.4196    9.1825   -2.0840 H         1 <0>         0.4038
     26 H7          2.4016    3.0608   -1.0548 H         1 <0>         0.0980
     27 H8          0.8345    2.6698   -1.7792 H         1 <0>         0.0742
     28 H9          1.5456    1.8566    1.0241 H         1 <0>         0.0705
     29 H10         2.0128    0.8886   -0.3778 H         1 <0>         0.0936
     30 H11         0.0021   -0.0041    0.0020 H         1 <0>         0.4094
@<TRIPOS>BOND
     1    1    6 1
     2    1    2 2
     3    1   23 1
     4    2    3 1
     5    2    8 1
     6    3    5 2
     7    4    6 1
     8    5    7 1
     9    5    6 1
    10    7   24 1
    11    7   25 1
    12    8    9 1
    13    8   16 1
    14    8   10 1
    15   10   11 1
    16   10   26 1
    17   10   27 1
    18   11   12 1
    19   11   28 1
    20   11   29 1
    21   12   13 am
    22   12   30 1
    23   13   14 2
    24   13   15 1
    25   15   19 1
    26   15   16 2
    27   16   17 1
    28   17   18 2
    29   17   22 1
    30   18   19 1
    31   18   21 1
    32   19   20 1
@<TRIPOS>MOLECULE
ZINC13472190
   31    33     0     0     0
SMALL
USER_CHARGES

@<TRIPOS>ATOM
      1 C1         -0.0161    1.3397    0.0094 C.2       1 <0>         0.0269
      2 C2          1.2536    1.7794   -0.0004 C.2       1 <0>         0.0614
      3 N1          2.0636    0.6663   -0.0141 N.pl3     1 <0>        -0.5418
      4 H1          3.0335    0.6587   -0.0231 H         1 <0>         0.4599
      5 C3          1.2460   -0.4209   -0.0121 C.cat     1 <0>         0.5896
      6 N2          0.0021   -0.0041    0.0020 N.pl3     1 <0>        -0.5135
      7 N3          1.6570   -1.7434   -0.0235 N.pl3     1 <0>        -0.8050
      8 C4          1.7050    3.2172    0.0026 C.3       1 <0>         0.0538
      9 H2          2.6981    3.2731   -0.4432 H         1 <0>         0.1181
     10 C5          0.7514    4.0259   -0.8364 C.3       1 <0>        -0.1369
     11 C6          1.2716    5.3901   -1.1989 C.3       1 <0>         0.1042
     12 N4          1.1896    6.3608   -0.1404 N.am      1 <0>        -0.6907
     13 C7          1.3883    6.2008    1.1471 C.2       1 <0>         0.5834
     14 O1          1.3384    7.2170    1.8151 O.2       1 <0>        -0.5490
     15 C8          1.6589    4.9793    1.8860 C.2       1 <0>         0.0312
     16 C9          1.7857    3.6932    1.4185 C.2       1 <0>        -0.0853
     17 C10         2.0169    2.8678    2.5291 C.2       1 <0>        -0.1443
     18 C11         2.0362    3.6507    3.6337 C.2       1 <0>         0.0871
     19 N5          1.8337    4.9325    3.2611 N.pl3     1 <0>        -0.4852
     20 H3          1.8100    5.6961    3.8587 H         1 <0>         0.4437
     21 Br1         2.3097    3.0494    5.4055 Br        1 <0>         0.0565
     22 Br2         2.2578    0.9926    2.4905 Br        1 <0>        -0.0176
     23 H4         -0.9001    1.9600    0.0252 H         1 <0>         0.2216
     24 H5          2.6031   -1.9572   -0.0340 H         1 <0>         0.4394
     25 H6          0.9988   -2.4559   -0.0210 H         1 <0>         0.4406
     26 H7          0.5440    3.4769   -1.7549 H         1 <0>         0.1064
     27 H8         -0.1822    4.1440   -0.2864 H         1 <0>         0.0878
     28 H9          2.3150    5.2934   -1.4989 H         1 <0>         0.0744
     29 H10         0.7037    5.7608   -2.0522 H         1 <0>         0.1050
     30 H11         0.9548    7.2603   -0.4173 H         1 <0>         0.4171
     31 H12        -0.7814   -0.5760    0.0064 H         1 <0>         0.4610
@<TRIPOS>BOND
     1    1    6 1
     2    1    2 2
     3    1   23 1
     4    2    3 1
     5    2    8 1
     6    3    4 1
     7    3    5 1
     8    5    6 2
     9    5    7 1
    10    6   31 1
    11    7   24 1
    12    7   25 1
    13    8    9 1
    14    8   16 1
    15    8   10 1
    16   10   11 1
    17   10   26 1
    18   10   27 1
    19   11   12 1
    20   11   28 1
    21   11   29 1
    22   12   13 am
    23   12   30 1
    24   13   14 2
    25   13   15 1
    26   15   19 1
    27   15   16 2
    28   16   17 1
    29   17   18 2
    30   17   22 1
    31   18   19 1
    32   18   21 1
    33   19   20 1
@<TRIPOS>MOLECULE
ZINC13472190
   30    32     0     0     0
SMALL
USER_CHARGES
(4S)-4-(2-amino-3H-imidazol-4-yl)-2,3-dibromo-4,5,6,7-tetrahydro-1H-pyrrolo[2,3-c]azepin-8-one
@<TRIPOS>ATOM
      1 C1         -2.1843    2.2778   -3.6422 C.2       1 <0>        -0.0696
      2 C2         -2.3260    1.0991   -3.0129 C.2       1 <0>         0.0190
      3 N1         -2.8953    0.2286   -3.9147 N.2       1 <0>        -0.4944
      4 H1         -2.6515    2.8650   -5.5911 H         1 <0>         0.4177
      5 C3         -3.0756    0.9178   -5.0736 C.2       1 <0>         0.4447
      6 N2         -2.6423    2.1437   -4.8985 N.pl3     1 <0>        -0.5540
      7 N3         -3.6236    0.4112   -6.2403 N.pl3     1 <0>        -0.8458
      8 C4         -1.9404    0.7903   -1.5891 C.3       1 <0>         0.0646
      9 H2         -1.7282   -0.2757   -1.5073 H         1 <0>         0.1019
     10 C5         -0.6922    1.5603   -1.2475 C.3       1 <0>        -0.1297
     11 C6         -0.0127    1.0858    0.0080 C.3       1 <0>         0.1051
     12 N4         -0.6393    1.5264    1.2254 N.am      1 <0>        -0.6901
     13 C7         -1.9125    1.6572    1.5039 C.2       1 <0>         0.5921
     14 O1         -2.1703    1.9748    2.6503 O.2       1 <0>        -0.5695
     15 C8         -3.0604    1.4757    0.6317 C.2       1 <0>        -0.0034
     16 C9         -3.0947    1.1189   -0.6959 C.2       1 <0>        -0.0529
     17 C10        -4.4407    1.1110   -1.0918 C.2       1 <0>        -0.1309
     18 C11        -5.1933    1.4470   -0.0176 C.2       1 <0>         0.0663
     19 N5         -4.3735    1.6645    1.0366 N.pl3     1 <0>        -0.4979
     20 H3         -4.6578    1.9122    1.9303 H         1 <0>         0.4336
     21 Br1        -7.0787    1.5894    0.0054 Br        1 <0>         0.0330
     22 Br2        -5.0892    0.7027   -2.8206 Br        1 <0>         0.0258
     23 H4         -1.7706    3.1783   -3.2127 H         1 <0>         0.1661
     24 H5         -3.9179   -0.5123   -6.2768 H         1 <0>         0.4185
     25 H6         -3.7132    0.9800   -7.0209 H         1 <0>         0.4038
     26 H7         -0.9537    2.6114   -1.1260 H         1 <0>         0.0743
     27 H8          0.0091    1.4727   -2.0774 H         1 <0>         0.0978
     28 H9          0.0021   -0.0041    0.0020 H         1 <0>         0.0709
     29 H10         1.0167    1.4440    0.0001 H         1 <0>         0.0941
     30 H11        -0.0328    1.7592    1.9457 H         1 <0>         0.4091
@<TRIPOS>BOND
     1    1    6 1
     2    1    2 2
     3    1   23 1
     4    2    3 1
     5    2    8 1
     6    3    5 2
     7    4    6 1
     8    5    7 1
     9    5    6 1
    10    7   24 1
    11    7   25 1
    12    8    9 1
    13    8   16 1
    14    8   10 1
    15   10   11 1
    16   10   26 1
    17   10   27 1
    18   11   12 1
    19   11   28 1
    20   11   29 1
    21   12   13 am
    22   12   30 1
    23   13   14 2
    24   13   15 1
    25   15   19 1
    26   15   16 2
    27   16   17 1
    28   17   18 2
    29   17   22 1
    30   18   19 1
    31   18   21 1
    32   19   20 1
@<TRIPOS>MOLECULE
ZINC43196550
   43    45     0     0     0
SMALL
USER_CHARGES

@<TRIPOS>ATOM
      1 C1         -0.0900    1.4576    0.0626 C.3       1 <0>         0.0626
      2 N1         -0.0503   -0.0068    0.0479 N.am      1 <0>        -0.4861
      3 C2         -1.1747   -0.7086    0.3811 C.2       1 <0>         0.4480
      4 C3         -1.1475   -2.1102    0.3698 C.2       1 <0>        -0.3106
      5 C4          0.0879   -2.7985    0.0004 C.2       1 <0>         0.2711
      6 C5          1.1902   -2.0241   -0.3260 C.2       1 <0>        -0.0487
      7 C6          1.0891   -0.6290   -0.2981 C.2       1 <0>         0.5360
      8 O1          2.0652    0.0421   -0.5924 O.2       1 <0>        -0.5027
      9 F1          2.3549   -2.6136   -0.6742 F         1 <0>        -0.1007
     10 N2          0.1550   -4.1792   -0.0223 N.pl3     1 <0>        -0.6695
     11 C7         -0.6026   -4.9012   -0.9508 C.ar      1 <0>         0.2281
     12 C8         -1.3189   -4.2328   -1.9346 C.ar      1 <0>        -0.1530
     13 C9         -2.0661   -4.9481   -2.8501 C.ar      1 <0>        -0.0474
     14 C10        -2.1024   -6.3296   -2.7881 C.ar      1 <0>        -0.1231
     15 C11        -1.3905   -7.0001   -1.8097 C.ar      1 <0>        -0.0741
     16 C12        -0.6354   -6.2906   -0.8939 C.ar      1 <0>         0.0502
     17 F2          0.0647   -6.9455    0.0580 F         1 <0>        -0.1335
     18 I1         -3.2387   -7.4087   -4.1785 I         1 <0>        -0.0326
     19 C13        -2.3229   -2.8212    0.7176 C.2       1 <0>         0.5577
     20 O2         -2.3424   -4.0395    0.7210 O.2       1 <0>        -0.4889
     21 N3         -3.4225   -2.1052    1.0461 N.am      1 <0>        -0.5269
     22 C14        -3.3843   -0.7519    1.0374 C.2       1 <0>         0.4434
     23 N4         -2.3101   -0.0822    0.7201 N.2       1 <0>        -0.5492
     24 C15        -4.6606   -2.7973    1.4126 C.3       1 <0>         0.0604
     25 C16        -4.6805   -3.0415    2.9228 C.3       1 <0>         0.0917
     26 H1         -3.7789   -3.5793    3.2159 H         1 <0>         0.1152
     27 C17        -5.9118   -3.8727    3.2889 C.3       1 <0>         0.0496
     28 O3         -5.8698   -4.1994    4.6794 O.3       1 <0>        -0.5613
     29 O4         -4.7312   -1.7881    3.6074 O.3       1 <0>        -0.5458
     30 H2          0.8834    1.8504   -0.2313 H         1 <0>         0.1061
     31 H3         -0.8493    1.8075   -0.6368 H         1 <0>         0.0886
     32 H4         -0.3336    1.8043    1.0669 H         1 <0>         0.0888
     33 H5          0.7274   -4.6473    0.6055 H         1 <0>         0.4239
     34 H6         -1.2921   -3.1542   -1.9839 H         1 <0>         0.1294
     35 H7         -2.6232   -4.4280   -3.6153 H         1 <0>         0.1348
     36 H8         -1.4211   -8.0787   -1.7637 H         1 <0>         0.1434
     37 H9         -4.2771   -0.2055    1.3038 H         1 <0>         0.2181
     38 H10        -5.5166   -2.1834    1.1324 H         1 <0>         0.1098
     39 H11        -4.7115   -3.7522    0.8895 H         1 <0>         0.1206
     40 H12        -6.8138   -3.2983    3.0777 H         1 <0>         0.0553
     41 H13        -5.9190   -4.7900    2.7002 H         1 <0>         0.0613
     42 H14        -6.6214   -4.7269    4.9823 H         1 <0>         0.3856
     43 H15        -5.5092   -1.2548    3.3942 H         1 <0>         0.3745
@<TRIPOS>BOND
     1    1    2 1
     2    1   30 1
     3    1   31 1
     4    1   32 1
     5    2    7 am
     6    2    3 1
     7    3   23 1
     8    3    4 2
     9    4    5 1
    10    4   19 1
    11    5    6 2
    12    5   10 1
    13    6    7 1
    14    6    9 1
    15    7    8 2
    16   10   11 1
    17   10   33 1
    18   11   16 ar
    19   11   12 ar
    20   12   13 ar
    21   12   34 1
    22   13   14 ar
    23   13   35 1
    24   14   15 ar
    25   14   18 1
    26   15   16 ar
    27   15   36 1
    28   16   17 1
    29   19   20 2
    30   19   21 am
    31   21   22 1
    32   21   24 1
    33   22   23 2
    34   22   37 1
    35   24   25 1
    36   24   38 1
    37   24   39 1
    38   25   26 1
    39   25   27 1
    40   25   29 1
    41   27   28 1
    42   27   40 1
    43   27   41 1
    44   28   42 1
    45   29   43 1
@<TRIPOS>MOLECULE
ZINC03814434
   62    69     0     0     0
SMALL
USER_CHARGES

@<TRIPOS>ATOM
      1 C1         -0.1295    1.5952   -0.2973 C.3       1 <0>        -0.1687
      2 C2         -0.0862    0.0696   -0.1900 C.3       1 <0>         0.3342
      3 C3          0.5692   -0.4501   -1.4637 C.3       1 <0>         0.0405
      4 H1          1.4796    0.1159   -1.6612 H         1 <0>         0.1372
      5 C4          0.9167   -1.9328   -1.2889 C.3       1 <0>        -0.0061
      6 H2          1.3963   -2.3075   -2.1932 H         1 <0>         0.1555
      7 C5          1.8785   -2.0596   -0.1021 C.3       1 <0>        -0.1827
      8 C6          1.2061   -1.5198    1.1541 C.3       1 <0>         0.2999
      9 H3          1.9797   -1.4243    1.9161 H         1 <0>         0.1550
     10 O1          0.6555   -0.2442    0.9666 O.3       1 <0>        -0.3234
     11 N1          0.2189   -2.4746    1.6600 N.pl3     1 <0>        -0.5366
     12 C7          0.4705   -3.5508    2.4739 C.ar      1 <0>         0.1469
     13 C8          1.6649   -4.0152    3.0240 C.ar      1 <0>        -0.1522
     14 C9          1.5948   -5.1456    3.8201 C.ar      1 <0>        -0.0582
     15 C10         0.4006   -5.7997    4.0696 C.ar      1 <0>        -0.1457
     16 C11        -0.7984   -5.3597    3.5358 C.ar      1 <0>        -0.0280
     17 C12        -0.7487   -4.2198    2.7307 C.ar      1 <0>        -0.1131
     18 C13        -1.7893   -3.4830    2.0197 C.ar      1 <0>         0.0276
     19 C14        -1.1442   -2.4197    1.3841 C.ar      1 <0>         0.0376
     20 C15        -1.8806   -1.5095    0.6175 C.ar      1 <0>         0.0894
     21 N2         -1.4718   -0.3951   -0.1095 N.pl3     1 <0>        -0.5183
     22 C16        -2.5611    0.1913   -0.7090 C.ar      1 <0>         0.1618
     23 C17        -2.6521    1.3277   -1.5118 C.ar      1 <0>        -0.1305
     24 C18        -3.9109    1.6745   -1.9733 C.ar      1 <0>        -0.0737
     25 C19        -5.0393    0.9368   -1.6616 C.ar      1 <0>        -0.1358
     26 C20        -4.9745   -0.1955   -0.8662 C.ar      1 <0>        -0.0503
     27 C21        -3.7147   -0.5596   -0.3919 C.ar      1 <0>        -0.1042
     28 C22        -3.2693   -1.6660    0.4845 C.ar      1 <0>        -0.0360
     29 C23        -3.9084   -2.7313    1.1102 C.ar      1 <0>        -0.0288
     30 C24        -3.1873   -3.6421    1.8754 C.ar      1 <0>        -0.1255
     31 C25        -4.1221   -4.6480    2.4030 C.2       1 <0>         0.5632
     32 O2         -3.8062   -5.5851    3.1110 O.2       1 <0>        -0.5106
     33 N3         -5.3744   -4.3851    1.9926 N.am      1 <0>        -0.7162
     34 C26        -5.3495   -3.1771    1.1601 C.3       1 <0>         0.1358
     35 N4         -0.3067   -2.7008   -1.0216 N.4       1 <0>        -0.5252
     36 C27         0.0145   -4.1336   -0.9773 C.3       1 <0>        -0.0497
     37 O3         -0.3340   -0.2979   -2.5607 O.3       1 <0>        -0.3614
     38 C28         0.3101   -0.0933   -3.8198 C.3       1 <0>         0.0162
     39 H4          0.8261    2.0094    0.0240 H         1 <0>         0.0984
     40 H5         -0.3202    1.8814   -1.3317 H         1 <0>         0.1036
     41 H6         -0.9255    1.9818    0.3392 H         1 <0>         0.0921
     42 H7          2.1370   -3.1081    0.0458 H         1 <0>         0.1233
     43 H8          2.7835   -1.4869   -0.3048 H         1 <0>         0.1455
     44 H9          2.6036   -3.5149    2.8368 H         1 <0>         0.1365
     45 H10         2.5026   -5.5304    4.2610 H         1 <0>         0.1359
     46 H11         0.4045   -6.6780    4.6980 H         1 <0>         0.1352
     47 H12        -1.7278   -5.8736    3.7323 H         1 <0>         0.1600
     48 H13        -1.7792    1.9122   -1.7624 H         1 <0>         0.1440
     49 H14        -4.0153    2.5500   -2.5970 H         1 <0>         0.1336
     50 H15        -5.9967    1.2527   -2.0488 H         1 <0>         0.1332
     51 H16        -5.8575   -0.7687   -0.6249 H         1 <0>         0.1415
     52 H17        -6.1628   -4.9065    2.2103 H         1 <0>         0.4348
     53 H18        -5.9671   -2.3994    1.6094 H         1 <0>         0.1115
     54 H19        -5.7060   -3.4063    0.1559 H         1 <0>         0.1103
     55 H20        -0.6958   -2.4158   -0.1353 H         1 <0>         0.4186
     56 H21         0.4349   -4.4415   -1.9347 H         1 <0>         0.1256
     57 H22         0.7403   -4.3189   -0.1854 H         1 <0>         0.1191
     58 H23        -0.8932   -4.7035   -0.7789 H         1 <0>         0.1256
     59 H24         0.9168    0.8112   -3.7748 H         1 <0>         0.0633
     60 H25         0.9482   -0.9479   -4.0446 H         1 <0>         0.0514
     61 H26        -0.4433    0.0130   -4.6003 H         1 <0>         0.1100
     62 H27        -0.9785   -2.5293   -1.7546 H         1 <0>         0.4274
@<TRIPOS>BOND
     1    1    2 1
     2    1   39 1
     3    1   40 1
     4    1   41 1
     5    2   10 1
     6    2   21 1
     7    2    3 1
     8    3    4 1
     9    3    5 1
    10    3   37 1
    11    5    6 1
    12    5    7 1
    13    5   35 1
    14    7    8 1
    15    7   42 1
    16    7   43 1
    17    8    9 1
    18    8   10 1
    19    8   11 1
    20   11   19 1
    21   11   12 1
    22   12   17 ar
    23   12   13 ar
    24   13   14 ar
    25   13   44 1
    26   14   15 ar
    27   14   45 1
    28   15   16 ar
    29   15   46 1
    30   16   17 ar
    31   16   47 1
    32   17   18 1
    33   18   30 ar
    34   18   19 ar
    35   19   20 ar
    36   20   28 ar
    37   20   21 1
    38   21   22 1
    39   22   27 ar
    40   22   23 ar
    41   23   24 ar
    42   23   48 1
    43   24   25 ar
    44   24   49 1
    45   25   26 ar
    46   25   50 1
    47   26   27 ar
    48   26   51 1
    49   27   28 1
    50   28   29 ar
    51   29   34 1
    52   29   30 ar
    53   30   31 1
    54   31   32 2
    55   31   33 am
    56   33   34 1
    57   33   52 1
    58   34   53 1
    59   34   54 1
    60   35   36 1
    61   35   55 1
    62   35   62 1
    63   36   56 1
    64   36   57 1
    65   36   58 1
    66   37   38 1
    67   38   59 1
    68   38   60 1
    69   38   61 1
@<TRIPOS>MOLECULE
ZINC14852066
   48    49     0     0     0
SMALL
USER_CHARGES

@<TRIPOS>ATOM
      1 C1         -0.0187    1.5258    0.0104 C.3       1 <0>        -0.1902
      2 C2          0.0021   -0.0041    0.0020 C.3       1 <0>         0.1099
      3 H1         -1.0213   -0.3792    0.0098 H         1 <0>         0.1225
      4 C3          0.7117   -0.4941   -1.2603 C.3       1 <0>        -0.1315
      5 C4          1.3803    0.6570   -1.9583 C.2       1 <0>        -0.0692
      6 C5          2.7017    0.8181   -1.8493 C.2       1 <0>        -0.2242
      7 C6          3.3680    1.9252   -2.5435 C.2       1 <0>         0.3696
      8 O1          2.7115    2.7060   -3.2003 O.2       1 <0>        -0.4479
      9 C7          4.8559    2.0998   -2.4470 C.3       1 <0>         0.0704
     10 H2          5.3262    1.1283   -2.2950 H         1 <0>         0.0907
     11 C8          5.1895    3.0179   -1.2680 C.3       1 <0>         0.1256
     12 H3          5.7479    3.8823   -1.6273 H         1 <0>         0.0798
     13 C9          6.0360    2.2514   -0.2480 C.3       1 <0>        -0.1248
     14 C10         5.2825    2.1507    1.0538 C.2       1 <0>        -0.1283
     15 C11         4.6042    1.0526    1.3362 C.2       1 <0>        -0.1087
     16 C12         3.8388    0.8902    2.5804 C.ar      1 <0>         0.0721
     17 C13         4.3861    1.3164    3.7898 C.ar      1 <0>        -0.1728
     18 C14         3.6817    1.1455    4.9738 C.ar      1 <0>         0.1859
     19 C15         2.4255    0.5534    4.9682 C.ar      1 <0>        -0.2571
     20 C16         1.8630    0.1324    3.7761 C.ar      1 <0>         0.2113
     21 C17         2.5606    0.2946    2.5690 C.ar      1 <0>        -0.2000
     22 C18         1.9781   -0.1421    1.2956 C.2       1 <0>         0.5268
     23 O2          2.6973   -0.2041    0.3174 O.2       1 <0>        -0.4835
     24 O3          0.6878   -0.4748    1.1642 O.3       1 <0>        -0.3491
     25 O4          0.6328   -0.4392    3.7740 O.3       1 <0>        -0.4807
     26 O5          4.2252    1.5601    6.1463 O.3       1 <0>        -0.3078
     27 C19         3.4497    1.3557    7.3291 C.3       1 <0>         0.0221
     28 O6          3.9788    3.4568   -0.6486 O.3       1 <0>        -0.5534
     29 O7          5.3461    2.6819   -3.6565 O.3       1 <0>        -0.5470
     30 H4          1.0039    1.9031    0.0027 H         1 <0>         0.0708
     31 H5         -0.5459    1.8868   -0.8726 H         1 <0>         0.0797
     32 H6         -0.5289    1.8773    0.9072 H         1 <0>         0.0648
     33 H7          1.4619   -1.2365   -0.9879 H         1 <0>         0.1008
     34 H8         -0.0172   -0.9492   -1.9309 H         1 <0>         0.0831
     35 H9          0.7985    1.3591   -2.5388 H         1 <0>         0.1164
     36 H10         3.2734    0.1369   -1.2412 H         1 <0>         0.1643
     37 H11         6.2432    1.2504   -0.6265 H         1 <0>         0.0830
     38 H12         6.9752    2.7800   -0.0845 H         1 <0>         0.0857
     39 H13         5.2989    2.9862    1.7379 H         1 <0>         0.1128
     40 H14         4.6552    0.2260    0.6308 H         1 <0>         0.1420
     41 H15         5.3612    1.7805    3.8056 H         1 <0>         0.1441
     42 H16         1.8873    0.4210    5.8951 H         1 <0>         0.1447
     43 H17        -0.0933    0.1904    3.6668 H         1 <0>         0.4007
     44 H18         2.5035    1.8894    7.2399 H         1 <0>         0.0607
     45 H19         3.2556    0.2907    7.4566 H         1 <0>         0.0615
     46 H20         3.9986    1.7309    8.1928 H         1 <0>         0.1065
     47 H21         4.1144    4.0435    0.1081 H         1 <0>         0.3819
     48 H22         5.1714    2.1527   -4.4467 H         1 <0>         0.3861
@<TRIPOS>BOND
     1    1    2 1
     2    1   30 1
     3    1   31 1
     4    1   32 1
     5    2    3 1
     6    2   24 1
     7    2    4 1
     8    4    5 1
     9    4   33 1
    10    4   34 1
    11    5    6 2
    12    5   35 1
    13    6    7 1
    14    6   36 1
    15    7    8 2
    16    7    9 1
    17    9   10 1
    18    9   11 1
    19    9   29 1
    20   11   12 1
    21   11   13 1
    22   11   28 1
    23   13   14 1
    24   13   37 1
    25   13   38 1
    26   14   15 2
    27   14   39 1
    28   15   16 1
    29   15   40 1
    30   16   21 ar
    31   16   17 ar
    32   17   18 ar
    33   17   41 1
    34   18   19 ar
    35   18   26 1
    36   19   20 ar
    37   19   42 1
    38   20   21 ar
    39   20   25 1
    40   21   22 1
    41   22   23 2
    42   22   24 1
    43   25   43 1
    44   26   27 1
    45   27   44 1
    46   27   45 1
    47   27   46 1
    48   28   47 1
    49   29   48 1
@<TRIPOS>MOLECULE
ZINC14852066
   48    49     0     0     0
SMALL
USER_CHARGES

@<TRIPOS>ATOM
      1 C1         -0.0187    1.5258    0.0104 C.3       1 <0>        -0.1782
      2 C2          0.0021   -0.0041    0.0020 C.3       1 <0>         0.1059
      3 H1         -1.0202   -0.3821    0.0097 H         1 <0>         0.1065
      4 C3          0.7214   -0.4993   -1.2571 C.3       1 <0>        -0.2337
      5 C4          0.9926    0.6676   -2.1719 C.2       1 <0>        -0.0239
      6 C5          2.2327    0.8804   -2.6274 C.2       1 <0>        -0.2524
      7 C6          3.3216   -0.0106   -2.2391 C.2       1 <0>         0.3565
      8 O1          3.0972   -0.9579   -1.5151 O.2       1 <0>        -0.3921
      9 C7          4.7243    0.2403   -2.7329 C.3       1 <0>         0.0775
     10 H2          4.6903    0.5739   -3.7700 H         1 <0>         0.0902
     11 C8          5.5353   -1.0528   -2.6394 C.3       1 <0>         0.1183
     12 H3          4.8562   -1.9036   -2.5842 H         1 <0>         0.0767
     13 C9          6.4150   -1.0217   -1.3875 C.3       1 <0>        -0.1211
     14 C10         5.7492   -1.8245   -0.2972 C.2       1 <0>        -0.1407
     15 C11         4.7118   -1.3199    0.3472 C.2       1 <0>        -0.1201
     16 C12         4.0408   -2.0709    1.4214 C.ar      1 <0>         0.0738
     17 C13         4.7005   -3.0796    2.1095 C.ar      1 <0>        -0.1758
     18 C14         4.0463   -3.7677    3.1229 C.ar      1 <0>         0.1867
     19 C15         2.7421   -3.4458    3.4552 C.ar      1 <0>        -0.2633
     20 C16         2.0660   -2.4427    2.7907 C.ar      1 <0>         0.2133
     21 C17         2.7063   -1.7502    1.7571 C.ar      1 <0>        -0.2009
     22 C18         2.0150   -0.7034    1.0028 C.2       1 <0>         0.5163
     23 O2          2.6441   -0.0218    0.2169 O.2       1 <0>        -0.4694
     24 O3          0.6975   -0.4800    1.1622 O.3       1 <0>        -0.3396
     25 O4          0.7918   -2.1312    3.1363 O.3       1 <0>        -0.4793
     26 O5          4.6885   -4.7601    3.7898 O.3       1 <0>        -0.3082
     27 C19         3.9578   -5.4273    4.8208 C.3       1 <0>         0.0226
     28 O6          6.3629   -1.1796   -3.7975 O.3       1 <0>        -0.5677
     29 O7          5.3395    1.2482   -1.9281 O.3       1 <0>        -0.5329
     30 H4          1.0039    1.9031    0.0027 H         1 <0>         0.0702
     31 H5         -0.5459    1.8868   -0.8726 H         1 <0>         0.0718
     32 H6         -0.5289    1.8773    0.9072 H         1 <0>         0.0632
     33 H7          1.6646   -0.9678   -0.9763 H         1 <0>         0.1854
     34 H8          0.0935   -1.2264   -1.7721 H         1 <0>         0.0805
     35 H9          0.1918    1.3244   -2.4742 H         1 <0>         0.1212
     36 H10         2.4263    1.7062   -3.2931 H         1 <0>         0.1283
     37 H11         7.3892   -1.4544   -1.6156 H         1 <0>         0.0742
     38 H12         6.5412    0.0090   -1.0560 H         1 <0>         0.1072
     39 H13         6.1067   -2.8144   -0.0623 H         1 <0>         0.1057
     40 H14         4.3547   -0.3298    0.0969 H         1 <0>         0.1711
     41 H15         5.7205   -3.3292    1.8570 H         1 <0>         0.1430
     42 H16         2.2456   -3.9881    4.2463 H         1 <0>         0.1411
     43 H17         0.7249   -1.4505    3.8198 H         1 <0>         0.3997
     44 H18         3.6630   -4.7055    5.5826 H         1 <0>         0.0602
     45 H19         3.0675   -5.8894    4.3943 H         1 <0>         0.0606
     46 H20         4.5854   -6.1958    5.2719 H         1 <0>         0.1057
     47 H21         6.9070   -1.9789   -3.8064 H         1 <0>         0.3845
     48 H22         4.8770    2.0973   -1.9394 H         1 <0>         0.3814
@<TRIPOS>BOND
     1    1    2 1
     2    1   30 1
     3    1   31 1
     4    1   32 1
     5    2    3 1
     6    2   24 1
     7    2    4 1
     8    4    5 1
     9    4   33 1
    10    4   34 1
    11    5    6 2
    12    5   35 1
    13    6    7 1
    14    6   36 1
    15    7    8 2
    16    7    9 1
    17    9   10 1
    18    9   11 1
    19    9   29 1
    20   11   12 1
    21   11   13 1
    22   11   28 1
    23   13   14 1
    24   13   37 1
    25   13   38 1
    26   14   15 2
    27   14   39 1
    28   15   16 1
    29   15   40 1
    30   16   21 ar
    31   16   17 ar
    32   17   18 ar
    33   17   41 1
    34   18   19 ar
    35   18   26 1
    36   19   20 ar
    37   19   42 1
    38   20   21 ar
    39   20   25 1
    40   21   22 1
    41   22   23 2
    42   22   24 1
    43   25   43 1
    44   26   27 1
    45   27   44 1
    46   27   45 1
    47   27   46 1
    48   28   47 1
    49   29   48 1
@<TRIPOS>MOLECULE
ZINC43196547
   43    45     0     0     0
SMALL
USER_CHARGES

@<TRIPOS>ATOM
      1 C1         -0.5253    1.3541    0.8149 C.3       1 <0>         0.0625
      2 N1         -0.3781   -0.0871    0.5970 N.am      1 <0>        -0.4938
      3 C2         -0.1094   -0.5399   -0.6390 C.2       1 <0>         0.5447
      4 O1          0.0057    0.2619   -1.5518 O.2       1 <0>        -0.5240
      5 C3          0.0425   -1.9026   -0.9096 C.2       1 <0>        -0.2633
      6 C4         -0.0850   -2.8249    0.1172 C.2       1 <0>         0.3023
      7 C5         -0.3773   -2.3211    1.4577 C.2       1 <0>        -0.3220
      8 C6         -0.5117   -0.9397    1.6567 C.2       1 <0>         0.4463
      9 N2         -0.7750   -0.4818    2.8882 N.2       1 <0>        -0.5528
     10 C7         -0.9030   -1.2959    3.9004 C.2       1 <0>         0.4290
     11 N3         -0.7800   -2.6380    3.7751 N.am      1 <0>        -0.5281
     12 C8         -0.5245   -3.1905    2.5670 C.2       1 <0>         0.5623
     13 O2         -0.4116   -4.3968    2.4391 O.2       1 <0>        -0.4896
     14 C9         -0.9347   -3.4972    4.9516 C.3       1 <0>         0.0583
     15 C10        -2.4030   -3.9015    5.0983 C.3       1 <0>         0.0927
     16 H1         -3.0249   -3.0068    5.1286 H         1 <0>         0.1097
     17 C11        -2.5867   -4.6945    6.3938 C.3       1 <0>         0.0475
     18 O3         -3.9747   -4.9718    6.5898 O.3       1 <0>        -0.5614
     19 O4         -2.7875   -4.7113    3.9855 O.3       1 <0>        -0.5405
     20 N4          0.0592   -4.1772   -0.1190 N.pl3     1 <0>        -0.6738
     21 C12         1.1212   -4.8794    0.4613 C.ar      1 <0>         0.2311
     22 C13         2.1034   -4.1974    1.1668 C.ar      1 <0>        -0.1527
     23 C14         3.1509   -4.8931    1.7387 C.ar      1 <0>        -0.0482
     24 C15         3.2232   -6.2684    1.6092 C.ar      1 <0>        -0.1243
     25 C16         2.2473   -6.9525    0.9069 C.ar      1 <0>        -0.0749
     26 C17         1.1924   -6.2629    0.3375 C.ar      1 <0>         0.0474
     27 F1          0.2357   -6.9314   -0.3429 F         1 <0>        -0.1345
     28 I1          4.8146   -7.3178    2.4782 I         1 <0>        -0.0350
     29 H2          0.4460    1.7862    1.0560 H         1 <0>         0.0783
     30 H3         -0.9159    1.8204   -0.0896 H         1 <0>         0.0954
     31 H4         -1.2154    1.5282    1.6405 H         1 <0>         0.0975
     32 H5          0.2579   -2.2355   -1.9142 H         1 <0>         0.1635
     33 H6         -1.1150   -0.8827    4.8755 H         1 <0>         0.2173
     34 H7         -0.3220   -4.3908    4.8320 H         1 <0>         0.1133
     35 H8         -0.6165   -2.9549    5.8419 H         1 <0>         0.1127
     36 H9         -2.0347   -5.6320    6.3272 H         1 <0>         0.0546
     37 H10        -2.2107   -4.1104    7.2337 H         1 <0>         0.0594
     38 H11        -4.1658   -5.4732    7.3943 H         1 <0>         0.3850
     39 H12        -2.2747   -5.5263    3.8963 H         1 <0>         0.3812
     40 H13        -0.5758   -4.6407   -0.6872 H         1 <0>         0.4224
     41 H14         2.0487   -3.1235    1.2682 H         1 <0>         0.1293
     42 H15         3.9148   -4.3623    2.2874 H         1 <0>         0.1331
     43 H16         2.3067   -8.0262    0.8072 H         1 <0>         0.1420
@<TRIPOS>BOND
     1    1    2 1
     2    1   29 1
     3    1   30 1
     4    1   31 1
     5    2    8 1
     6    2    3 am
     7    3    4 2
     8    3    5 1
     9    5    6 2
    10    5   32 1
    11    6    7 1
    12    6   20 1
    13    7   12 1
    14    7    8 2
    15    8    9 1
    16    9   10 2
    17   10   11 1
    18   10   33 1
    19   11   12 am
    20   11   14 1
    21   12   13 2
    22   14   15 1
    23   14   34 1
    24   14   35 1
    25   15   16 1
    26   15   17 1
    27   15   19 1
    28   17   18 1
    29   17   36 1
    30   17   37 1
    31   18   38 1
    32   19   39 1
    33   20   21 1
    34   20   40 1
    35   21   26 ar
    36   21   22 ar
    37   22   23 ar
    38   22   41 1
    39   23   24 ar
    40   23   42 1
    41   24   25 ar
    42   24   28 1
    43   25   26 ar
    44   25   43 1
    45   26   27 1
@<TRIPOS>MOLECULE
ZINC03938688
   39    41     0     0     0
SMALL
USER_CHARGES

@<TRIPOS>ATOM
      1 C1         -0.0095    1.3826    0.0704 C.ar      1 <0>        -0.0343
      2 C2          0.5587    1.0580   -1.1482 C.ar      1 <0>        -0.1609
      3 C3          1.7655    0.3862   -1.1955 C.ar      1 <0>         0.1753
      4 C4          2.4129    0.0342   -0.0053 C.ar      1 <0>        -0.1954
      5 C5          1.8304    0.3669    1.2233 C.ar      1 <0>         0.1741
      6 C6          0.6231    1.0388    1.2514 C.ar      1 <0>        -0.1610
      7 F1          2.4463    0.0317    2.3781 F         1 <0>        -0.1212
      8 C7          3.6999   -0.6827   -0.0456 C.2       1 <0>         0.6210
      9 O1          4.7383   -0.0615   -0.1600 O.2       1 <0>        -0.4669
     10 N1          3.7255   -2.0272    0.0446 N.am      1 <0>        -0.3962
     11 C8          4.8314   -2.8210    0.1249 C.2       1 <0>         0.5948
     12 N2          4.4249   -4.0694    0.1979 N.2       1 <0>        -0.5873
     13 C9          3.0869   -4.1118    0.1675 C.2       1 <0>         0.5191
     14 N3          2.6183   -2.8904    0.0808 N.2       1 <0>        -0.3480
     15 N4          2.3148   -5.2702    0.2247 N.pl3     1 <0>        -0.6226
     16 C10         2.9267   -6.5079    0.4407 C.ar      1 <0>         0.2365
     17 C11         4.1432   -6.5760    1.1080 C.ar      1 <0>        -0.1584
     18 C12         4.7450   -7.8008    1.3202 C.ar      1 <0>         0.0098
     19 C13         4.1379   -8.9586    0.8692 C.ar      1 <0>        -0.7033
     20 C14         2.9269   -8.8944    0.2046 C.ar      1 <0>         0.0112
     21 C15         2.3170   -7.6734   -0.0063 C.ar      1 <0>        -0.1777
     22 S1          4.9094  -10.5191    1.1415 S.o2      1 <0>         2.7034
     23 O2          4.4084  -11.3993    0.1448 O.2       1 <0>        -0.9656
     24 O3          6.2977  -10.2630    1.3036 O.2       1 <0>        -0.9650
     25 N5          4.3605  -11.0895    2.5960 N.pl3     1 <0>        -1.2510
     26 N6          6.1422   -2.3912    0.1281 N.pl3     1 <0>        -0.7911
     27 F2          2.3185    0.0697   -2.3868 F         1 <0>        -0.1201
     28 H1         -0.9506    1.9116    0.0998 H         1 <0>         0.1546
     29 H2          0.0576    1.3300   -2.0654 H         1 <0>         0.1549
     30 H3          0.1721    1.2963    2.1984 H         1 <0>         0.1546
     31 H4          1.3525   -5.2176    0.1147 H         1 <0>         0.4325
     32 H5          4.6180   -5.6722    1.4601 H         1 <0>         0.1556
     33 H6          5.6909   -7.8544    1.8385 H         1 <0>         0.1456
     34 H7          2.4556   -9.8005   -0.1466 H         1 <0>         0.1475
     35 H8          1.3691   -7.6243   -0.5215 H         1 <0>         0.1387
     36 H9          3.7284  -10.5673    3.1145 H         1 <0>         0.4165
     37 H10         4.6709  -11.9458    2.9296 H         1 <0>         0.4206
     38 H11         6.3422   -1.4439    0.0694 H         1 <0>         0.4292
     39 H12         6.8640   -3.0364    0.1890 H         1 <0>         0.4303
@<TRIPOS>BOND
     1    1    6 ar
     2    1    2 ar
     3    1   28 1
     4    2    3 ar
     5    2   29 1
     6    3    4 ar
     7    3   27 1
     8    4    5 ar
     9    4    8 1
    10    5    6 ar
    11    5    7 1
    12    6   30 1
    13    8    9 2
    14    8   10 am
    15   10   14 1
    16   10   11 1
    17   11   12 2
    18   11   26 1
    19   12   13 1
    20   13   14 2
    21   13   15 1
    22   15   16 1
    23   15   31 1
    24   16   21 ar
    25   16   17 ar
    26   17   18 ar
    27   17   32 1
    28   18   19 ar
    29   18   33 1
    30   19   20 ar
    31   19   22 1
    32   20   21 ar
    33   20   34 1
    34   21   35 1
    35   22   23 2
    36   22   24 2
    37   22   25 1
    38   25   36 1
    39   25   37 1
    40   26   38 1
    41   26   39 1
@<TRIPOS>MOLECULE
ZINC00457646
   43    46     0     0     0
SMALL
USER_CHARGES
(3-benzyl-4-methyl-2-oxo-chromen-7-yl) cyclopropanecarboxylate
@<TRIPOS>ATOM
      1 C1         -1.4500    3.6139   -0.1473 C.3       1 <0>        -0.1327
      2 C2         -1.3173    2.1166   -0.0390 C.2       1 <0>         0.0292
      3 C3         -0.0012    1.4743   -0.0646 C.ar      1 <0>        -0.1443
      4 C4          1.1687    2.2330   -0.1848 C.ar      1 <0>        -0.0397
      5 C5          2.3826    1.6095   -0.2012 C.ar      1 <0>        -0.1439
      6 C6          2.4651    0.2223   -0.0981 C.ar      1 <0>         0.1408
      7 C7          1.3177   -0.5440    0.0219 C.ar      1 <0>        -0.1332
      8 C8          0.0757    0.0732    0.0398 C.ar      1 <0>         0.1619
      9 O1         -1.0553   -0.6552    0.1565 O.3       1 <0>        -0.2671
     10 C9         -2.2646   -0.0733    0.1759 C.2       1 <0>         0.5172
     11 O2         -3.2571   -0.7709    0.2829 O.2       1 <0>        -0.4524
     12 C10        -2.4153    1.3255    0.0761 C.2       1 <0>        -0.2098
     13 C11        -3.7906    1.9410    0.1027 C.3       1 <0>        -0.0246
     14 C12        -4.3619    1.9547   -1.2918 C.ar      1 <0>        -0.0828
     15 C13        -4.2308    3.0818   -2.0813 C.ar      1 <0>        -0.1173
     16 C14        -4.7506    3.0927   -3.3622 C.ar      1 <0>        -0.1213
     17 C15        -5.4102    1.9800   -3.8499 C.ar      1 <0>        -0.1207
     18 C16        -5.5463    0.8550   -3.0582 C.ar      1 <0>        -0.1188
     19 C17        -5.0219    0.8423   -1.7793 C.ar      1 <0>        -0.1074
     20 O3          3.6805   -0.3832   -0.1159 O.3       1 <0>        -0.2856
     21 C18         4.4749   -0.1874    0.9490 C.2       1 <0>         0.4923
     22 O4          4.0587    0.4140    1.9107 O.2       1 <0>        -0.4816
     23 C19         5.8854   -0.7179    0.9445 C.3       1 <0>        -0.1734
     24 C20         6.2097   -1.8704    1.8971 C.3       1 <0>        -0.1456
     25 C21         6.7395   -0.4641    2.1883 C.3       1 <0>        -0.1424
     26 H1         -1.6437    3.8874   -1.1844 H         1 <0>         0.0940
     27 H2         -2.2766    3.9515    0.4780 H         1 <0>         0.0898
     28 H3         -0.5258    4.0856    0.1864 H         1 <0>         0.0814
     29 H4          1.1110    3.3084   -0.2651 H         1 <0>         0.1501
     30 H5          3.2853    2.1951   -0.2946 H         1 <0>         0.1411
     31 H6          1.3899   -1.6186    0.1017 H         1 <0>         0.1548
     32 H7         -4.4383    1.3552    0.7549 H         1 <0>         0.0940
     33 H8         -3.7244    2.9621    0.4783 H         1 <0>         0.0926
     34 H9         -3.7190    3.9526   -1.6989 H         1 <0>         0.1212
     35 H10        -4.6447    3.9718   -3.9805 H         1 <0>         0.1221
     36 H11        -5.8196    1.9898   -4.8492 H         1 <0>         0.1214
     37 H12        -6.0619   -0.0142   -3.4391 H         1 <0>         0.1225
     38 H13        -5.1282   -0.0367   -1.1608 H         1 <0>         0.1294
     39 H14         6.3886   -0.7073   -0.0223 H         1 <0>         0.1423
     40 H15         5.4029   -2.2449    2.5271 H         1 <0>         0.1044
     41 H16         6.9266   -2.6178    1.5571 H         1 <0>         0.1157
     42 H17         7.8047   -0.2869    2.0397 H         1 <0>         0.1147
     43 H18         6.2814    0.0869    3.0096 H         1 <0>         0.1117
@<TRIPOS>BOND
     1    1    2 1
     2    1   26 1
     3    1   27 1
     4    1   28 1
     5    2   12 2
     6    2    3 1
     7    3    8 ar
     8    3    4 ar
     9    4    5 ar
    10    4   29 1
    11    5    6 ar
    12    5   30 1
    13    6    7 ar
    14    6   20 1
    15    7    8 ar
    16    7   31 1
    17    8    9 1
    18    9   10 1
    19   10   11 2
    20   10   12 1
    21   12   13 1
    22   13   14 1
    23   13   32 1
    24   13   33 1
    25   14   19 ar
    26   14   15 ar
    27   15   16 ar
    28   15   34 1
    29   16   17 ar
    30   16   35 1
    31   17   18 ar
    32   17   36 1
    33   18   19 ar
    34   18   37 1
    35   19   38 1
    36   20   21 1
    37   21   22 2
    38   21   23 1
    39   23   25 1
    40   23   24 1
    41   23   39 1
    42   24   25 1
    43   24   40 1
    44   24   41 1
    45   25   42 1
    46   25   43 1
@<TRIPOS>MOLECULE
ZINC15924361
   21    22     0     0     0
SMALL
USER_CHARGES

@<TRIPOS>ATOM
      1 C1         -0.1542    1.0175   -0.6001 C.ar      1 <0>        -0.1504
      2 C2          0.9423    1.8396   -0.4145 C.ar      1 <0>        -0.0928
      3 C3          2.1954    1.2902   -0.2271 C.ar      1 <0>        -0.1560
      4 C4          2.3537   -0.0900   -0.2252 C.ar      1 <0>         0.1695
      5 C5          1.2500   -0.9129   -0.4119 C.ar      1 <0>        -0.1537
      6 C6         -0.0001   -0.3568   -0.5988 C.ar      1 <0>        -0.0844
      7 N1          3.6202   -0.6493   -0.0363 N.pl3     1 <0>        -0.6289
      8 C7          3.7530   -1.8462    0.6428 C.2       1 <0>         0.1037
      9 C8          4.9022   -2.6172    0.8301 C.2       1 <0>        -0.2577
     10 C9          4.6964   -3.7851    1.5726 C.2       1 <0>         0.4258
     11 O1          5.7162   -4.6410    1.8414 O.3       1 <0>        -0.7013
     12 N2          3.4831   -4.0183    1.9970 N.2       1 <0>        -0.5835
     13 S1          2.5748   -2.7258    1.4506 S.3       1 <0>         0.2316
     14 C10         6.1819   -2.2445    0.3066 C.1       1 <0>         0.3218
     15 N3          7.1971   -1.9489   -0.1087 N.1       1 <0>        -0.4886
     16 H1         -1.1337    1.4497   -0.7420 H         1 <0>         0.1204
     17 H2          0.8185    2.9124   -0.4165 H         1 <0>         0.1227
     18 H3          3.0513    1.9328   -0.0826 H         1 <0>         0.1232
     19 H4          1.3697   -1.9863   -0.4113 H         1 <0>         0.1393
     20 H5         -0.8586   -0.9959   -0.7437 H         1 <0>         0.1269
     21 H6          4.4062   -0.1978   -0.3817 H         1 <0>         0.4123
@<TRIPOS>BOND
     1    1    6 ar
     2    1    2 ar
     3    1   16 1
     4    2    3 ar
     5    2   17 1
     6    3    4 ar
     7    3   18 1
     8    4    5 ar
     9    4    7 1
    10    5    6 ar
    11    5   19 1
    12    6   20 1
    13    7    8 1
    14    7   21 1
    15    8   13 1
    16    8    9 2
    17    9   10 1
    18    9   14 1
    19   10   11 1
    20   10   12 2
    21   12   13 1
    22   14   15 3
@<TRIPOS>MOLECULE
ZINC12504479
   39    42     0     0     0
SMALL
USER_CHARGES
tert-butyl-fluoro-BLAHone
@<TRIPOS>ATOM
      1 C1          0.0306    7.5665   -1.3573 C.3       1 <0>        -0.1435
      2 C2         -0.0131    6.9316    0.0341 C.3       1 <0>         0.0141
      3 C3         -1.4663    6.6486    0.4201 C.3       1 <0>        -0.1303
      4 C4          0.6075    7.8907    1.0520 C.3       1 <0>        -0.1484
      5 C5          0.7640    5.6405    0.0218 C.2       1 <0>         0.2640
      6 N1          2.1200    5.5432    0.0086 N.pl3     1 <0>        -0.5660
      7 H1          2.7692    6.3038    0.0059 H         1 <0>         0.4300
      8 C6          2.4322    4.2055   -0.0004 C.ar      1 <0>         0.0707
      9 C7          3.6945    3.4726   -0.0160 C.ar      1 <0>        -0.0387
     10 C8          4.9179    4.1553   -0.0241 C.ar      1 <0>        -0.0830
     11 C9          6.0889    3.4567   -0.0382 C.ar      1 <0>        -0.1479
     12 C10         6.0877    2.0644   -0.0451 C.ar      1 <0>         0.1067
     13 C11         4.9015    1.3651   -0.0371 C.ar      1 <0>        -0.1434
     14 C12         3.6874    2.0596   -0.0226 C.ar      1 <0>         0.0348
     15 C13         2.4115    1.3424   -0.0138 C.ar      1 <0>        -0.1820
     16 C14         1.2049    2.0599    0.0016 C.ar      1 <0>         0.1180
     17 C15         1.2195    3.5214    0.0080 C.ar      1 <0>         0.0317
     18 N2          0.2386    4.4495    0.0214 N.2       1 <0>        -0.4565
     19 C16        -0.0162    1.3425    0.0094 C.2       1 <0>        -0.2034
     20 C17         0.0021   -0.0041    0.0020 C.2       1 <0>         0.1350
     21 N3          1.1742   -0.7011   -0.0125 N.am      1 <0>        -0.6142
     22 H2          1.1491   -1.6708   -0.0168 H         1 <0>         0.4195
     23 C18         2.3662   -0.0731   -0.0205 C.2       1 <0>         0.5428
     24 O1          3.3998   -0.7196   -0.0338 O.2       1 <0>        -0.5363
     25 F1          7.2604    1.3938   -0.0600 F         1 <0>        -0.1343
     26 H3         -0.4115    6.8833   -2.0824 H         1 <0>         0.0650
     27 H4         -0.5315    8.5004   -1.3483 H         1 <0>         0.0730
     28 H5          1.0659    7.7682   -1.6323 H         1 <0>         0.0547
     29 H6         -1.4974    6.1963    1.4114 H         1 <0>         0.0620
     30 H7         -2.0283    7.5824    0.4291 H         1 <0>         0.0642
     31 H8         -1.9084    5.9653   -0.3050 H         1 <0>         0.0701
     32 H9          1.6428    8.0923    0.7770 H         1 <0>         0.0535
     33 H10         0.0454    8.8245    1.0609 H         1 <0>         0.0757
     34 H11         0.5764    7.4384    2.0432 H         1 <0>         0.0638
     35 H12         4.9335    5.2351   -0.0195 H         1 <0>         0.1298
     36 H13         7.0282    3.9897   -0.0443 H         1 <0>         0.1393
     37 H14         4.9085    0.2852   -0.0418 H         1 <0>         0.1812
     38 H15        -0.9571    1.8725    0.0168 H         1 <0>         0.1577
     39 H16        -0.9330   -0.5444    0.0080 H         1 <0>         0.1706
@<TRIPOS>BOND
     1    1    2 1
     2    1   26 1
     3    1   27 1
     4    1   28 1
     5    2    3 1
     6    2    4 1
     7    2    5 1
     8    3   29 1
     9    3   30 1
    10    3   31 1
    11    4   32 1
    12    4   33 1
    13    4   34 1
    14    5   18 2
    15    5    6 1
    16    6    7 1
    17    6    8 1
    18    8   17 ar
    19    8    9 ar
    20    9   14 ar
    21    9   10 ar
    22   10   11 ar
    23   10   35 1
    24   11   12 ar
    25   11   36 1
    26   12   13 ar
    27   12   25 1
    28   13   14 ar
    29   13   37 1
    30   14   15 ar
    31   15   23 1
    32   15   16 ar
    33   16   17 ar
    34   16   19 1
    35   17   18 1
    36   19   20 2
    37   19   38 1
    38   20   21 1
    39   20   39 1
    40   21   22 1
    41   21   23 am
    42   23   24 2
@<TRIPOS>MOLECULE
ZINC03834198
   55    58     0     0     0
SMALL
USER_CHARGES

@<TRIPOS>ATOM
      1 C1          2.2102    1.3214   -1.5438 C.3       1 <0>        -0.0473
      2 N1          2.0302   -0.1310   -1.4177 N.4       1 <0>        -0.3861
      3 C2          2.8485   -0.8135   -2.4272 C.3       1 <0>        -0.0039
      4 C3          2.6029   -2.3220   -2.3537 C.3       1 <0>        -0.1426
      5 C4          2.9828   -2.8281   -0.9591 C.3       1 <0>        -0.0980
      6 C5          2.1768   -2.0570    0.0901 C.3       1 <0>        -0.1436
      7 C6          2.4382   -0.5583   -0.0740 C.3       1 <0>        -0.0065
      8 C7          2.6653   -4.3210   -0.8526 C.3       1 <0>         0.0553
      9 O1          3.1265   -4.8175    0.4056 O.3       1 <0>        -0.2959
     10 C8          2.9210   -6.1358    0.6612 C.ar      1 <0>         0.1621
     11 C9          2.2972   -6.9233   -0.2811 C.ar      1 <0>        -0.1791
     12 C10         2.0867   -8.2816   -0.0149 C.ar      1 <0>         0.2018
     13 C11         2.5192   -8.8246    1.2204 C.ar      1 <0>        -0.1784
     14 C12         3.1508   -8.0026    2.1612 C.ar      1 <0>        -0.1424
     15 C13         3.3512   -6.6812    1.8787 C.ar      1 <0>         0.1099
     16 O2          3.9702   -5.8850    2.7909 O.3       1 <0>        -0.3030
     17 C14         4.3854   -6.4992    4.0125 C.3       1 <0>         0.0198
     18 C15         2.2930  -10.2009    1.4605 C.ar      1 <0>         0.4667
     19 N2          1.6881  -10.9114    0.5174 N.ar      1 <0>        -0.5768
     20 C16         1.3012  -10.3606   -0.6222 C.ar      1 <0>         0.3478
     21 N3          1.4842   -9.0917   -0.8996 N.ar      1 <0>        -0.5414
     22 N4          2.6915  -10.7885    2.6441 N.pl3     1 <0>        -0.6296
     23 C17         2.5831  -12.1741    2.8088 C.ar      1 <0>         0.1376
     24 C18         2.4560  -12.9987    1.6992 C.ar      1 <0>        -0.1039
     25 C19         2.3491  -14.3660    1.8644 C.ar      1 <0>        -0.0732
     26 C20         2.3685  -14.9152    3.1341 C.ar      1 <0>        -0.0857
     27 C21         2.4949  -14.0974    4.2430 C.ar      1 <0>        -0.1007
     28 C22         2.6081  -12.7284    4.0841 C.ar      1 <0>         0.0686
     29 F1          2.7372  -11.9301    5.1664 F         1 <0>        -0.1332
     30 Br1         2.2212  -16.7875    3.3546 Br        1 <0>        -0.0295
     31 H1          3.2589    1.5727   -1.3848 H         1 <0>         0.1219
     32 H2          1.9075    1.6398   -2.5414 H         1 <0>         0.1242
     33 H3          1.5979    1.8295   -0.7989 H         1 <0>         0.1242
     34 H4          2.5792   -0.4499   -3.4189 H         1 <0>         0.1343
     35 H5          3.9024   -0.6078   -2.2397 H         1 <0>         0.1306
     36 H6          1.5493   -2.5288   -2.5414 H         1 <0>         0.0934
     37 H7          3.2127   -2.8271   -3.1028 H         1 <0>         0.1176
     38 H8          4.0478   -2.6678   -0.7908 H         1 <0>         0.1030
     39 H9          1.1143   -2.2583   -0.0469 H         1 <0>         0.0893
     40 H10         2.4820   -2.3726    1.0878 H         1 <0>         0.1210
     41 H11         3.5008   -0.3580    0.0634 H         1 <0>         0.1299
     42 H12         1.8660   -0.0063    0.6716 H         1 <0>         0.1325
     43 H13         1.5883   -4.4698   -0.9292 H         1 <0>         0.0742
     44 H14         3.1645   -4.8571   -1.6597 H         1 <0>         0.0787
     45 H15         1.9724   -6.4960   -1.2182 H         1 <0>         0.1540
     46 H16         3.4818   -8.4122    3.1042 H         1 <0>         0.1414
     47 H17         4.8638   -5.7549    4.6491 H         1 <0>         0.1093
     48 H18         3.5165   -6.9116    4.5254 H         1 <0>         0.0597
     49 H19         5.0925   -7.2996    3.7947 H         1 <0>         0.0600
     50 H20         0.8133  -10.9840   -1.3569 H         1 <0>         0.2036
     51 H21         3.0467  -10.2411    3.3618 H         1 <0>         0.4241
     52 H22         2.4404  -12.5714    0.7074 H         1 <0>         0.1818
     53 H23         2.2499  -15.0072    1.0010 H         1 <0>         0.1463
     54 H24         2.5094  -14.5289    5.2329 H         1 <0>         0.1515
     55 H25         1.0589   -0.3624   -1.5626 H         1 <0>         0.4246
@<TRIPOS>BOND
     1    1    2 1
     2    1   31 1
     3    1   32 1
     4    1   33 1
     5    2    7 1
     6    2    3 1
     7    2   55 1
     8    3    4 1
     9    3   34 1
    10    3   35 1
    11    4    5 1
    12    4   36 1
    13    4   37 1
    14    5    6 1
    15    5    8 1
    16    5   38 1
    17    6    7 1
    18    6   39 1
    19    6   40 1
    20    7   41 1
    21    7   42 1
    22    8    9 1
    23    8   43 1
    24    8   44 1
    25    9   10 1
    26   10   15 ar
    27   10   11 ar
    28   11   12 ar
    29   11   45 1
    30   12   21 ar
    31   12   13 ar
    32   13   14 ar
    33   13   18 ar
    34   14   15 ar
    35   14   46 1
    36   15   16 1
    37   16   17 1
    38   17   47 1
    39   17   48 1
    40   17   49 1
    41   18   19 ar
    42   18   22 1
    43   19   20 ar
    44   20   21 ar
    45   20   50 1
    46   22   23 1
    47   22   51 1
    48   23   28 ar
    49   23   24 ar
    50   24   25 ar
    51   24   52 1
    52   25   26 ar
    53   25   53 1
    54   26   27 ar
    55   26   30 1
    56   27   28 ar
    57   27   54 1
    58   28   29 1
@<TRIPOS>MOLECULE
ZINC17836932
   28    30     0     0     0
SMALL
USER_CHARGES

@<TRIPOS>ATOM
      1 C1         -0.0169    1.3979    0.0097 C.2       1 <0>        -0.1853
      2 C2          1.2697    1.8211   -0.0003 C.2       1 <0>         0.0002
      3 N1          2.1027    0.7421   -0.0039 N.pl3     1 <0>        -0.5131
      4 H1          3.0718    0.7768   -0.0265 H         1 <0>         0.4179
      5 C3          1.3532   -0.3880    0.0293 C.2       1 <0>        -0.0595
      6 C4          0.0021   -0.0041    0.0020 C.2       1 <0>        -0.0520
      7 C5         -1.0943   -0.9739   -0.0791 C.2       1 <0>        -0.1071
      8 C6         -1.9967   -1.1126    0.9290 C.2       1 <0>         0.0917
      9 C7         -3.1333   -2.0409    0.9857 C.2       1 <0>         0.4671
     10 O1         -3.4883   -2.9333    0.0339 O.3       1 <0>        -0.6411
     11 N2         -3.7419   -1.8425    2.1354 N.2       1 <0>        -0.6216
     12 C8         -3.1225   -0.8813    2.8371 C.2       1 <0>         0.5790
     13 N3         -2.0365   -0.4063    2.1342 N.pl3     1 <0>        -0.7300
     14 N4         -3.4935   -0.4588    4.0222 N.2       1 <0>        -0.7933
     15 C9         -1.1768   -1.8152   -1.3382 C.3       1 <0>        -0.0886
     16 C10         0.2355   -2.2351   -1.7564 C.3       1 <0>         0.1190
     17 N5          1.0531   -2.6907   -0.6424 N.am      1 <0>        -0.7102
     18 C11         1.7353   -1.8032    0.1271 C.2       1 <0>         0.6046
     19 O2          2.6289   -2.1665    0.8693 O.2       1 <0>        -0.5478
     20 H2         -0.8960    2.0251    0.0255 H         1 <0>         0.1414
     21 H3          1.5865    2.8536   -0.0047 H         1 <0>         0.1693
     22 H4         -1.4202    0.2861    2.4198 H         1 <0>         0.4015
     23 H5         -2.9917    0.2428    4.4660 H         1 <0>         0.3149
     24 H6         -1.7784   -2.7032   -1.1441 H         1 <0>         0.1113
     25 H7         -1.6347   -1.2315   -2.1368 H         1 <0>         0.0784
     26 H8          0.1592   -3.0406   -2.4868 H         1 <0>         0.0824
     27 H9          0.7284   -1.3847   -2.2274 H         1 <0>         0.0658
     28 H10         1.1115   -3.6389   -0.4469 H         1 <0>         0.4052
@<TRIPOS>BOND
     1    1    6 1
     2    1    2 2
     3    1   20 1
     4    2    3 1
     5    2   21 1
     6    3    4 1
     7    3    5 1
     8    5   18 1
     9    5    6 2
    10    6    7 1
    11    7    8 2
    12    7   15 1
    13    8   13 1
    14    8    9 1
    15    9   10 1
    16    9   11 2
    17   11   12 1
    18   12   13 1
    19   12   14 2
    20   13   22 1
    21   14   23 1
    22   15   16 1
    23   15   24 1
    24   15   25 1
    25   16   17 1
    26   16   26 1
    27   16   27 1
    28   17   18 am
    29   17   28 1
    30   18   19 2
@<TRIPOS>MOLECULE
ZINC17836932
   29    31     0     0     0
SMALL
USER_CHARGES

@<TRIPOS>ATOM
      1 C1         -0.0169    1.3974    0.0097 C.2       1 <0>        -0.1750
      2 C2          1.2702    1.8202   -0.0003 C.2       1 <0>         0.0117
      3 N1          2.1021    0.7407   -0.0039 N.pl3     1 <0>        -0.5030
      4 H1          3.0712    0.7746   -0.0262 H         1 <0>         0.4262
      5 C3          1.3523   -0.3881    0.0294 C.2       1 <0>        -0.0307
      6 C4          0.0021   -0.0041    0.0020 C.2       1 <0>        -0.1099
      7 C5         -1.0954   -0.9746   -0.0792 C.2       1 <0>         0.0238
      8 C6         -1.9958   -1.1127    0.9263 C.2       1 <0>        -0.0099
      9 C7         -3.1409   -2.0437    0.9898 C.2       1 <0>         0.5395
     10 O1         -3.4737   -2.8538    0.1403 O.2       1 <0>        -0.4718
     11 N2         -3.7411   -1.8205    2.1670 N.2       1 <0>        -0.6438
     12 C8         -3.1131   -0.8750    2.8320 C.2       1 <0>         0.6555
     13 N3         -2.0413   -0.4096    2.1336 N.pl3     1 <0>        -0.6639
     14 N4         -3.4857   -0.4219    4.0677 N.pl3     1 <0>        -0.8053
     15 C9         -1.1779   -1.8161   -1.3382 C.3       1 <0>        -0.1059
     16 C10         0.2344   -2.2364   -1.7561 C.3       1 <0>         0.1151
     17 N5          1.0518   -2.6919   -0.6420 N.am      1 <0>        -0.7155
     18 C11         1.7342   -1.8045    0.1274 C.2       1 <0>         0.5968
     19 O2          2.6276   -2.1680    0.8695 O.2       1 <0>        -0.5284
     20 H2         -0.8959    2.0248    0.0255 H         1 <0>         0.1476
     21 H3          1.5877    2.8525   -0.0051 H         1 <0>         0.1779
     22 H4         -1.4251    0.2828    2.4195 H         1 <0>         0.4256
     23 H5         -4.2600   -0.8028    4.5107 H         1 <0>         0.4329
     24 H6         -1.7797   -2.7039   -1.1440 H         1 <0>         0.1072
     25 H7         -1.6356   -1.2324   -2.1370 H         1 <0>         0.1042
     26 H8          0.1580   -3.0419   -2.4864 H         1 <0>         0.0956
     27 H9          0.7275   -1.3860   -2.2271 H         1 <0>         0.0765
     28 H10         1.1098   -3.6401   -0.4462 H         1 <0>         0.4103
     29 H11        -2.9756    0.2802    4.5009 H         1 <0>         0.4166
@<TRIPOS>BOND
     1    1    6 1
     2    1    2 2
     3    1   20 1
     4    2    3 1
     5    2   21 1
     6    3    4 1
     7    3    5 1
     8    5   18 1
     9    5    6 2
    10    6    7 1
    11    7    8 2
    12    7   15 1
    13    8   13 1
    14    8    9 1
    15    9   10 2
    16    9   11 1
    17   11   12 2
    18   12   13 1
    19   12   14 1
    20   13   22 1
    21   14   23 1
    22   14   29 1
    23   15   16 1
    24   15   24 1
    25   15   25 1
    26   16   17 1
    27   16   26 1
    28   16   27 1
    29   17   18 am
    30   17   28 1
    31   18   19 2
@<TRIPOS>MOLECULE
ZINC17836932
   28    30     0     0     0
SMALL
USER_CHARGES

@<TRIPOS>ATOM
      1 C1         -0.0169    1.3974    0.0097 C.2       1 <0>        -0.1837
      2 C2          1.2702    1.8202   -0.0003 C.2       1 <0>         0.0004
      3 N1          2.1021    0.7407   -0.0039 N.pl3     1 <0>        -0.5128
      4 H1          3.0712    0.7746   -0.0262 H         1 <0>         0.4175
      5 C3          1.3523   -0.3881    0.0294 C.2       1 <0>        -0.0610
      6 C4          0.0021   -0.0041    0.0020 C.2       1 <0>        -0.0505
      7 C5         -1.0954   -0.9746   -0.0792 C.2       1 <0>        -0.1179
      8 C6         -1.9958   -1.1127    0.9263 C.2       1 <0>         0.0730
      9 C7         -3.1409   -2.0437    0.9898 C.2       1 <0>         0.5128
     10 O1         -3.4737   -2.8538    0.1403 O.2       1 <0>        -0.5599
     11 N2         -3.7411   -1.8205    2.1670 N.2       1 <0>        -0.7181
     12 C8         -3.1131   -0.8750    2.8320 C.2       1 <0>         0.5699
     13 N3         -2.0413   -0.4096    2.1336 N.pl3     1 <0>        -0.6706
     14 N4         -3.4857   -0.4219    4.0677 N.2       1 <0>        -0.8565
     15 C9         -1.1779   -1.8161   -1.3382 C.3       1 <0>        -0.0822
     16 C10         0.2344   -2.2364   -1.7561 C.3       1 <0>         0.1194
     17 N5          1.0518   -2.6919   -0.6420 N.am      1 <0>        -0.7119
     18 C11         1.7342   -1.8045    0.1274 C.2       1 <0>         0.6056
     19 O2          2.6276   -2.1680    0.8695 O.2       1 <0>        -0.5464
     20 H2         -0.8959    2.0248    0.0255 H         1 <0>         0.1421
     21 H3          1.5877    2.8525   -0.0051 H         1 <0>         0.1694
     22 H4         -1.4251    0.2828    2.4195 H         1 <0>         0.4081
     23 H5         -1.7797   -2.7039   -1.1440 H         1 <0>         0.0999
     24 H6         -1.6356   -1.2324   -2.1370 H         1 <0>         0.0788
     25 H7          0.1580   -3.0419   -2.4864 H         1 <0>         0.0818
     26 H8          0.7275   -1.3860   -2.2271 H         1 <0>         0.0677
     27 H9          1.1098   -3.6401   -0.4462 H         1 <0>         0.4045
     28 H10        -4.2600   -0.8028    4.5107 H         1 <0>         0.3206
@<TRIPOS>BOND
     1    1    6 1
     2    1    2 2
     3    1   20 1
     4    2    3 1
     5    2   21 1
     6    3    4 1
     7    3    5 1
     8    5   18 1
     9    5    6 2
    10    6    7 1
    11    7    8 2
    12    7   15 1
    13    8   13 1
    14    8    9 1
    15    9   10 2
    16    9   11 1
    17   11   12 2
    18   12   13 1
    19   12   14 1
    20   13   22 1
    21   14   28 1
    22   15   16 1
    23   15   23 1
    24   15   24 1
    25   16   17 1
    26   16   25 1
    27   16   26 1
    28   17   18 am
    29   17   27 1
    30   18   19 2
@<TRIPOS>MOLECULE
ZINC17836932
   29    31     0     0     0
SMALL
USER_CHARGES

@<TRIPOS>ATOM
      1 C1         -0.0169    1.3974    0.0097 C.2       1 <0>        -0.1473
      2 C2          1.2702    1.8202   -0.0003 C.2       1 <0>         0.0092
      3 N1          2.1021    0.7407   -0.0039 N.pl3     1 <0>        -0.5042
      4 H1          3.0712    0.7746   -0.0262 H         1 <0>         0.4240
      5 C3          1.3523   -0.3881    0.0294 C.2       1 <0>        -0.0387
      6 C4          0.0021   -0.0041    0.0020 C.2       1 <0>        -0.0851
      7 C5         -1.0954   -0.9746   -0.0792 C.2       1 <0>         0.0169
      8 C6         -1.9958   -1.1127    0.9263 C.2       1 <0>        -0.0073
      9 C7         -2.0476   -0.3653    2.1993 C.2       1 <0>         0.5339
     10 O1         -1.2818    0.5113    2.5652 O.2       1 <0>        -0.4536
     11 N2         -3.1040   -0.8424    2.8719 N.2       1 <0>        -0.6434
     12 C8         -3.7052   -1.7839    2.1771 C.2       1 <0>         0.6538
     13 N3         -3.0830   -1.9895    0.9838 N.pl3     1 <0>        -0.6697
     14 N4         -4.8150   -2.4643    2.5968 N.pl3     1 <0>        -0.8063
     15 C9         -1.1779   -1.8161   -1.3382 C.3       1 <0>        -0.1035
     16 C10         0.2344   -2.2364   -1.7561 C.3       1 <0>         0.1166
     17 N5          1.0518   -2.6919   -0.6420 N.am      1 <0>        -0.7221
     18 C11         1.7342   -1.8045    0.1274 C.2       1 <0>         0.6004
     19 O2          2.6276   -2.1680    0.8695 O.2       1 <0>        -0.5251
     20 H2         -0.8959    2.0248    0.0255 H         1 <0>         0.1450
     21 H3          1.5877    2.8525   -0.0051 H         1 <0>         0.1764
     22 H4         -3.3442   -2.6274    0.3014 H         1 <0>         0.4230
     23 H5         -5.2100   -2.2627    3.4595 H         1 <0>         0.4328
     24 H6         -1.7797   -2.7039   -1.1440 H         1 <0>         0.0732
     25 H7         -1.6356   -1.2324   -2.1370 H         1 <0>         0.1044
     26 H8          0.1580   -3.0419   -2.4864 H         1 <0>         0.0919
     27 H9          0.7275   -1.3860   -2.2271 H         1 <0>         0.0817
     28 H10         1.1098   -3.6401   -0.4462 H         1 <0>         0.4070
     29 H11        -5.2071   -3.1483    2.0318 H         1 <0>         0.4159
@<TRIPOS>BOND
     1    1    6 1
     2    1    2 2
     3    1   20 1
     4    2    3 1
     5    2   21 1
     6    3    4 1
     7    3    5 1
     8    5   18 1
     9    5    6 2
    10    6    7 1
    11    7    8 2
    12    7   15 1
    13    8   13 1
    14    8    9 1
    15    9   10 2
    16    9   11 1
    17   11   12 2
    18   12   13 1
    19   12   14 1
    20   13   22 1
    21   14   23 1
    22   14   29 1
    23   15   16 1
    24   15   24 1
    25   15   25 1
    26   16   17 1
    27   16   26 1
    28   16   27 1
    29   17   18 am
    30   17   28 1
    31   18   19 2
@<TRIPOS>MOLECULE
ZINC17836932
   28    30     0     0     0
SMALL
USER_CHARGES

@<TRIPOS>ATOM
      1 C1         -0.0169    1.3974    0.0097 C.2       1 <0>        -0.1537
      2 C2          1.2702    1.8202   -0.0003 C.2       1 <0>        -0.0035
      3 N1          2.1021    0.7407   -0.0039 N.pl3     1 <0>        -0.5151
      4 H1          3.0712    0.7746   -0.0262 H         1 <0>         0.4151
      5 C3          1.3523   -0.3881    0.0294 C.2       1 <0>        -0.0685
      6 C4          0.0021   -0.0041    0.0020 C.2       1 <0>        -0.0220
      7 C5         -1.0954   -0.9746   -0.0792 C.2       1 <0>        -0.1234
      8 C6         -1.9958   -1.1127    0.9263 C.2       1 <0>         0.0745
      9 C7         -2.0476   -0.3653    2.1993 C.2       1 <0>         0.5098
     10 O1         -1.2818    0.5113    2.5652 O.2       1 <0>        -0.5436
     11 N2         -3.1040   -0.8424    2.8719 N.2       1 <0>        -0.7219
     12 C8         -3.7052   -1.7839    2.1771 C.2       1 <0>         0.5705
     13 N3         -3.0830   -1.9895    0.9838 N.pl3     1 <0>        -0.6745
     14 N4         -4.8150   -2.4643    2.5968 N.2       1 <0>        -0.8610
     15 C9         -1.1779   -1.8161   -1.3382 C.3       1 <0>        -0.0821
     16 C10         0.2344   -2.2364   -1.7561 C.3       1 <0>         0.1213
     17 N5          1.0518   -2.6919   -0.6420 N.am      1 <0>        -0.7182
     18 C11         1.7342   -1.8045    0.1274 C.2       1 <0>         0.6089
     19 O2          2.6276   -2.1680    0.8695 O.2       1 <0>        -0.5443
     20 H2         -0.8959    2.0248    0.0255 H         1 <0>         0.1386
     21 H3          1.5877    2.8525   -0.0051 H         1 <0>         0.1669
     22 H4         -3.3442   -2.6274    0.3014 H         1 <0>         0.4055
     23 H5         -1.7797   -2.7039   -1.1440 H         1 <0>         0.0640
     24 H6         -1.6356   -1.2324   -2.1370 H         1 <0>         0.0817
     25 H7          0.1580   -3.0419   -2.4864 H         1 <0>         0.0793
     26 H8          0.7275   -1.3860   -2.2271 H         1 <0>         0.0735
     27 H9          1.1098   -3.6401   -0.4462 H         1 <0>         0.4020
     28 H10        -5.2100   -2.2627    3.4595 H         1 <0>         0.3204
@<TRIPOS>BOND
     1    1    6 1
     2    1    2 2
     3    1   20 1
     4    2    3 1
     5    2   21 1
     6    3    4 1
     7    3    5 1
     8    5   18 1
     9    5    6 2
    10    6    7 1
    11    7    8 2
    12    7   15 1
    13    8   13 1
    14    8    9 1
    15    9   10 2
    16    9   11 1
    17   11   12 2
    18   12   13 1
    19   12   14 1
    20   13   22 1
    21   14   28 1
    22   15   16 1
    23   15   23 1
    24   15   24 1
    25   16   17 1
    26   16   25 1
    27   16   26 1
    28   17   18 am
    29   17   27 1
    30   18   19 2
@<TRIPOS>MOLECULE
ZINC29210891
   42    44     0     0     0
SMALL
USER_CHARGES
6,7-dimethoxy-4-(4-methoxyanilino)quinoline-3-carbonitrile
@<TRIPOS>ATOM
      1 C1         -7.1260   -0.2378    1.2188 C.3       1 <0>         0.0246
      2 O1         -7.2147    1.1547    0.9101 O.3       1 <0>        -0.3190
      3 C2         -6.0455    1.8157    0.6979 C.ar      1 <0>         0.0845
      4 C3         -6.0596    3.1691    0.3939 C.ar      1 <0>        -0.1066
      5 C4         -4.8728    3.8411    0.1779 C.ar      1 <0>        -0.1382
      6 C5         -3.6647    3.1616    0.2654 C.ar      1 <0>         0.1738
      7 C6         -3.6517    1.8054    0.5646 C.ar      1 <0>        -0.1429
      8 C7         -4.8393    1.1361    0.7851 C.ar      1 <0>        -0.1615
      9 N1         -2.4614    3.8418    0.0466 N.pl3     1 <0>        -0.7220
     10 C8         -1.2713    3.1438    0.0078 C.ar      1 <0>         0.2780
     11 C9         -0.5498    2.8637    1.1915 C.ar      1 <0>        -0.1034
     12 C10        -1.0217    3.2874    2.4429 C.ar      1 <0>        -0.1545
     13 C11        -0.3056    3.0042    3.5699 C.ar      1 <0>         0.1230
     14 C12         0.8995    2.2921    3.4897 C.ar      1 <0>         0.1549
     15 C13         1.3841    1.8653    2.2745 C.ar      1 <0>        -0.1785
     16 C14         0.6662    2.1446    1.1013 C.ar      1 <0>         0.1661
     17 N2          1.1232    1.7375   -0.0921 N.ar      1 <0>        -0.4662
     18 C15         0.4767    1.9830   -1.2030 C.ar      1 <0>         0.1795
     19 C16        -0.7339    2.6945   -1.2081 C.ar      1 <0>        -0.0965
     20 C17        -1.4157    2.9537   -2.4404 C.1       1 <0>         0.2581
     21 N3         -1.9566    3.1593   -3.4179 N.1       1 <0>        -0.3995
     22 O2          1.5963    2.0205    4.6239 O.3       1 <0>        -0.2966
     23 C18         2.8165    1.2916    4.4768 C.3       1 <0>         0.0162
     24 O3         -0.7654    3.4161    4.7816 O.3       1 <0>        -0.2992
     25 C19        -1.9993    4.1367    4.7964 C.3       1 <0>         0.0195
     26 H1         -8.1369   -0.6459    1.3655 H         1 <0>         0.1014
     27 H2         -6.5390   -0.3726    2.1393 H         1 <0>         0.0549
     28 H3         -6.6339   -0.7666    0.3893 H         1 <0>         0.0547
     29 H4         -6.9992    3.6973    0.3259 H         1 <0>         0.1338
     30 H5         -4.8840    4.8948   -0.0588 H         1 <0>         0.1316
     31 H6         -2.7130    1.2752    0.6282 H         1 <0>         0.1205
     32 H7         -4.8292    0.0823    1.0215 H         1 <0>         0.1292
     33 H8         -2.4641    4.9327   -0.0945 H         1 <0>         0.4401
     34 H9         -1.9493    3.8358    2.5144 H         1 <0>         0.1493
     35 H10         2.3135    1.3174    2.2238 H         1 <0>         0.1565
     36 H11         0.8864    1.6338   -2.1392 H         1 <0>         0.1719
     37 H12         3.2753    1.1414    5.4652 H         1 <0>         0.1088
     38 H13         3.5067    1.8580    3.8343 H         1 <0>         0.0635
     39 H14         2.6067    0.3143    4.0176 H         1 <0>         0.0633
     40 H15        -2.2532    4.4077    5.8318 H         1 <0>         0.1079
     41 H16        -2.7970    3.5065    4.3762 H         1 <0>         0.0600
     42 H17        -1.8975    5.0505    4.1926 H         1 <0>         0.0592
@<TRIPOS>BOND
     1    1    2 1
     2    1   26 1
     3    1   27 1
     4    1   28 1
     5    2    3 1
     6    3    8 ar
     7    3    4 ar
     8    4    5 ar
     9    4   29 1
    10    5    6 ar
    11    5   30 1
    12    6    7 ar
    13    6    9 1
    14    7    8 ar
    15    7   31 1
    16    8   32 1
    17    9   10 1
    18    9   33 1
    19   10   19 ar
    20   10   11 ar
    21   11   16 ar
    22   11   12 ar
    23   12   13 ar
    24   12   34 1
    25   13   14 ar
    26   13   24 1
    27   14   15 ar
    28   14   22 1
    29   15   16 ar
    30   15   35 1
    31   16   17 ar
    32   17   18 ar
    33   18   19 ar
    34   18   36 1
    35   19   20 1
    36   20   21 3
    37   22   23 1
    38   23   37 1
    39   23   38 1
    40   23   39 1
    41   24   25 1
    42   25   40 1
    43   25   41 1
    44   25   42 1
@<TRIPOS>MOLECULE
ZINC18371391
   51    55     0     0     0
SMALL
USER_CHARGES

@<TRIPOS>ATOM
      1 C1         -1.9121    0.8520   -0.5002 C.3       1 <0>         0.0932
      2 N1         -1.2344   -0.4395   -0.3627 N.pl3     1 <0>        -0.6168
      3 C2         -1.3570   -1.2022    0.8821 C.3       1 <0>         0.1028
      4 C3         -0.4735   -0.9422   -1.4153 C.ar      1 <0>         0.3834
      5 C4         -0.2766   -0.1621   -2.5423 C.ar      1 <0>        -0.2100
      6 C5          0.4899   -0.6862   -3.5849 C.ar      1 <0>        -0.1046
      7 C6          1.0321   -1.9899   -3.4464 C.ar      1 <0>         0.0725
      8 C7          0.7768   -2.7011   -2.2673 C.ar      1 <0>         0.2016
      9 N2          0.0526   -2.1581   -1.3148 N.ar      1 <0>        -0.5008
     10 N3          1.7671   -2.4864   -4.4507 N.ar      1 <0>        -0.5205
     11 C8          1.9823   -1.7871   -5.5372 C.ar      1 <0>         0.3237
     12 N4          1.5089   -0.5670   -5.7351 N.ar      1 <0>        -0.5674
     13 C9          0.7651    0.0428   -4.8194 C.ar      1 <0>         0.4557
     14 N5          0.2722    1.3143   -5.0265 N.pl3     1 <0>        -0.6297
     15 C10         0.4497    1.9407   -6.2658 C.ar      1 <0>         0.1136
     16 C11         0.4304    1.1813   -7.4367 C.ar      1 <0>        -0.0538
     17 C12         0.6016    1.7726   -8.6547 C.ar      1 <0>        -0.1220
     18 C13         0.7985    3.1488   -8.7416 C.ar      1 <0>         0.1252
     19 C14         0.8193    3.9246   -7.5670 C.ar      1 <0>        -0.1620
     20 C15         0.6374    3.3072   -6.3242 C.ar      1 <0>        -0.0675
     21 C16         1.0414    5.3038   -7.9895 C.2       1 <0>         0.0716
     22 N6          1.1382    5.3118   -9.2884 N.2       1 <0>        -0.2450
     23 N7          0.9954    4.0135   -9.7887 N.pl3     1 <0>        -0.3988
     24 C17         1.0480    3.6373  -11.2036 C.3       1 <0>         0.1823
     25 C18        -0.3377    3.7021  -11.7925 C.ar      1 <0>        -0.1191
     26 C19        -1.1555    2.5881  -11.7596 C.ar      1 <0>        -0.0991
     27 C20        -2.4265    2.6476  -12.2998 C.ar      1 <0>        -0.1223
     28 C21        -2.8799    3.8213  -12.8725 C.ar      1 <0>        -0.1098
     29 C22        -2.0624    4.9355  -12.9046 C.ar      1 <0>        -0.1227
     30 C23        -0.7929    4.8773  -12.3605 C.ar      1 <0>        -0.0919
     31 H1         -1.2494    1.6481   -0.1609 H         1 <0>         0.0556
     32 H2         -2.1719    1.0164   -1.5459 H         1 <0>         0.0689
     33 H3         -2.8194    0.8524    0.1040 H         1 <0>         0.0759
     34 H4         -1.9860   -0.6542    1.5836 H         1 <0>         0.0717
     35 H5         -1.8076   -2.1720    0.6711 H         1 <0>         0.0602
     36 H6         -0.3685   -1.3480    1.3178 H         1 <0>         0.0581
     37 H7         -0.7053    0.8266   -2.6131 H         1 <0>         0.1350
     38 H8          1.1787   -3.6953   -2.1393 H         1 <0>         0.1796
     39 H9          2.5817   -2.2323   -6.3176 H         1 <0>         0.1951
     40 H10        -0.1975    1.7745   -4.3133 H         1 <0>         0.4201
     41 H11         0.2787    0.1136   -7.3781 H         1 <0>         0.1419
     42 H12         0.5847    1.1726   -9.5525 H         1 <0>         0.1271
     43 H13         0.6481    3.8944   -5.4179 H         1 <0>         0.1312
     44 H14         1.1124    6.1644   -7.3408 H         1 <0>         0.1962
     45 H15         1.7027    4.3253  -11.7385 H         1 <0>         0.1028
     46 H16         1.4347    2.6223  -11.2955 H         1 <0>         0.0997
     47 H17        -0.8013    1.6712  -11.3122 H         1 <0>         0.1215
     48 H18        -3.0652    1.7771  -12.2748 H         1 <0>         0.1245
     49 H19        -3.8727    3.8675  -13.2952 H         1 <0>         0.1238
     50 H20        -2.4165    5.8523  -13.3523 H         1 <0>         0.1246
     51 H21        -0.1556    5.7489  -12.3823 H         1 <0>         0.1246
@<TRIPOS>BOND
     1    1    2 1
     2    1   31 1
     3    1   32 1
     4    1   33 1
     5    2    3 1
     6    2    4 1
     7    3   34 1
     8    3   35 1
     9    3   36 1
    10    4    9 ar
    11    4    5 ar
    12    5    6 ar
    13    5   37 1
    14    6   13 ar
    15    6    7 ar
    16    7    8 ar
    17    7   10 ar
    18    8    9 ar
    19    8   38 1
    20   10   11 ar
    21   11   12 ar
    22   11   39 1
    23   12   13 ar
    24   13   14 1
    25   14   15 1
    26   14   40 1
    27   15   20 ar
    28   15   16 ar
    29   16   17 ar
    30   16   41 1
    31   17   18 ar
    32   17   42 1
    33   18   23 1
    34   18   19 ar
    35   19   20 ar
    36   19   21 1
    37   20   43 1
    38   21   22 2
    39   21   44 1
    40   22   23 1
    41   23   24 1
    42   24   25 1
    43   24   45 1
    44   24   46 1
    45   25   30 ar
    46   25   26 ar
    47   26   27 ar
    48   26   47 1
    49   27   28 ar
    50   27   48 1
    51   28   29 ar
    52   28   49 1
    53   29   30 ar
    54   29   50 1
    55   30   51 1
@<TRIPOS>MOLECULE
ZINC27439698
   59    62     0     0     0
SMALL
USER_CHARGES

@<TRIPOS>ATOM
      1 C1         -0.2063    1.0844    0.8125 C.2       1 <0>        -0.0780
      2 C2         -0.0916   -0.1284    0.2785 C.2       1 <0>        -0.2217
      3 C3          1.1892   -0.8472    0.3546 C.2       1 <0>         0.5464
      4 O1          2.1435   -0.3327    0.9059 O.2       1 <0>        -0.5301
      5 N1          1.3054   -2.0761   -0.1864 N.am      1 <0>        -0.6549
      6 C4          2.5517   -2.7129   -0.2160 C.ar      1 <0>         0.1200
      7 C5          3.7048   -1.9595   -0.1827 C.ar      1 <0>        -0.0579
      8 C6          4.9490   -2.5997   -0.2120 C.ar      1 <0>        -0.1974
      9 C7          5.0154   -4.0138   -0.2753 C.ar      1 <0>         0.2129
     10 C8          3.8313   -4.7603   -0.3083 C.ar      1 <0>        -0.1947
     11 C9          2.6164   -4.1137   -0.2734 C.ar      1 <0>         0.1622
     12 O2          1.4681   -4.8389   -0.3002 O.3       1 <0>        -0.3093
     13 C10         1.5999   -6.2606   -0.3586 C.3       1 <0>         0.0588
     14 C11         0.2106   -6.9010   -0.3813 C.3       1 <0>        -0.1156
     15 C12         0.3517   -8.4232   -0.4438 C.3       1 <0>         0.0578
     16 N2         -0.9822   -9.0382   -0.4657 N.3       1 <0>        -0.5360
     17 C13        -1.6880   -8.8108    0.8038 C.3       1 <0>         0.0125
     18 C14        -3.0921   -9.4148    0.7161 C.3       1 <0>         0.0626
     19 O3         -2.9885  -10.8047    0.3955 O.3       1 <0>        -0.3850
     20 C15        -2.3071  -11.0626   -0.8351 C.3       1 <0>         0.0628
     21 C16        -0.8951  -10.4753   -0.7631 C.3       1 <0>         0.0171
     22 N3          6.2221   -4.6015   -0.3018 N.ar      1 <0>        -0.5452
     23 C17         7.3156   -3.8777   -0.2694 C.ar      1 <0>         0.3493
     24 N4          7.3023   -2.5556   -0.2097 N.ar      1 <0>        -0.5859
     25 C18         6.1642   -1.8746   -0.1796 C.ar      1 <0>         0.4714
     26 N5          6.1650   -0.4957   -0.1182 N.pl3     1 <0>        -0.6328
     27 C19         7.3694    0.2084   -0.2227 C.ar      1 <0>         0.1581
     28 C20         7.5013    1.4536    0.3785 C.ar      1 <0>        -0.1169
     29 C21         8.6911    2.1472    0.2750 C.ar      1 <0>        -0.1176
     30 C22         9.7524    1.6027   -0.4280 C.ar      1 <0>         0.0901
     31 C23         9.6235    0.3609   -1.0292 C.ar      1 <0>        -0.0524
     32 C24         8.4363   -0.3392   -0.9225 C.ar      1 <0>        -0.0856
     33 Cl1        10.9555   -0.3188   -1.9109 Cl        1 <0>        -0.0424
     34 F1         10.9152    2.2833   -0.5284 F         1 <0>        -0.1264
     35 H1          0.6411    1.5413    1.3020 H         1 <0>         0.1166
     36 H2         -1.1456    1.6141    0.7527 H         1 <0>         0.1209
     37 H3         -0.9390   -0.5853   -0.2110 H         1 <0>         0.1323
     38 H4          0.5255   -2.5194   -0.5554 H         1 <0>         0.4201
     39 H5          3.6489   -0.8820   -0.1348 H         1 <0>         0.1596
     40 H6          3.8708   -5.8385   -0.3565 H         1 <0>         0.1517
     41 H7          2.1429   -6.5383   -1.2620 H         1 <0>         0.0720
     42 H8          2.1473   -6.6110    0.5165 H         1 <0>         0.0691
     43 H9         -0.3323   -6.6233    0.5221 H         1 <0>         0.0760
     44 H10        -0.3367   -6.5506   -1.2564 H         1 <0>         0.0860
     45 H11         0.8947   -8.7010   -1.3473 H         1 <0>         0.0821
     46 H12         0.8990   -8.7736    0.4312 H         1 <0>         0.0409
     47 H13        -1.1377   -9.2854    1.6162 H         1 <0>         0.0448
     48 H14        -1.7636   -7.7398    0.9914 H         1 <0>         0.0895
     49 H15        -3.5986   -9.2990    1.6743 H         1 <0>         0.0993
     50 H16        -3.6604   -8.9035   -0.0609 H         1 <0>         0.0609
     51 H17        -2.2459  -12.1385   -0.9988 H         1 <0>         0.1001
     52 H18        -2.8525  -10.5991   -1.6572 H         1 <0>         0.0612
     53 H19        -0.3918  -10.6192   -1.7193 H         1 <0>         0.0886
     54 H20        -0.3321  -10.9764    0.0243 H         1 <0>         0.0452
     55 H21         8.2696   -4.3834   -0.2921 H         1 <0>         0.1993
     56 H22         5.3306   -0.0149   -0.0027 H         1 <0>         0.4275
     57 H23         6.6738    1.8794    0.9265 H         1 <0>         0.1431
     58 H24         8.7936    3.1154    0.7424 H         1 <0>         0.1506
     59 H25         8.3373   -1.3092   -1.3869 H         1 <0>         0.1663
@<TRIPOS>BOND
     1    1    2 2
     2    1   35 1
     3    1   36 1
     4    2    3 1
     5    2   37 1
     6    3    4 2
     7    3    5 am
     8    5    6 1
     9    5   38 1
    10    6   11 ar
    11    6    7 ar
    12    7    8 ar
    13    7   39 1
    14    8   25 ar
    15    8    9 ar
    16    9   10 ar
    17    9   22 ar
    18   10   11 ar
    19   10   40 1
    20   11   12 1
    21   12   13 1
    22   13   14 1
    23   13   41 1
    24   13   42 1
    25   14   15 1
    26   14   43 1
    27   14   44 1
    28   15   16 1
    29   15   45 1
    30   15   46 1
    31   16   21 1
    32   16   17 1
    33   17   18 1
    34   17   47 1
    35   17   48 1
    36   18   19 1
    37   18   49 1
    38   18   50 1
    39   19   20 1
    40   20   21 1
    41   20   51 1
    42   20   52 1
    43   21   53 1
    44   21   54 1
    45   22   23 ar
    46   23   24 ar
    47   23   55 1
    48   24   25 ar
    49   25   26 1
    50   26   27 1
    51   26   56 1
    52   27   32 ar
    53   27   28 ar
    54   28   29 ar
    55   28   57 1
    56   29   30 ar
    57   29   58 1
    58   30   31 ar
    59   30   34 1
    60   31   32 ar
    61   31   33 1
    62   32   59 1
@<TRIPOS>MOLECULE
ZINC01420826
   33    35     0     0     0
SMALL
USER_CHARGES

@<TRIPOS>ATOM
      1 C1         -0.2640    1.4582    0.2295 C.3       1 <0>         0.0301
      2 O1         -0.2493    0.0297    0.1969 O.3       1 <0>        -0.3207
      3 C2          0.4992   -0.6018    1.1409 C.ar      1 <0>         0.0490
      4 C3          1.1978    0.1379    2.0794 C.ar      1 <0>        -0.1382
      5 C4          1.9630   -0.4975    3.0440 C.ar      1 <0>        -0.1406
      6 C5          2.0373   -1.8727    3.0802 C.ar      1 <0>        -0.0639
      7 C6          1.3377   -2.6358    2.1402 C.ar      1 <0>        -0.1328
      8 C7          0.5583   -1.9932    1.1669 C.ar      1 <0>         0.2409
      9 N1         -0.1475   -2.7419    0.2283 N.pl3     1 <0>        -0.8573
     10 C8          1.4147   -4.1068    2.1749 C.2       1 <0>         0.2178
     11 C9          1.0618   -4.7544    3.3206 C.2       1 <0>        -0.3076
     12 C10         1.1294   -6.1644    3.3719 C.2       1 <0>         0.4204
     13 O2          0.8210   -6.7776    4.3806 O.2       1 <0>        -0.4693
     14 C11         1.5877   -6.8669    2.1564 C.ar      1 <0>        -0.2226
     15 C12         1.6848   -8.2567    2.1164 C.ar      1 <0>        -0.0314
     16 C13         2.1163   -8.8752    0.9631 C.ar      1 <0>        -0.1475
     17 C14         2.4521   -8.1209   -0.1515 C.ar      1 <0>        -0.0571
     18 C15         2.3601   -6.7455   -0.1239 C.ar      1 <0>        -0.1402
     19 C16         1.9272   -6.1026    1.0294 C.ar      1 <0>         0.1418
     20 O3          1.8245   -4.7578    1.0752 O.3       1 <0>        -0.2203
     21 H1          0.7504    1.8351    0.0993 H         1 <0>         0.0561
     22 H2         -0.8970    1.8335   -0.5746 H         1 <0>         0.1012
     23 H3         -0.6567    1.7957    1.1887 H         1 <0>         0.0563
     24 H4          1.1465    1.2165    2.0594 H         1 <0>         0.1344
     25 H5          2.5047    0.0887    3.7716 H         1 <0>         0.1330
     26 H6          2.6362   -2.3614    3.8344 H         1 <0>         0.1334
     27 H7         -0.6084   -2.2967   -0.4999 H         1 <0>         0.4092
     28 H8         -0.1781   -3.7086    0.3027 H         1 <0>         0.3993
     29 H9          0.7332   -4.1938    4.1832 H         1 <0>         0.1616
     30 H10         1.4240   -8.8450    2.9837 H         1 <0>         0.1428
     31 H11         2.1936   -9.9518    0.9270 H         1 <0>         0.1372
     32 H12         2.7895   -8.6160   -1.0501 H         1 <0>         0.1415
     33 H13         2.6246   -6.1683   -0.9976 H         1 <0>         0.1434
@<TRIPOS>BOND
     1    1    2 1
     2    1   21 1
     3    1   22 1
     4    1   23 1
     5    2    3 1
     6    3    8 ar
     7    3    4 ar
     8    4    5 ar
     9    4   24 1
    10    5    6 ar
    11    5   25 1
    12    6    7 ar
    13    6   26 1
    14    7    8 ar
    15    7   10 1
    16    8    9 1
    17    9   27 1
    18    9   28 1
    19   10   20 1
    20   10   11 2
    21   11   12 1
    22   11   29 1
    23   12   13 2
    24   12   14 1
    25   14   19 ar
    26   14   15 ar
    27   15   16 ar
    28   15   30 1
    29   16   17 ar
    30   16   31 1
    31   17   18 ar
    32   17   32 1
    33   18   19 ar
    34   18   33 1
    35   19   20 1
@<TRIPOS>MOLECULE
ZINC13310235
   20    21     0     0     0
SMALL
USER_CHARGES

@<TRIPOS>ATOM
      1 C1         -0.0169    1.3965    0.0097 C.2       1 <0>        -0.1512
      2 C2          1.2723    1.8163   -0.0003 C.2       1 <0>         0.0076
      3 N1          2.0991    0.7339   -0.0040 N.pl3     1 <0>        -0.4962
      4 H1          3.0683    0.7646   -0.0271 H         1 <0>         0.4275
      5 C3          1.3506   -0.3878    0.0293 C.2       1 <0>        -0.0178
      6 C4          0.0021   -0.0041    0.0020 C.2       1 <0>        -0.1977
      7 C5         -1.0974   -0.9764   -0.0788 C.2       1 <0>         0.4291
      8 O1         -1.9021   -1.0993    0.8200 O.2       1 <0>        -0.4379
      9 C6         -1.1803   -1.8187   -1.3371 C.3       1 <0>        -0.1833
     10 C7          0.2314   -2.2406   -1.7552 C.3       1 <0>         0.1163
     11 N2          1.0487   -2.6969   -0.6414 N.am      1 <0>        -0.7232
     12 C8          1.7324   -1.8102    0.1276 C.2       1 <0>         0.5950
     13 O2          2.6250   -2.1744    0.8691 O.2       1 <0>        -0.5178
     14 H2         -0.8950    2.0251    0.0255 H         1 <0>         0.1528
     15 H3          1.5933    2.8474   -0.0053 H         1 <0>         0.1819
     16 H4         -1.7827   -2.7059   -1.1424 H         1 <0>         0.0993
     17 H5         -1.6376   -1.2353   -2.1363 H         1 <0>         0.1206
     18 H6          0.1539   -3.0461   -2.4854 H         1 <0>         0.0991
     19 H7          0.7253   -1.3909   -2.2265 H         1 <0>         0.0838
     20 H8          1.1058   -3.6452   -0.4455 H         1 <0>         0.4121
@<TRIPOS>BOND
     1    1    6 1
     2    1    2 2
     3    1   14 1
     4    2    3 1
     5    2   15 1
     6    3    4 1
     7    3    5 1
     8    5   12 1
     9    5    6 2
    10    6    7 1
    11    7    8 2
    12    7    9 1
    13    9   10 1
    14    9   16 1
    15    9   17 1
    16   10   11 1
    17   10   18 1
    18   10   19 1
    19   11   12 am
    20   11   20 1
    21   12   13 2
@<TRIPOS>MOLECULE
ZINC17175232
   28    30     0     0     0
SMALL
USER_CHARGES

@<TRIPOS>ATOM
      1 C1         -0.0163    1.3518    0.0095 C.2       1 <0>        -0.1320
      2 C2          1.3148    1.7902   -0.0009 C.2       1 <0>        -0.0473
      3 C3          2.1177    0.6382   -0.0541 C.2       1 <0>        -0.0284
      4 N1          1.2938   -0.4402   -0.0184 N.pl3     1 <0>        -0.4947
      5 H1          1.5772   -1.3679   -0.0093 H         1 <0>         0.4228
      6 C4          0.0021   -0.0041    0.0020 C.2       1 <0>         0.0135
      7 Br1        -1.5265   -1.1172    0.0181 Br        1 <0>         0.0029
      8 C5          3.5766    0.7389   -0.1870 C.2       1 <0>         0.6051
      9 O1          4.1929    0.0169   -0.9490 O.2       1 <0>        -0.5408
     10 N2          4.2121    1.6686    0.5723 N.am      1 <0>        -0.7065
     11 C6          3.5429    2.2863    1.7070 C.3       1 <0>         0.1163
     12 C7          2.6757    3.4872    1.3174 C.3       1 <0>        -0.0871
     13 C8          1.8765    3.1423    0.0746 C.2       1 <0>        -0.1143
     14 C9          1.6898    4.0463   -0.9242 C.2       1 <0>         0.1008
     15 C10         2.1957    5.4237   -0.9853 C.2       1 <0>         0.4669
     16 O2          2.9467    6.0446   -0.0478 O.3       1 <0>        -0.6390
     17 N3          1.7827    5.9409   -2.1226 N.2       1 <0>        -0.6194
     18 C11         1.0592    5.0459   -2.8124 C.2       1 <0>         0.5785
     19 N4          0.9806    3.8605   -2.1141 N.pl3     1 <0>        -0.7302
     20 N5          0.5113    5.2654   -3.9838 N.2       1 <0>        -0.7896
     21 H2         -0.8955    1.9789    0.0252 H         1 <0>         0.1528
     22 H3          5.1227    1.9234    0.3559 H         1 <0>         0.4078
     23 H4          2.9112    1.5403    2.1892 H         1 <0>         0.0663
     24 H5          4.2974    2.6164    2.4210 H         1 <0>         0.0851
     25 H6          1.9946    3.7249    2.1345 H         1 <0>         0.0799
     26 H7          3.3144    4.3465    1.1128 H         1 <0>         0.1130
     27 H8          0.5205    3.0537   -2.3935 H         1 <0>         0.4017
     28 H9          0.0011    4.5649   -4.4195 H         1 <0>         0.3159
@<TRIPOS>BOND
     1    1    6 2
     2    1    2 1
     3    1   21 1
     4    2   13 1
     5    2    3 2
     6    3    4 1
     7    3    8 1
     8    4    5 1
     9    4    6 1
    10    6    7 1
    11    8    9 2
    12    8   10 am
    13   10   11 1
    14   10   22 1
    15   11   12 1
    16   11   23 1
    17   11   24 1
    18   12   13 1
    19   12   25 1
    20   12   26 1
    21   13   14 2
    22   14   19 1
    23   14   15 1
    24   15   16 1
    25   15   17 2
    26   17   18 1
    27   18   19 1
    28   18   20 2
    29   19   27 1
    30   20   28 1
@<TRIPOS>MOLECULE
ZINC17175232
   28    30     0     0     0
SMALL
USER_CHARGES

@<TRIPOS>ATOM
      1 C1         -0.0163    1.3518    0.0095 C.2       1 <0>        -0.1303
      2 C2          1.3148    1.7902   -0.0009 C.2       1 <0>        -0.0482
      3 C3          2.1177    0.6382   -0.0541 C.2       1 <0>        -0.0280
      4 N1          1.2938   -0.4402   -0.0184 N.pl3     1 <0>        -0.4947
      5 H1          1.5772   -1.3679   -0.0093 H         1 <0>         0.4228
      6 C4          0.0021   -0.0041    0.0020 C.2       1 <0>         0.0141
      7 Br1        -1.5265   -1.1172    0.0181 Br        1 <0>         0.0028
      8 C5          3.5766    0.7389   -0.1870 C.2       1 <0>         0.6054
      9 O1          4.1929    0.0169   -0.9490 O.2       1 <0>        -0.5403
     10 N2          4.2121    1.6686    0.5723 N.am      1 <0>        -0.7071
     11 C6          3.5429    2.2863    1.7070 C.3       1 <0>         0.1165
     12 C7          2.6757    3.4872    1.3174 C.3       1 <0>        -0.0863
     13 C8          1.8765    3.1423    0.0746 C.2       1 <0>        -0.1135
     14 C9          1.6898    4.0463   -0.9242 C.2       1 <0>         0.1071
     15 C10         2.1957    5.4237   -0.9853 C.2       1 <0>         0.4664
     16 O2          2.9467    6.0446   -0.0478 O.3       1 <0>        -0.6433
     17 N3          1.7827    5.9409   -2.1226 N.2       1 <0>        -0.6748
     18 C11         1.0592    5.0459   -2.8124 C.2       1 <0>         0.5688
     19 N4          0.9806    3.8605   -2.1141 N.pl3     1 <0>        -0.6803
     20 N5          0.5113    5.2654   -3.9838 N.2       1 <0>        -0.8118
     21 H2         -0.8955    1.9789    0.0252 H         1 <0>         0.1537
     22 H3          5.1227    1.9234    0.3559 H         1 <0>         0.4075
     23 H4          2.9112    1.5403    2.1892 H         1 <0>         0.0668
     24 H5          4.2974    2.6164    2.4210 H         1 <0>         0.0848
     25 H6          1.9946    3.7249    2.1345 H         1 <0>         0.0802
     26 H7          3.3144    4.3465    1.1128 H         1 <0>         0.1125
     27 H8          0.6165    6.1282   -4.4144 H         1 <0>         0.3376
     28 H9          0.5205    3.0537   -2.3935 H         1 <0>         0.4116
@<TRIPOS>BOND
     1    1    6 2
     2    1    2 1
     3    1   21 1
     4    2   13 1
     5    2    3 2
     6    3    4 1
     7    3    8 1
     8    4    5 1
     9    4    6 1
    10    6    7 1
    11    8    9 2
    12    8   10 am
    13   10   11 1
    14   10   22 1
    15   11   12 1
    16   11   23 1
    17   11   24 1
    18   12   13 1
    19   12   25 1
    20   12   26 1
    21   13   14 2
    22   14   19 1
    23   14   15 1
    24   15   16 1
    25   15   17 2
    26   17   18 1
    27   18   19 1
    28   18   20 2
    29   19   28 1
    30   20   27 1
@<TRIPOS>MOLECULE
ZINC17175232
   28    30     0     0     0
SMALL
USER_CHARGES

@<TRIPOS>ATOM
      1 C1         -0.0163    1.3522    0.0095 C.2       1 <0>        -0.1304
      2 C2          1.3145    1.7899   -0.0009 C.2       1 <0>        -0.0459
      3 C3          2.1168    0.6384   -0.0541 C.2       1 <0>        -0.0300
      4 N1          1.2937   -0.4395   -0.0184 N.pl3     1 <0>        -0.4944
      5 H1          1.5775   -1.3670   -0.0089 H         1 <0>         0.4225
      6 C4          0.0021   -0.0041    0.0020 C.2       1 <0>         0.0140
      7 Br1        -1.5262   -1.1176    0.0181 Br        1 <0>         0.0029
      8 C5          3.5767    0.7391   -0.1874 C.2       1 <0>         0.6062
      9 O1          4.1928    0.0172   -0.9493 O.2       1 <0>        -0.5393
     10 N2          4.2125    1.6688    0.5718 N.am      1 <0>        -0.7083
     11 C6          3.5436    2.2865    1.7066 C.3       1 <0>         0.1168
     12 C7          2.6766    3.4877    1.3173 C.3       1 <0>        -0.0808
     13 C8          1.8770    3.1431    0.0747 C.2       1 <0>        -0.1250
     14 C9          1.6904    4.0451   -0.9215 C.2       1 <0>         0.0817
     15 C10         2.1965    5.4312   -0.9893 C.2       1 <0>         0.5130
     16 O2          2.8748    6.0047   -0.1528 O.2       1 <0>        -0.5579
     17 N3          1.7619    5.9328   -2.1536 N.2       1 <0>        -0.7162
     18 C11         1.0563    5.0350   -2.8068 C.2       1 <0>         0.5692
     19 N4          0.9819    3.8661   -2.1131 N.pl3     1 <0>        -0.6705
     20 N5          0.4771    5.2468   -4.0277 N.2       1 <0>        -0.8527
     21 H2         -0.8954    1.9794    0.0253 H         1 <0>         0.1535
     22 H3          5.1230    1.9236    0.3550 H         1 <0>         0.4071
     23 H4          2.9118    1.5406    2.1889 H         1 <0>         0.0681
     24 H5          4.2983    2.6165    2.4205 H         1 <0>         0.0845
     25 H6          1.9957    3.7255    2.1345 H         1 <0>         0.0803
     26 H7          3.3154    4.3469    1.1126 H         1 <0>         0.1016
     27 H8          0.5214    3.0596   -2.3928 H         1 <0>         0.4083
     28 H9          0.5746    6.1055   -4.4684 H         1 <0>         0.3216
@<TRIPOS>BOND
     1    1    6 2
     2    1    2 1
     3    1   21 1
     4    2   13 1
     5    2    3 2
     6    3    4 1
     7    3    8 1
     8    4    5 1
     9    4    6 1
    10    6    7 1
    11    8    9 2
    12    8   10 am
    13   10   11 1
    14   10   22 1
    15   11   12 1
    16   11   23 1
    17   11   24 1
    18   12   13 1
    19   12   25 1
    20   12   26 1
    21   13   14 2
    22   14   19 1
    23   14   15 1
    24   15   16 2
    25   15   17 1
    26   17   18 2
    27   18   19 1
    28   18   20 1
    29   19   27 1
    30   20   28 1
@<TRIPOS>MOLECULE
ZINC17175232
   29    31     0     0     0
SMALL
USER_CHARGES

@<TRIPOS>ATOM
      1 C1         -0.0163    1.3522    0.0095 C.2       1 <0>        -0.1233
      2 C2          1.3145    1.7899   -0.0009 C.2       1 <0>        -0.1048
      3 C3          2.1168    0.6384   -0.0541 C.2       1 <0>        -0.0013
      4 N1          1.2937   -0.4395   -0.0184 N.pl3     1 <0>        -0.4850
      5 H1          1.5775   -1.3670   -0.0089 H         1 <0>         0.4308
      6 C4          0.0021   -0.0041    0.0020 C.2       1 <0>         0.0189
      7 Br1        -1.5262   -1.1176    0.0181 Br        1 <0>         0.0227
      8 C5          3.5767    0.7391   -0.1874 C.2       1 <0>         0.5973
      9 O1          4.1928    0.0172   -0.9493 O.2       1 <0>        -0.5214
     10 N2          4.2125    1.6688    0.5718 N.am      1 <0>        -0.7121
     11 C6          3.5436    2.2865    1.7066 C.3       1 <0>         0.1126
     12 C7          2.6766    3.4877    1.3173 C.3       1 <0>        -0.1046
     13 C8          1.8770    3.1431    0.0747 C.2       1 <0>         0.0171
     14 C9          1.6904    4.0451   -0.9215 C.2       1 <0>        -0.0013
     15 C10         2.1965    5.4312   -0.9893 C.2       1 <0>         0.5402
     16 O2          2.8748    6.0047   -0.1528 O.2       1 <0>        -0.4687
     17 N3          1.7619    5.9328   -2.1536 N.2       1 <0>        -0.6424
     18 C11         1.0563    5.0350   -2.8068 C.2       1 <0>         0.6571
     19 N4          0.9819    3.8661   -2.1131 N.pl3     1 <0>        -0.6656
     20 N5          0.4771    5.2468   -4.0277 N.pl3     1 <0>        -0.8040
     21 H2         -0.8954    1.9794    0.0253 H         1 <0>         0.1589
     22 H3          5.1230    1.9236    0.3550 H         1 <0>         0.4127
     23 H4          2.9118    1.5406    2.1889 H         1 <0>         0.0771
     24 H5          4.2983    2.6165    2.4205 H         1 <0>         0.0983
     25 H6          1.9957    3.7255    2.1345 H         1 <0>         0.1057
     26 H7          3.3154    4.3469    1.1126 H         1 <0>         0.1089
     27 H8          0.5214    3.0596   -2.3928 H         1 <0>         0.4258
     28 H9          0.5746    6.1055   -4.4684 H         1 <0>         0.4334
     29 H10        -0.0311    4.5384   -4.4529 H         1 <0>         0.4171
@<TRIPOS>BOND
     1    1    6 2
     2    1    2 1
     3    1   21 1
     4    2   13 1
     5    2    3 2
     6    3    4 1
     7    3    8 1
     8    4    5 1
     9    4    6 1
    10    6    7 1
    11    8    9 2
    12    8   10 am
    13   10   11 1
    14   10   22 1
    15   11   12 1
    16   11   23 1
    17   11   24 1
    18   12   13 1
    19   12   25 1
    20   12   26 1
    21   13   14 2
    22   14   19 1
    23   14   15 1
    24   15   16 2
    25   15   17 1
    26   17   18 2
    27   18   19 1
    28   18   20 1
    29   19   27 1
    30   20   28 1
    31   20   29 1
@<TRIPOS>MOLECULE
ZINC17175232
   29    31     0     0     0
SMALL
USER_CHARGES

@<TRIPOS>ATOM
      1 C1         -0.0163    1.3522    0.0095 C.2       1 <0>        -0.0939
      2 C2          1.3145    1.7899   -0.0009 C.2       1 <0>        -0.0817
      3 C3          2.1168    0.6384   -0.0541 C.2       1 <0>        -0.0085
      4 N1          1.2937   -0.4395   -0.0184 N.pl3     1 <0>        -0.4867
      5 H1          1.5775   -1.3670   -0.0089 H         1 <0>         0.4287
      6 C4          0.0021   -0.0041    0.0020 C.2       1 <0>         0.0190
      7 Br1        -1.5262   -1.1176    0.0181 Br        1 <0>         0.0181
      8 C5          3.5767    0.7391   -0.1874 C.2       1 <0>         0.6011
      9 O1          4.1928    0.0172   -0.9493 O.2       1 <0>        -0.5178
     10 N2          4.2125    1.6688    0.5718 N.am      1 <0>        -0.7188
     11 C6          3.5436    2.2865    1.7066 C.3       1 <0>         0.1140
     12 C7          2.6766    3.4877    1.3173 C.3       1 <0>        -0.1023
     13 C8          1.8770    3.1431    0.0747 C.2       1 <0>         0.0104
     14 C9          1.6904    4.0451   -0.9215 C.2       1 <0>         0.0011
     15 C10         0.9363    3.8581   -2.1778 C.2       1 <0>         0.5331
     16 O2          0.3478    2.8508   -2.5352 O.2       1 <0>        -0.4515
     17 N3          1.0276    5.0160   -2.8462 N.2       1 <0>        -0.6417
     18 C11         1.7387    5.8869   -2.1633 C.2       1 <0>         0.6550
     19 N4          2.1642    5.3588   -0.9829 N.pl3     1 <0>        -0.6695
     20 N5          2.0107    7.1602   -2.5824 N.pl3     1 <0>        -0.8051
     21 H2         -0.8954    1.9794    0.0253 H         1 <0>         0.1559
     22 H3          5.1230    1.9236    0.3550 H         1 <0>         0.4096
     23 H4          2.9118    1.5406    2.1889 H         1 <0>         0.0822
     24 H5          4.2983    2.6165    2.4205 H         1 <0>         0.0947
     25 H6          1.9957    3.7255    2.1345 H         1 <0>         0.1060
     26 H7          3.3154    4.3469    1.1126 H         1 <0>         0.0753
     27 H8          2.6983    5.8097   -0.3104 H         1 <0>         0.4239
     28 H9          1.6708    7.4730   -3.4354 H         1 <0>         0.4333
     29 H10         2.5433    7.7504   -2.0267 H         1 <0>         0.4164
@<TRIPOS>BOND
     1    1    6 2
     2    1    2 1
     3    1   21 1
     4    2   13 1
     5    2    3 2
     6    3    4 1
     7    3    8 1
     8    4    5 1
     9    4    6 1
    10    6    7 1
    11    8    9 2
    12    8   10 am
    13   10   11 1
    14   10   22 1
    15   11   12 1
    16   11   23 1
    17   11   24 1
    18   12   13 1
    19   12   25 1
    20   12   26 1
    21   13   14 2
    22   14   19 1
    23   14   15 1
    24   15   16 2
    25   15   17 1
    26   17   18 2
    27   18   19 1
    28   18   20 1
    29   19   27 1
    30   20   28 1
    31   20   29 1
@<TRIPOS>MOLECULE
ZINC17175232
   28    30     0     0     0
SMALL
USER_CHARGES

@<TRIPOS>ATOM
      1 C1         -0.0163    1.3522    0.0095 C.2       1 <0>        -0.0983
      2 C2          1.3145    1.7899   -0.0009 C.2       1 <0>        -0.0189
      3 C3          2.1168    0.6384   -0.0541 C.2       1 <0>        -0.0368
      4 N1          1.2937   -0.4395   -0.0184 N.pl3     1 <0>        -0.4973
      5 H1          1.5775   -1.3670   -0.0089 H         1 <0>         0.4202
      6 C4          0.0021   -0.0041    0.0020 C.2       1 <0>         0.0129
      7 Br1        -1.5262   -1.1176    0.0181 Br        1 <0>        -0.0030
      8 C5          3.5767    0.7391   -0.1874 C.2       1 <0>         0.6096
      9 O1          4.1928    0.0172   -0.9493 O.2       1 <0>        -0.5369
     10 N2          4.2125    1.6688    0.5718 N.am      1 <0>        -0.7148
     11 C6          3.5436    2.2865    1.7066 C.3       1 <0>         0.1186
     12 C7          2.6766    3.4877    1.3173 C.3       1 <0>        -0.0808
     13 C8          1.8770    3.1431    0.0747 C.2       1 <0>        -0.1306
     14 C9          1.6904    4.0451   -0.9215 C.2       1 <0>         0.0830
     15 C10         0.9363    3.8581   -2.1778 C.2       1 <0>         0.5087
     16 O2          0.3478    2.8508   -2.5352 O.2       1 <0>        -0.5423
     17 N3          1.0276    5.0160   -2.8462 N.2       1 <0>        -0.7196
     18 C11         1.7387    5.8869   -2.1633 C.2       1 <0>         0.5696
     19 N4          2.1642    5.3588   -0.9829 N.pl3     1 <0>        -0.6730
     20 N5          2.0107    7.1602   -2.5824 N.2       1 <0>        -0.8577
     21 H2         -0.8954    1.9794    0.0253 H         1 <0>         0.1497
     22 H3          5.1230    1.9236    0.3550 H         1 <0>         0.4047
     23 H4          2.9118    1.5406    2.1889 H         1 <0>         0.0739
     24 H5          4.2983    2.6165    2.4205 H         1 <0>         0.0821
     25 H6          1.9957    3.7255    2.1345 H         1 <0>         0.0832
     26 H7          3.3154    4.3469    1.1126 H         1 <0>         0.0659
     27 H8          2.6983    5.8097   -0.3104 H         1 <0>         0.4064
     28 H9          1.6708    7.4730   -3.4354 H         1 <0>         0.3214
@<TRIPOS>BOND
     1    1    6 2
     2    1    2 1
     3    1   21 1
     4    2   13 1
     5    2    3 2
     6    3    4 1
     7    3    8 1
     8    4    5 1
     9    4    6 1
    10    6    7 1
    11    8    9 2
    12    8   10 am
    13   10   11 1
    14   10   22 1
    15   11   12 1
    16   11   23 1
    17   11   24 1
    18   12   13 1
    19   12   25 1
    20   12   26 1
    21   13   14 2
    22   14   19 1
    23   14   15 1
    24   15   16 2
    25   15   17 1
    26   17   18 2
    27   18   19 1
    28   18   20 1
    29   19   27 1
    30   20   28 1
@<TRIPOS>MOLECULE
ZINC06718468
   60    64     0     0     0
SMALL
USER_CHARGES

@<TRIPOS>ATOM
      1 C1         -0.0958    2.0449    0.1864 C.3       1 <0>        -0.1162
      2 C2         -0.1158    0.5568   -0.0503 C.ar      1 <0>        -0.0263
      3 C3         -0.1580    0.0634   -1.3375 C.ar      1 <0>        -0.1780
      4 C4         -0.1767   -1.3108   -1.5650 C.ar      1 <0>         0.2192
      5 C5         -0.1528   -2.1955   -0.5026 C.ar      1 <0>        -0.1734
      6 C6         -0.1095   -1.7058    0.8062 C.ar      1 <0>         0.1181
      7 C7         -0.0861   -0.3174    1.0258 C.ar      1 <0>        -0.0017
      8 N1         -0.0386   -0.1439    2.3999 N.pl3     1 <0>        -0.5817
      9 H1         -0.0164    0.7025    2.8731 H         1 <0>         0.4308
     10 C8         -0.0293   -1.3922    2.9648 C.2       1 <0>         0.3944
     11 N2         -0.0785   -2.3058    2.0220 N.2       1 <0>        -0.5393
     12 C9          0.0172   -1.6677    4.4100 C.2       1 <0>        -0.3013
     13 C10         0.1458   -2.9816    4.8829 C.2       1 <0>         0.3580
     14 C11         0.1866   -3.2003    6.2729 C.2       1 <0>        -0.2732
     15 C12         0.1024   -2.1542    7.1231 C.2       1 <0>         0.1851
     16 N3         -0.0227   -0.8808    6.6652 N.am      1 <0>        -0.6204
     17 H2         -0.0812   -0.1505    7.3008 H         1 <0>         0.4194
     18 C13        -0.0611   -0.6128    5.3467 C.2       1 <0>         0.5565
     19 O1         -0.1683    0.5394    4.9609 O.2       1 <0>        -0.5654
     20 N4          0.2302   -4.0395    4.0028 N.pl3     1 <0>        -0.6842
     21 C14         0.2417   -5.4142    4.5090 C.3       1 <0>         0.0775
     22 C15         0.3412   -6.3894    3.3342 C.3       1 <0>         0.1422
     23 H3         -0.4665   -6.1925    2.6292 H         1 <0>         0.1200
     24 C16         0.2295   -7.8031    3.8440 C.ar      1 <0>        -0.1062
     25 C17         1.3276   -8.4216    4.4126 C.ar      1 <0>        -0.1060
     26 C18         1.2260   -9.7182    4.8804 C.ar      1 <0>        -0.1011
     27 C19         0.0263  -10.3976    4.7797 C.ar      1 <0>        -0.1057
     28 C20        -1.0727   -9.7794    4.2110 C.ar      1 <0>        -0.0314
     29 C21        -0.9720   -8.4791    3.7483 C.ar      1 <0>        -0.0968
     30 Cl1        -2.5797  -10.6319    4.0842 Cl        1 <0>        -0.0630
     31 O2          1.5988   -6.2177    2.6778 O.3       1 <0>        -0.5410
     32 N5         -0.2205   -1.7985   -2.8758 N.pl3     1 <0>        -0.6339
     33 C22        -0.3691   -0.8847   -4.0195 C.3       1 <0>         0.0887
     34 C23         0.7218   -1.2127   -5.0453 C.3       1 <0>         0.0454
     35 O3          0.6848   -2.6109   -5.3409 O.3       1 <0>        -0.3803
     36 C24         0.9599   -3.4537   -4.2194 C.3       1 <0>         0.0459
     37 C25        -0.1131   -3.2400   -3.1516 C.3       1 <0>         0.0883
     38 H4          0.9360    2.3955    0.2083 H         1 <0>         0.0724
     39 H5         -0.6334    2.5480   -0.6174 H         1 <0>         0.0719
     40 H6         -0.5756    2.2677    1.1394 H         1 <0>         0.0613
     41 H7         -0.1770    0.7464   -2.1739 H         1 <0>         0.1288
     42 H8         -0.1677   -3.2602   -0.6830 H         1 <0>         0.1260
     43 H9          0.2849   -4.2040    6.6593 H         1 <0>         0.1530
     44 H10         0.1348   -2.3332    8.1876 H         1 <0>         0.1731
     45 H11         0.2820   -3.8736    3.0485 H         1 <0>         0.4349
     46 H12         1.0985   -5.5514    5.1686 H         1 <0>         0.0768
     47 H13        -0.6775   -5.6052    5.0628 H         1 <0>         0.0840
     48 H14         2.2653   -7.8915    4.4909 H         1 <0>         0.1287
     49 H15         2.0841  -10.2008    5.3245 H         1 <0>         0.1363
     50 H16        -0.0528  -11.4110    5.1447 H         1 <0>         0.1362
     51 H17        -1.8309   -7.9944    3.3082 H         1 <0>         0.1367
     52 H18         2.3644   -6.3772    3.2466 H         1 <0>         0.3755
     53 H19        -1.3514   -1.0198   -4.4722 H         1 <0>         0.0694
     54 H20        -0.2583    0.1461   -3.6826 H         1 <0>         0.0918
     55 H21         0.5466   -0.6429   -5.9579 H         1 <0>         0.1036
     56 H22         1.6976   -0.9530   -4.6348 H         1 <0>         0.0554
     57 H23         0.9560   -4.4962   -4.5377 H         1 <0>         0.1043
     58 H24         1.9365   -3.2022   -3.8059 H         1 <0>         0.0552
     59 H25         0.1671   -3.7683   -2.2403 H         1 <0>         0.0936
     60 H26        -1.0692   -3.6163   -3.5155 H         1 <0>         0.0686
@<TRIPOS>BOND
     1    1    2 1
     2    1   38 1
     3    1   39 1
     4    1   40 1
     5    2    7 ar
     6    2    3 ar
     7    3    4 ar
     8    3   41 1
     9    4    5 ar
    10    4   32 1
    11    5    6 ar
    12    5   42 1
    13    6   11 1
    14    6    7 ar
    15    7    8 1
    16    8    9 1
    17    8   10 1
    18   10   11 2
    19   10   12 1
    20   12   18 1
    21   12   13 2
    22   13   14 1
    23   13   20 1
    24   14   15 2
    25   14   43 1
    26   15   16 1
    27   15   44 1
    28   16   17 1
    29   16   18 am
    30   18   19 2
    31   20   21 1
    32   20   45 1
    33   21   22 1
    34   21   46 1
    35   21   47 1
    36   22   23 1
    37   22   24 1
    38   22   31 1
    39   24   29 ar
    40   24   25 ar
    41   25   26 ar
    42   25   48 1
    43   26   27 ar
    44   26   49 1
    45   27   28 ar
    46   27   50 1
    47   28   29 ar
    48   28   30 1
    49   29   51 1
    50   31   52 1
    51   32   37 1
    52   32   33 1
    53   33   34 1
    54   33   53 1
    55   33   54 1
    56   34   35 1
    57   34   55 1
    58   34   56 1
    59   35   36 1
    60   36   37 1
    61   36   57 1
    62   36   58 1
    63   37   59 1
    64   37   60 1
@<TRIPOS>MOLECULE
ZINC06718468
   60    64     0     0     0
SMALL
USER_CHARGES

@<TRIPOS>ATOM
      1 C1          0.1861    0.9402    0.2320 C.3       1 <0>        -0.1099
      2 C2          0.1885   -0.5661    0.2760 C.ar      1 <0>         0.0105
      3 C3          0.2130   -1.2834   -0.8862 C.ar      1 <0>        -0.1934
      4 C4          0.2155   -2.6762   -0.8597 C.ar      1 <0>         0.2379
      5 C5          0.1931   -3.3524    0.3500 C.ar      1 <0>        -0.2114
      6 C6          0.1681   -2.6355    1.5366 C.ar      1 <0>         0.1009
      7 C7          0.1715   -1.2297    1.5066 C.ar      1 <0>         0.0140
      8 N1          0.1514   -0.8003    2.7941 N.2       1 <0>        -0.5153
      9 C8          0.1414   -1.8338    3.6037 C.2       1 <0>         0.3723
     10 N2          0.1421   -2.9944    2.8723 N.pl3     1 <0>        -0.5878
     11 H1          0.1365   -3.8977    3.2257 H         1 <0>         0.4313
     12 C9          0.1201   -1.7586    5.0739 C.2       1 <0>        -0.2944
     13 C10        -0.0136   -0.5236    5.7239 C.2       1 <0>         0.3534
     14 C11        -0.0298   -0.4970    7.1313 C.2       1 <0>        -0.2716
     15 C12         0.0823   -1.6480    7.8290 C.2       1 <0>         0.1820
     16 N3          0.2123   -2.8452    7.1992 N.am      1 <0>        -0.6203
     17 H2          0.2910   -3.6547    7.7279 H         1 <0>         0.4189
     18 C13         0.2280   -2.9303    5.8560 C.2       1 <0>         0.5553
     19 O1          0.3405   -4.0175    5.3144 O.2       1 <0>        -0.5664
     20 N4         -0.1266    0.6435    4.9980 N.pl3     1 <0>        -0.6861
     21 C14        -0.1433    1.9361    5.6873 C.3       1 <0>         0.0780
     22 C15        -0.2761    3.0609    4.6587 C.3       1 <0>         0.1422
     23 H3          0.5199    2.9729    3.9193 H         1 <0>         0.1199
     24 C16        -0.1701    4.3933    5.3548 C.ar      1 <0>        -0.1060
     25 C17        -1.2638    4.9136    6.0217 C.ar      1 <0>        -0.1059
     26 C18        -1.1674    6.1356    6.6604 C.ar      1 <0>        -0.1011
     27 C19         0.0226    6.8384    6.6324 C.ar      1 <0>        -0.1059
     28 C20         1.1172    6.3184    5.9653 C.ar      1 <0>        -0.0315
     29 C21         1.0218    5.0921    5.3312 C.ar      1 <0>        -0.0968
     30 Cl1         2.6119    7.2005    5.9296 Cl        1 <0>        -0.0631
     31 O2         -1.5442    2.9634    4.0072 O.3       1 <0>        -0.5411
     32 N5          0.2402   -3.3953   -2.0590 N.pl3     1 <0>        -0.6312
     33 C22         0.3654   -4.8615   -2.0606 C.3       1 <0>         0.0865
     34 C23        -0.7404   -5.4402   -2.9506 C.3       1 <0>         0.0458
     35 O3         -0.7012   -4.7983   -4.2274 O.3       1 <0>        -0.3797
     36 C24        -0.9535   -3.3918   -4.1834 C.3       1 <0>         0.0453
     37 C25         0.1357   -2.7087   -3.3563 C.3       1 <0>         0.0882
     38 H4          1.2131    1.3055    0.2367 H         1 <0>         0.0703
     39 H5         -0.3149    1.2764   -0.6758 H         1 <0>         0.0645
     40 H6         -0.3416    1.3283    1.1032 H         1 <0>         0.0739
     41 H7          0.2303   -0.7662   -1.8342 H         1 <0>         0.1282
     42 H8          0.1946   -4.4322    0.3682 H         1 <0>         0.1205
     43 H9         -0.1314    0.4433    7.6528 H         1 <0>         0.1523
     44 H10         0.0686   -1.6162    8.9085 H         1 <0>         0.1725
     45 H11        -0.1949    0.6085    4.0311 H         1 <0>         0.4342
     46 H12        -0.9888    1.9705    6.3745 H         1 <0>         0.0761
     47 H13         0.7842    2.0621    6.2458 H         1 <0>         0.0833
     48 H14        -2.1940    4.3651    6.0433 H         1 <0>         0.1287
     49 H15        -2.0220    6.5415    7.1812 H         1 <0>         0.1361
     50 H16         0.0976    7.7936    7.1308 H         1 <0>         0.1361
     51 H17         1.8773    4.6836    4.8140 H         1 <0>         0.1367
     52 H18        -2.3004    3.0335    4.6059 H         1 <0>         0.3756
     53 H19         1.3408   -5.1463   -2.4550 H         1 <0>         0.0707
     54 H20         0.2549   -5.2405   -1.0446 H         1 <0>         0.0921
     55 H21        -0.5831   -6.5114   -3.0767 H         1 <0>         0.1043
     56 H22        -1.7107   -5.2663   -2.4854 H         1 <0>         0.0557
     57 H23        -0.9495   -2.9893   -5.1964 H         1 <0>         0.1053
     58 H24        -1.9246   -3.2104   -3.7226 H         1 <0>         0.0555
     59 H25        -0.1269   -1.6627   -3.1979 H         1 <0>         0.0936
     60 H26         1.0876   -2.7730   -3.8834 H         1 <0>         0.0702
@<TRIPOS>BOND
     1    1    2 1
     2    1   38 1
     3    1   39 1
     4    1   40 1
     5    2    7 ar
     6    2    3 ar
     7    3    4 ar
     8    3   41 1
     9    4    5 ar
    10    4   32 1
    11    5    6 ar
    12    5   42 1
    13    6   10 1
    14    6    7 ar
    15    7    8 1
    16    8    9 2
    17    9   10 1
    18    9   12 1
    19   10   11 1
    20   12   18 1
    21   12   13 2
    22   13   14 1
    23   13   20 1
    24   14   15 2
    25   14   43 1
    26   15   16 1
    27   15   44 1
    28   16   17 1
    29   16   18 am
    30   18   19 2
    31   20   21 1
    32   20   45 1
    33   21   22 1
    34   21   46 1
    35   21   47 1
    36   22   23 1
    37   22   24 1
    38   22   31 1
    39   24   29 ar
    40   24   25 ar
    41   25   26 ar
    42   25   48 1
    43   26   27 ar
    44   26   49 1
    45   27   28 ar
    46   27   50 1
    47   28   29 ar
    48   28   30 1
    49   29   51 1
    50   31   52 1
    51   32   37 1
    52   32   33 1
    53   33   34 1
    54   33   53 1
    55   33   54 1
    56   34   35 1
    57   34   55 1
    58   34   56 1
    59   35   36 1
    60   36   37 1
    61   36   57 1
    62   36   58 1
    63   37   59 1
    64   37   60 1
@<TRIPOS>MOLECULE
ZINC01650601
   28    30     0     0     0
SMALL
USER_CHARGES
1-(3-chloro-1,4-dioxo-2-naphthyl)pyrrolidine-2,5-dione
@<TRIPOS>ATOM
      1 C1          1.1326    1.7746    0.4889 C.ar      1 <0>        -0.0916
      2 C2         -0.0353    1.0740    0.2571 C.ar      1 <0>        -0.0919
      3 C3         -1.2252    1.7479    0.0281 C.ar      1 <0>        -0.0572
      4 C4         -1.2460    3.1367    0.0430 C.ar      1 <0>        -0.1190
      5 C5         -0.0573    3.8499    0.2790 C.ar      1 <0>        -0.1183
      6 C6          1.1291    3.1606    0.5013 C.ar      1 <0>        -0.0573
      7 C7         -0.0874    5.3284    0.2865 C.2       1 <0>         0.4346
      8 O1          0.9309    5.9586    0.4892 O.2       1 <0>        -0.3974
      9 C8         -1.3645    6.0362    0.0464 C.2       1 <0>         0.0920
     10 C9         -2.5037    5.3463   -0.1797 C.2       1 <0>        -0.0561
     11 C10        -2.5050    3.8779   -0.1933 C.2       1 <0>         0.4341
     12 O2         -3.5389    3.2720   -0.3979 O.2       1 <0>        -0.3893
     13 Cl1        -3.9853    6.2069   -0.4585 Cl        1 <0>         0.0015
     14 N1         -1.3924    7.4268    0.0541 N.am      1 <0>        -0.5310
     15 C11        -0.7655    8.1690   -0.8670 C.2       1 <0>         0.5300
     16 O3         -0.1151    7.7361   -1.7937 O.2       1 <0>        -0.4583
     17 C12        -1.0003    9.6340   -0.5697 C.3       1 <0>        -0.1502
     18 C13        -1.8726    9.6095    0.7020 C.3       1 <0>        -0.1495
     19 C14        -2.0437    8.1332    0.9863 C.2       1 <0>         0.5246
     20 O4         -2.6713    7.6645    1.9113 O.2       1 <0>        -0.4566
     21 H1          2.0544    1.2388    0.6613 H         1 <0>         0.1446
     22 H2         -0.0206   -0.0059    0.2497 H         1 <0>         0.1448
     23 H3         -2.1340    1.1945   -0.1573 H         1 <0>         0.1496
     24 H4          2.0451    3.7032    0.6827 H         1 <0>         0.1483
     25 H5         -1.5322   10.1151   -1.3905 H         1 <0>         0.1297
     26 H6         -0.0551   10.1415   -0.3768 H         1 <0>         0.1301
     27 H7         -2.8384   10.0784    0.5138 H         1 <0>         0.1296
     28 H8         -1.3602   10.1025    1.5282 H         1 <0>         0.1300
@<TRIPOS>BOND
     1    1    6 ar
     2    1    2 ar
     3    1   21 1
     4    2    3 ar
     5    2   22 1
     6    3    4 ar
     7    3   23 1
     8    4   11 1
     9    4    5 ar
    10    5    6 ar
    11    5    7 1
    12    6   24 1
    13    7    8 2
    14    7    9 1
    15    9   10 2
    16    9   14 1
    17   10   11 1
    18   10   13 1
    19   11   12 2
    20   14   19 am
    21   14   15 am
    22   15   16 2
    23   15   17 1
    24   17   18 1
    25   17   25 1
    26   17   26 1
    27   18   19 1
    28   18   27 1
    29   18   28 1
    30   19   20 2
@<TRIPOS>MOLECULE
ZINC15924360
   21    22     0     0     0
SMALL
USER_CHARGES

@<TRIPOS>ATOM
      1 C1          0.1691    1.2579    0.2221 C.ar      1 <0>        -0.1443
      2 C2          1.4052    1.8426    0.4156 C.ar      1 <0>        -0.0799
      3 C3          2.5265    1.0509    0.5925 C.ar      1 <0>        -0.0649
      4 C4          2.4126   -0.3282    0.5763 C.ar      1 <0>        -0.0718
      5 C5          1.1791   -0.9183    0.3831 C.ar      1 <0>        -0.1429
      6 C6          0.0519   -0.1262    0.2054 C.ar      1 <0>         0.1784
      7 N1         -1.1981   -0.7207    0.0101 N.pl3     1 <0>        -0.6269
      8 C7         -1.2956   -1.9134   -0.6821 C.2       1 <0>         0.0980
      9 C8         -2.4216   -2.7159   -0.8781 C.2       1 <0>        -0.2511
     10 C9         -2.1815   -3.8690   -1.6333 C.2       1 <0>         0.4249
     11 O1         -3.1756   -4.7517   -1.9116 O.3       1 <0>        -0.6992
     12 N2         -0.9619   -4.0615   -2.0601 N.2       1 <0>        -0.5801
     13 S1         -0.0921   -2.7488   -1.4994 S.3       1 <0>         0.2328
     14 C10        -3.7116   -2.3872   -0.3504 C.1       1 <0>         0.3202
     15 N3         -4.7349   -2.1264    0.0682 N.1       1 <0>        -0.4854
     16 Cl1         4.0789    1.7893    0.8344 Cl        1 <0>        -0.0788
     17 H1         -0.7062    1.8762    0.0882 H         1 <0>         0.1343
     18 H2          1.4970    2.9186    0.4287 H         1 <0>         0.1348
     19 H3          3.2894   -0.9435    0.7146 H         1 <0>         0.1387
     20 H4          1.0910   -1.9946    0.3699 H         1 <0>         0.1488
     21 H5         -1.9970   -0.2964    0.3602 H         1 <0>         0.4144
@<TRIPOS>BOND
     1    1    6 ar
     2    1    2 ar
     3    1   17 1
     4    2    3 ar
     5    2   18 1
     6    3    4 ar
     7    3   16 1
     8    4    5 ar
     9    4   19 1
    10    5    6 ar
    11    5   20 1
    12    6    7 1
    13    7    8 1
    14    7   21 1
    15    8   13 1
    16    8    9 2
    17    9   10 1
    18    9   14 1
    19   10   11 1
    20   10   12 2
    21   12   13 1
    22   14   15 3
@<TRIPOS>MOLECULE
ZINC01615344
   51    53     0     0     0
SMALL
USER_CHARGES

@<TRIPOS>ATOM
      1 C1         -0.0173    1.4248    0.0099 C.3       1 <0>         0.0256
      2 O1          0.0021   -0.0041    0.0020 O.3       1 <0>        -0.3065
      3 C2         -1.2011   -0.6379    0.0101 C.ar      1 <0>         0.0993
      4 C3         -2.3743    0.0994    0.0195 C.ar      1 <0>        -0.1693
      5 C4         -3.5965   -0.5465    0.0272 C.ar      1 <0>        -0.1091
      6 C5         -3.6519   -1.9279    0.0261 C.ar      1 <0>        -0.0852
      7 C6         -2.4852   -2.6694    0.0172 C.ar      1 <0>        -0.1716
      8 C7         -1.2569   -2.0283    0.0032 C.ar      1 <0>         0.1039
      9 O2         -0.1083   -2.7563   -0.0116 O.3       1 <0>        -0.3053
     10 C8         -0.2420   -4.1790   -0.0180 C.3       1 <0>         0.0249
     11 C9         -4.9869   -2.6268    0.0350 C.3       1 <0>        -0.0686
     12 C10        -5.4493   -2.8618   -1.4044 C.3       1 <0>        -0.1153
     13 H1         -5.4543   -1.9272   -1.9653 H         1 <0>         0.1076
     14 C11        -4.5584   -3.9177   -2.1029 C.3       1 <0>         0.0562
     15 O3         -5.4911   -4.6929   -2.8869 O.3       1 <0>        -0.3523
     16 C12        -6.5887   -4.8681   -2.1117 C.2       1 <0>         0.4846
     17 O4         -7.2344   -5.8816   -1.9860 O.2       1 <0>        -0.4242
     18 C13        -6.8462   -3.5269   -1.4316 C.3       1 <0>        -0.1419
     19 H2         -7.2197   -3.6752   -0.4184 H         1 <0>         0.1150
     20 C14        -7.8270   -2.6846   -2.2498 C.3       1 <0>        -0.0616
     21 C15        -9.2049   -3.2881   -2.1587 C.ar      1 <0>        -0.0626
     22 C16        -9.6036   -4.2391   -3.0795 C.ar      1 <0>        -0.1242
     23 C17       -10.8666   -4.7957   -3.0002 C.ar      1 <0>        -0.1002
     24 C18       -11.7358   -4.4009   -1.9959 C.ar      1 <0>         0.0757
     25 C19       -11.3343   -3.4440   -1.0689 C.ar      1 <0>         0.1038
     26 C20       -10.0653   -2.8936   -1.1512 C.ar      1 <0>        -0.1873
     27 O5        -12.1839   -3.0533   -0.0814 O.3       1 <0>        -0.3075
     28 C21       -11.7041   -2.0669    0.8346 C.3       1 <0>         0.0248
     29 O6        -12.9787   -4.9471   -1.9168 O.3       1 <0>        -0.4870
     30 H3          1.0053    1.8021    0.0021 H         1 <0>         0.1019
     31 H4         -0.5445    1.7859   -0.8732 H         1 <0>         0.0556
     32 H5         -0.5275    1.7763    0.9067 H         1 <0>         0.0554
     33 H6         -2.3338    1.1787    0.0211 H         1 <0>         0.1364
     34 H7         -4.5102    0.0294    0.0345 H         1 <0>         0.1282
     35 H8         -2.5312   -3.7485    0.0167 H         1 <0>         0.1342
     36 H9         -0.7791   -4.4975    0.8754 H         1 <0>         0.0552
     37 H10        -0.7960   -4.4879   -0.9044 H         1 <0>         0.0552
     38 H11         0.7471   -4.6369   -0.0298 H         1 <0>         0.1026
     39 H12        -4.8923   -3.5844    0.5471 H         1 <0>         0.0776
     40 H13        -5.7178   -2.0075    0.5549 H         1 <0>         0.0868
     41 H14        -3.8257   -3.4334   -2.7486 H         1 <0>         0.1157
     42 H15        -4.0621   -4.5481   -1.3650 H         1 <0>         0.0792
     43 H16        -7.8488   -1.6682   -1.8568 H         1 <0>         0.0933
     44 H17        -7.5073   -2.6645   -3.2917 H         1 <0>         0.0857
     45 H18        -8.9271   -4.5477   -3.8628 H         1 <0>         0.1241
     46 H19       -11.1759   -5.5379   -3.7212 H         1 <0>         0.1371
     47 H20        -9.7499   -2.1535   -0.4307 H         1 <0>         0.1331
     48 H21       -10.8173   -2.4446    1.3436 H         1 <0>         0.0552
     49 H22       -11.4506   -1.1577    0.2895 H         1 <0>         0.0560
     50 H23       -12.4784   -1.8462    1.5693 H         1 <0>         0.1019
     51 H24       -13.0241   -5.7440   -1.3709 H         1 <0>         0.3878
@<TRIPOS>BOND
     1    1    2 1
     2    1   30 1
     3    1   31 1
     4    1   32 1
     5    2    3 1
     6    3    8 ar
     7    3    4 ar
     8    4    5 ar
     9    4   33 1
    10    5    6 ar
    11    5   34 1
    12    6    7 ar
    13    6   11 1
    14    7    8 ar
    15    7   35 1
    16    8    9 1
    17    9   10 1
    18   10   36 1
    19   10   37 1
    20   10   38 1
    21   11   12 1
    22   11   39 1
    23   11   40 1
    24   12   13 1
    25   12   18 1
    26   12   14 1
    27   14   15 1
    28   14   41 1
    29   14   42 1
    30   15   16 1
    31   16   17 2
    32   16   18 1
    33   18   19 1
    34   18   20 1
    35   20   21 1
    36   20   43 1
    37   20   44 1
    38   21   26 ar
    39   21   22 ar
    40   22   23 ar
    41   22   45 1
    42   23   24 ar
    43   23   46 1
    44   24   25 ar
    45   24   29 1
    46   25   26 ar
    47   25   27 1
    48   26   47 1
    49   27   28 1
    50   28   48 1
    51   28   49 1
    52   28   50 1
    53   29   51 1
@<TRIPOS>MOLECULE
ZINC13310237
   20    21     0     0     0
SMALL
USER_CHARGES

@<TRIPOS>ATOM
      1 C1         -0.0163    1.3532    0.0095 C.2       1 <0>        -0.0974
      2 C2          1.3149    1.7871   -0.0009 C.2       1 <0>        -0.1950
      3 C3          2.1132    0.6351   -0.0540 C.2       1 <0>         0.0127
      4 N1          1.2937   -0.4372   -0.0182 N.pl3     1 <0>        -0.4785
      5 H1          1.5780   -1.3646   -0.0088 H         1 <0>         0.4321
      6 C4          0.0021   -0.0041    0.0020 C.2       1 <0>         0.0135
      7 Br1        -1.5253   -1.1188    0.0179 Br        1 <0>         0.0270
      8 C5          3.5791    0.7339   -0.1876 C.2       1 <0>         0.5955
      9 O1          4.1937    0.0111   -0.9487 O.2       1 <0>        -0.5104
     10 N2          4.2163    1.6630    0.5711 N.am      1 <0>        -0.7200
     11 C6          3.5481    2.2825    1.7054 C.3       1 <0>         0.1136
     12 C7          2.6829    3.4846    1.3154 C.3       1 <0>        -0.1822
     13 C8          1.8820    3.1413    0.0742 C.2       1 <0>         0.4302
     14 O2          1.7169    3.9477   -0.8163 O.2       1 <0>        -0.4312
     15 H2         -0.8945    1.9816    0.0252 H         1 <0>         0.1640
     16 H3          5.1273    1.9160    0.3545 H         1 <0>         0.4147
     17 H4          2.9152    1.5378    2.1881 H         1 <0>         0.0845
     18 H5          4.3032    2.6118    2.4192 H         1 <0>         0.1021
     19 H6          2.0028    3.7242    2.1328 H         1 <0>         0.1228
     20 H7          3.3231    4.3425    1.1099 H         1 <0>         0.1021
@<TRIPOS>BOND
     1    1    6 2
     2    1    2 1
     3    1   15 1
     4    2   13 1
     5    2    3 2
     6    3    4 1
     7    3    8 1
     8    4    5 1
     9    4    6 1
    10    6    7 1
    11    8    9 2
    12    8   10 am
    13   10   11 1
    14   10   16 1
    15   11   12 1
    16   11   17 1
    17   11   18 1
    18   12   13 1
    19   12   19 1
    20   12   20 1
    21   13   14 2
@<TRIPOS>MOLECULE
ZINC03952380
   72    74     0     0     0
SMALL
USER_CHARGES
1-[3-(2,6-dichlorophenyl)-8-(4-diethylaminobutylamino)-5,7,9-triazabicyclo[4.4.0]deca-2,4,7,9,11-pentaen-4-yl]-3-tert-butyl-urea
@<TRIPOS>ATOM
      1 C1         -4.4663    6.7451   -2.1992 C.3       1 <0>        -0.1869
      2 C2         -3.7440    7.5917   -1.1493 C.3       1 <0>        -0.0140
      3 C3         -5.7495    7.7763    0.1948 C.3       1 <0>        -0.0122
      4 C4         -5.8211    9.3045    0.1743 C.3       1 <0>        -0.1886
      5 C5         -4.2126    5.9411    0.5591 C.3       1 <0>        -0.0109
      6 C6         -2.7345    5.6035    0.7639 C.3       1 <0>        -0.1438
      7 C7         -2.5983    4.1344    1.1690 C.3       1 <0>        -0.1329
      8 C8         -1.1201    3.7968    1.3738 C.3       1 <0>         0.1393
      9 N1         -0.9897    2.3901    1.7617 N.pl3     1 <0>        -0.6988
     10 C9          0.2606    1.8528    2.0025 C.ar      1 <0>         0.5908
     11 N2          1.3286    2.6364    1.8690 N.ar      1 <0>        -0.5736
     12 C10         2.5462    2.1791    2.0797 C.ar      1 <0>         0.2660
     13 C11         2.7015    0.8330    2.4529 C.ar      1 <0>        -0.2909
     14 C12         3.9658    0.2710    2.6947 C.ar      1 <0>         0.0475
     15 C13         4.0241   -1.0651    3.0577 C.ar      1 <0>        -0.1607
     16 C14         2.8285   -1.8061    3.1708 C.ar      1 <0>         0.4876
     17 N3          1.6541   -1.2563    2.9386 N.ar      1 <0>        -0.4748
     18 C15         1.5415    0.0257    2.5863 C.ar      1 <0>         0.4312
     19 N4          0.3471    0.5830    2.3502 N.ar      1 <0>        -0.5595
     20 N5          2.8912   -3.1435    3.5349 N.am      1 <0>        -0.6592
     21 C16         1.7585   -3.8651    3.6472 C.2       1 <0>         0.6931
     22 O1          0.6818   -3.3443    3.4295 O.2       1 <0>        -0.5048
     23 N6          1.8195   -5.1642    4.0010 N.am      1 <0>        -0.7340
     24 C17         0.5883   -5.9487    4.1231 C.3       1 <0>         0.1879
     25 C18        -0.1412   -5.9656    2.7783 C.3       1 <0>        -0.1657
     26 C19         0.9349   -7.3813    4.5333 C.3       1 <0>        -0.1564
     27 C20        -0.3148   -5.3184    5.1852 C.3       1 <0>        -0.1657
     28 C21         5.3318   -1.7107    3.3246 C.ar      1 <0>        -0.0437
     29 C22         6.0299   -2.3328    2.2896 C.ar      1 <0>        -0.0133
     30 C23         7.2503   -2.9280    2.5437 C.ar      1 <0>        -0.1036
     31 C24         7.7753   -2.9171    3.8233 C.ar      1 <0>        -0.0815
     32 C25         7.0852   -2.3068    4.8551 C.ar      1 <0>        -0.1036
     33 C26         5.8664   -1.7036    4.6130 C.ar      1 <0>        -0.0132
     34 Cl1         5.0016   -0.9387    5.9094 Cl        1 <0>        -0.0433
     35 Cl2         5.3693   -2.3538    0.6844 Cl        1 <0>        -0.0434
     36 H1         -4.0065    6.9055   -3.1744 H         1 <0>         0.1057
     37 H2         -4.3908    5.6913   -1.9309 H         1 <0>         0.0804
     38 H3         -5.5162    7.0352   -2.2404 H         1 <0>         0.0800
     39 H4         -3.8394    8.6470   -1.4052 H         1 <0>         0.1289
     40 H5         -2.6893    7.3178   -1.1245 H         1 <0>         0.1296
     41 H6         -6.2651    7.3767   -0.6785 H         1 <0>         0.1321
     42 H7         -6.2262    7.4024    1.1009 H         1 <0>         0.1285
     43 H8         -6.8645    9.6196    0.1898 H         1 <0>         0.1058
     44 H9         -5.3079    9.7041    1.0489 H         1 <0>         0.0802
     45 H10        -5.3421    9.6786   -0.7305 H         1 <0>         0.0792
     46 H11        -4.6244    5.3079   -0.2268 H         1 <0>         0.1339
     47 H12        -4.7569    5.7683    1.4875 H         1 <0>         0.1302
     48 H13        -2.3227    6.2368    1.5498 H         1 <0>         0.0912
     49 H14        -2.1902    5.7764   -0.1645 H         1 <0>         0.0908
     50 H15        -3.0100    3.5012    0.3831 H         1 <0>         0.0823
     51 H16        -3.1425    3.9616    2.0974 H         1 <0>         0.0829
     52 H17        -0.7083    4.4301    2.1597 H         1 <0>         0.0712
     53 H18        -0.5759    3.9697    0.4454 H         1 <0>         0.0709
     54 H19        -1.7808    1.8359    1.8494 H         1 <0>         0.4172
     55 H20         3.4054    2.8240    1.9687 H         1 <0>         0.1807
     56 H21         4.8648    0.8621    2.6010 H         1 <0>         0.1525
     57 H22         3.7503   -3.5590    3.7086 H         1 <0>         0.4130
     58 H23         2.6786   -5.5798    4.1747 H         1 <0>         0.3948
     59 H24         0.5022   -6.4147    2.0216 H         1 <0>         0.0532
     60 H25        -1.0573   -6.5493    2.8692 H         1 <0>         0.0646
     61 H26        -0.3882   -4.9450    2.4860 H         1 <0>         0.0802
     62 H27         1.4546   -7.3693    5.4914 H         1 <0>         0.0630
     63 H28         0.0188   -7.9650    4.6242 H         1 <0>         0.0775
     64 H29         1.5783   -7.8304    3.7766 H         1 <0>         0.0630
     65 H30        -0.5618   -4.2978    4.8930 H         1 <0>         0.0802
     66 H31        -1.2309   -5.9021    5.2761 H         1 <0>         0.0646
     67 H32         0.2049   -5.3063    6.1433 H         1 <0>         0.0532
     68 H33         7.7940   -3.4061    1.7423 H         1 <0>         0.1465
     69 H34         8.7278   -3.3874    4.0178 H         1 <0>         0.1484
     70 H35         7.5004   -2.3017    5.8521 H         1 <0>         0.1466
     71 N7         -4.3291    7.3675    0.1894 N.4       1 <0>        -0.3960
     72 H36        -3.8167    7.9330    0.8763 H         1 <0>         0.4282
@<TRIPOS>BOND
     1    1    2 1
     2    1   36 1
     3    1   37 1
     4    1   38 1
     5    2   39 1
     6    2   40 1
     7    2   71 1
     8    3    4 1
     9    3   41 1
    10    3   42 1
    11    3   71 1
    12    4   43 1
    13    4   44 1
    14    4   45 1
    15    5    6 1
    16    5   46 1
    17    5   47 1
    18    5   71 1
    19    6    7 1
    20    6   48 1
    21    6   49 1
    22    7    8 1
    23    7   50 1
    24    7   51 1
    25    8    9 1
    26    8   52 1
    27    8   53 1
    28    9   10 1
    29    9   54 1
    30   10   19 ar
    31   10   11 ar
    32   11   12 ar
    33   12   13 ar
    34   12   55 1
    35   13   18 ar
    36   13   14 ar
    37   14   15 ar
    38   14   56 1
    39   15   16 ar
    40   15   28 1
    41   16   17 ar
    42   16   20 1
    43   17   18 ar
    44   18   19 ar
    45   20   21 am
    46   20   57 1
    47   21   22 2
    48   21   23 am
    49   23   24 1
    50   23   58 1
    51   24   25 1
    52   24   26 1
    53   24   27 1
    54   25   59 1
    55   25   60 1
    56   25   61 1
    57   26   62 1
    58   26   63 1
    59   26   64 1
    60   27   65 1
    61   27   66 1
    62   27   67 1
    63   28   33 ar
    64   28   29 ar
    65   29   30 ar
    66   29   35 1
    67   30   31 ar
    68   30   68 1
    69   31   32 ar
    70   31   69 1
    71   32   33 ar
    72   32   70 1
    73   33   34 1
    74   71   72 1
@<TRIPOS>MOLECULE
ZINC03938683
   40    41     0     0     0
SMALL
USER_CHARGES
N-(2,3-dihydroxypropoxy)-3,4-difluoro-2-(2-fluoro-4-iodo-phenyl)amino-benzamide
@<TRIPOS>ATOM
      1 C1         -0.4805    4.8379   11.6681 C.ar      1 <0>        -0.0444
      2 C2         -0.3159    3.9682   10.6070 C.ar      1 <0>        -0.1627
      3 C3         -1.2826    3.8962    9.6134 C.ar      1 <0>         0.2211
      4 C4         -2.4124    4.7050    9.6866 C.ar      1 <0>         0.0464
      5 C5         -2.5736    5.5683   10.7541 C.ar      1 <0>        -0.0730
      6 C6         -1.6069    5.6368   11.7419 C.ar      1 <0>        -0.1261
      7 I1         -1.8506    6.9533   13.3533 I         1 <0>        -0.0326
      8 F1         -3.3529    4.6427    8.7188 F         1 <0>        -0.1329
      9 N1         -1.1186    3.0167    8.5381 N.pl3     1 <0>        -0.6788
     10 C7         -0.0550    2.1208    8.5286 C.ar      1 <0>         0.1988
     11 C8          1.2025    2.5234    8.0508 C.ar      1 <0>        -0.1135
     12 C9          2.2655    1.6156    8.0512 C.ar      1 <0>        -0.0636
     13 C10         2.0748    0.3329    8.5135 C.ar      1 <0>        -0.1218
     14 C11         0.8299   -0.0662    8.9815 C.ar      1 <0>         0.1068
     15 C12        -0.2326    0.8209    8.9871 C.ar      1 <0>         0.0674
     16 F2         -1.4410    0.4247    9.4431 F         1 <0>        -0.1088
     17 F3          0.6546   -1.3274    9.4332 F         1 <0>        -0.1135
     18 C13         1.4021    3.8971    7.5574 C.2       1 <0>         0.5704
     19 O1          0.4537    4.6523    7.4605 O.2       1 <0>        -0.4822
     20 N2          2.6358    4.3171    7.2135 N.am      1 <0>        -0.5971
     21 O2          2.8276    5.6374    6.7393 O.3       1 <0>        -0.1187
     22 C14         4.1840    5.9463    6.4124 C.3       1 <0>        -0.0006
     23 C15         4.2724    7.3901    5.9139 C.3       1 <0>         0.1157
     24 H1          3.8419    8.0588    6.6592 H         1 <0>         0.1192
     25 C16         5.7387    7.7608    5.6824 C.3       1 <0>         0.0513
     26 O3          5.8306    9.1424    5.3291 O.3       1 <0>        -0.5594
     27 O4          3.5500    7.5155    4.6874 O.3       1 <0>        -0.5388
     28 H2          0.2719    4.8940   12.4408 H         1 <0>         0.1361
     29 H3          0.5645    3.3452   10.5505 H         1 <0>         0.1312
     30 H4         -3.4522    6.1935   10.8146 H         1 <0>         0.1439
     31 H5         -1.7467    3.0317    7.7991 H         1 <0>         0.4238
     32 H6          3.2363    1.9204    7.6891 H         1 <0>         0.1490
     33 H7          2.8978   -0.3664    8.5127 H         1 <0>         0.1622
     34 H8          3.3922    3.7148    7.2909 H         1 <0>         0.4046
     35 H9          4.5325    5.2703    5.6316 H         1 <0>         0.0702
     36 H10         4.8071    5.8293    7.2991 H         1 <0>         0.0767
     37 H11         6.1443    7.1515    4.8747 H         1 <0>         0.0540
     38 H12         6.3074    7.5804    6.5945 H         1 <0>         0.0598
     39 H13         6.7338    9.4477    5.1673 H         1 <0>         0.3856
     40 H14         3.8791    6.9478    3.9772 H         1 <0>         0.3742
@<TRIPOS>BOND
     1    1    6 ar
     2    1    2 ar
     3    1   28 1
     4    2    3 ar
     5    2   29 1
     6    3    4 ar
     7    3    9 1
     8    4    5 ar
     9    4    8 1
    10    5    6 ar
    11    5   30 1
    12    6    7 1
    13    9   10 1
    14    9   31 1
    15   10   15 ar
    16   10   11 ar
    17   11   12 ar
    18   11   18 1
    19   12   13 ar
    20   12   32 1
    21   13   14 ar
    22   13   33 1
    23   14   15 ar
    24   14   17 1
    25   15   16 1
    26   18   19 2
    27   18   20 am
    28   20   21 1
    29   20   34 1
    30   21   22 1
    31   22   23 1
    32   22   35 1
    33   22   36 1
    34   23   24 1
    35   23   25 1
    36   23   27 1
    37   25   26 1
    38   25   37 1
    39   25   38 1
    40   26   39 1
    41   27   40 1
@<TRIPOS>MOLECULE
ZINC03816310
   51    55     0     0     0
SMALL
USER_CHARGES
4-amino-5-fluoro-3-[5-(4-methylpiperazin-1-yl)-3H-benzoimidazol-2-yl]-1H-quinolin-2-one
@<TRIPOS>ATOM
      1 C1         -4.4670    0.8494    3.0633 C.3       1 <0>        -0.0407
      2 C2         -3.3790    0.9463    0.9019 C.3       1 <0>         0.0019
      3 C3         -3.5151    1.4789   -0.5264 C.3       1 <0>         0.0203
      4 N1         -3.5799    2.9467   -0.4951 N.pl3     1 <0>        -0.4822
      5 C4         -4.7239    3.4034    0.3063 C.3       1 <0>         0.0231
      6 C5         -4.5878    2.8708    1.7347 C.3       1 <0>         0.0021
      7 C6         -3.6324    3.4738   -1.7895 C.ar      1 <0>         0.0898
      8 C7         -3.6187    2.6172   -2.8884 C.ar      1 <0>        -0.1658
      9 C8         -3.6694    3.1157   -4.1588 C.ar      1 <0>        -0.0428
     10 C9         -3.7362    4.4973   -4.3655 C.ar      1 <0>         0.0571
     11 C10        -3.7506    5.3641   -3.2589 C.ar      1 <0>         0.0655
     12 C11        -3.7036    4.8454   -1.9734 C.ar      1 <0>        -0.1134
     13 N2         -3.8198    6.6467   -3.7722 N.pl3     1 <0>        -0.5851
     14 H1         -3.8464    7.4962   -3.2453 H         1 <0>         0.4436
     15 C12        -3.8451    6.5353   -5.1390 C.2       1 <0>         0.4046
     16 N3         -3.7957    5.2687   -5.4809 N.2       1 <0>        -0.5294
     17 C13        -3.9164    7.6652   -6.0804 C.2       1 <0>        -0.3025
     18 C14        -4.0559    7.4305   -7.4504 C.2       1 <0>         0.3760
     19 C15        -4.1228    8.5898   -8.3476 C.ar      1 <0>        -0.1878
     20 C16        -4.0447    9.8830   -7.7997 C.ar      1 <0>         0.2450
     21 C17        -4.1078   10.9864   -8.6429 C.ar      1 <0>        -0.1734
     22 C18        -4.2458   10.8081  -10.0035 C.ar      1 <0>        -0.0185
     23 C19        -4.3231    9.5350  -10.5468 C.ar      1 <0>        -0.1801
     24 C20        -4.2628    8.4239   -9.7304 C.ar      1 <0>         0.1680
     25 F1         -4.3388    7.1843  -10.2623 F         1 <0>        -0.1206
     26 N4         -3.9076   10.0470   -6.4354 N.am      1 <0>        -0.6368
     27 H2         -3.8498   10.9715   -6.0585 H         1 <0>         0.4300
     28 C21        -3.8500    8.9949   -5.6023 C.2       1 <0>         0.5826
     29 O1         -3.7334    9.1908   -4.4050 O.2       1 <0>        -0.5600
     30 N5         -4.1288    6.1500   -7.9440 N.pl3     1 <0>        -0.8025
     31 H3         -3.5472    1.1734    3.5502 H         1 <0>         0.1241
     32 H4         -5.3249    1.2032    3.6351 H         1 <0>         0.1225
     33 H5         -4.4877   -0.2393    3.0134 H         1 <0>         0.1228
     34 H6         -3.3598   -0.1434    0.8835 H         1 <0>         0.1376
     35 H7         -2.4541    1.3189    1.3424 H         1 <0>         0.1399
     36 H8         -2.6529    1.1655   -1.1151 H         1 <0>         0.1307
     37 H9         -4.4260    1.0841   -0.9765 H         1 <0>         0.0717
     38 H10        -4.7431    4.4931    0.3248 H         1 <0>         0.1261
     39 H11        -5.6486    3.0309   -0.1345 H         1 <0>         0.0691
     40 H12        -3.6769    3.2656    2.1847 H         1 <0>         0.1400
     41 H13        -5.4498    3.1846    2.3235 H         1 <0>         0.1367
     42 H14        -3.5672    1.5496   -2.7341 H         1 <0>         0.1314
     43 H15        -3.6582    2.4431   -5.0037 H         1 <0>         0.1346
     44 H16        -3.7183    5.5073   -1.1202 H         1 <0>         0.1268
     45 H17        -4.0491   11.9836   -8.2323 H         1 <0>         0.1496
     46 H18        -4.2944   11.6697  -10.6529 H         1 <0>         0.1516
     47 H19        -4.4307    9.4121  -11.6144 H         1 <0>         0.1515
     48 H20        -4.3218    5.4103   -7.3468 H         1 <0>         0.4285
     49 H21        -3.9874    5.9859   -8.8895 H         1 <0>         0.4092
     50 N6         -4.5458    1.3938    1.6909 N.4       1 <0>        -0.3998
     51 H22        -5.4033    1.0486    1.2438 H         1 <0>         0.4274
@<TRIPOS>BOND
     1    1   31 1
     2    1   32 1
     3    1   33 1
     4    1   50 1
     5    2    3 1
     6    2   34 1
     7    2   35 1
     8    2   50 1
     9    3    4 1
    10    3   36 1
    11    3   37 1
    12    4    5 1
    13    4    7 1
    14    5    6 1
    15    5   38 1
    16    5   39 1
    17    6   40 1
    18    6   41 1
    19    6   50 1
    20    7   12 ar
    21    7    8 ar
    22    8    9 ar
    23    8   42 1
    24    9   10 ar
    25    9   43 1
    26   10   16 1
    27   10   11 ar
    28   11   12 ar
    29   11   13 1
    30   12   44 1
    31   13   14 1
    32   13   15 1
    33   15   16 2
    34   15   17 1
    35   17   28 1
    36   17   18 2
    37   18   19 1
    38   18   30 1
    39   19   24 ar
    40   19   20 ar
    41   20   21 ar
    42   20   26 1
    43   21   22 ar
    44   21   45 1
    45   22   23 ar
    46   22   46 1
    47   23   24 ar
    48   23   47 1
    49   24   25 1
    50   26   27 1
    51   26   28 am
    52   28   29 2
    53   30   48 1
    54   30   49 1
    55   50   51 1
@<TRIPOS>MOLECULE
ZINC03964325
   57    59     0     0     0
SMALL
USER_CHARGES

@<TRIPOS>ATOM
      1 C1          0.1489    2.0884    0.1150 C.3       1 <0>        -0.1876
      2 C2          0.1348    0.5603    0.1888 C.3       1 <0>        -0.0191
      3 N1         -1.2520    0.0881    0.2979 N.4       1 <0>        -0.3822
      4 C3         -1.9779    0.4111   -0.9377 C.3       1 <0>        -0.0142
      5 C4         -3.4549    0.0484   -0.7712 C.3       1 <0>        -0.1895
      6 C5         -1.2593   -1.3663    0.5041 C.3       1 <0>        -0.0265
      7 C6         -0.6131   -1.6936    1.8518 C.3       1 <0>         0.0952
      8 N2         -0.6203   -3.1440    2.0575 N.am      1 <0>        -0.7289
      9 C7         -0.0988   -3.6675    3.1846 C.2       1 <0>         0.6111
     10 O1          0.3779   -2.9358    4.0309 O.2       1 <0>        -0.5184
     11 C8         -0.1061   -5.1270    3.3915 C.2       1 <0>        -0.2420
     12 C9          0.9071   -6.0320    3.0089 C.2       1 <0>        -0.0577
     13 C10         0.4868   -7.2892    3.3960 C.2       1 <0>        -0.0075
     14 N3         -0.7476   -7.1595    3.9982 N.pl3     1 <0>        -0.4910
     15 H1         -1.2731   -7.8879    4.3645 H         1 <0>         0.4270
     16 C11        -1.1044   -5.8642    4.0022 C.2       1 <0>         0.1158
     17 C12        -2.3825   -5.3072    4.5743 C.3       1 <0>        -0.0999
     18 C13         1.1957   -8.4957    3.2079 C.2       1 <0>         0.0729
     19 C14         0.5100   -9.6674    2.9570 C.2       1 <0>        -0.1889
     20 C15         1.0648  -11.0377    2.8871 C.ar      1 <0>        -0.0736
     21 C16         2.3472  -11.5557    3.0375 C.ar      1 <0>        -0.1000
     22 C17         2.5553  -12.9162    2.9116 C.ar      1 <0>         0.0861
     23 C18         1.4888  -13.7593    2.6366 C.ar      1 <0>        -0.1139
     24 C19         0.2139  -13.2531    2.4856 C.ar      1 <0>        -0.1021
     25 C20        -0.0144  -11.8871    2.6092 C.ar      1 <0>         0.1282
     26 N4         -1.1765  -11.1301    2.5069 N.am      1 <0>        -0.6466
     27 C21        -0.9294   -9.8245    2.7079 C.2       1 <0>         0.5595
     28 O2         -1.7538   -8.9280    2.6842 O.2       1 <0>        -0.5156
     29 F1          3.7984  -13.4252    3.0561 F         1 <0>        -0.1318
     30 C22         2.1990   -5.6919    2.3116 C.3       1 <0>        -0.0931
     31 H2          1.1793    2.4435    0.1331 H         1 <0>         0.1076
     32 H3         -0.3308    2.4121   -0.8087 H         1 <0>         0.0811
     33 H4         -0.3916    2.4984    0.9682 H         1 <0>         0.0809
     34 H5          0.5888    0.1488   -0.7126 H         1 <0>         0.1317
     35 H6          0.6996    0.2334    1.0619 H         1 <0>         0.1337
     36 H7         -1.8867    1.4775   -1.1444 H         1 <0>         0.1351
     37 H8         -1.5554   -0.1571   -1.7664 H         1 <0>         0.1307
     38 H9         -3.5537   -1.0316   -0.6617 H         1 <0>         0.0802
     39 H10        -3.8523    0.5414    0.1160 H         1 <0>         0.0808
     40 H11        -4.0109    0.3769   -1.6492 H         1 <0>         0.1074
     41 H12        -2.2871   -1.7292    0.4963 H         1 <0>         0.1397
     42 H13        -0.6973   -1.8494   -0.2952 H         1 <0>         0.1376
     43 H14         0.4147   -1.3306    1.8596 H         1 <0>         0.0893
     44 H15        -1.1751   -1.2105    2.6511 H         1 <0>         0.0890
     45 H16        -1.0005   -3.7277    1.3824 H         1 <0>         0.4099
     46 H17        -3.1529   -5.3000    3.8032 H         1 <0>         0.0840
     47 H18        -2.7087   -5.9289    5.4080 H         1 <0>         0.0782
     48 H19        -2.2103   -4.2898    4.9254 H         1 <0>         0.0840
     49 H20         2.2744   -8.5020    3.2604 H         1 <0>         0.1589
     50 H21         3.1765  -10.8977    3.2512 H         1 <0>         0.1436
     51 H22         1.6578  -14.8215    2.5394 H         1 <0>         0.1485
     52 H23        -0.6084  -13.9196    2.2712 H         1 <0>         0.1415
     53 H24        -2.0541  -11.4980    2.3189 H         1 <0>         0.4217
     54 H25         2.9686   -5.4822    3.0545 H         1 <0>         0.0785
     55 H26         2.5107   -6.5337    1.6932 H         1 <0>         0.0726
     56 H27         2.0522   -4.8138    1.6827 H         1 <0>         0.0634
     57 H28        -1.7009    0.5410    1.0799 H         1 <0>         0.4247
@<TRIPOS>BOND
     1    1    2 1
     2    1   31 1
     3    1   32 1
     4    1   33 1
     5    2    3 1
     6    2   34 1
     7    2   35 1
     8    3    4 1
     9    3    6 1
    10    3   57 1
    11    4    5 1
    12    4   36 1
    13    4   37 1
    14    5   38 1
    15    5   39 1
    16    5   40 1
    17    6    7 1
    18    6   41 1
    19    6   42 1
    20    7    8 1
    21    7   43 1
    22    7   44 1
    23    8    9 am
    24    8   45 1
    25    9   10 2
    26    9   11 1
    27   11   16 2
    28   11   12 1
    29   12   13 2
    30   12   30 1
    31   13   14 1
    32   13   18 1
    33   14   15 1
    34   14   16 1
    35   16   17 1
    36   17   46 1
    37   17   47 1
    38   17   48 1
    39   18   19 2
    40   18   49 1
    41   19   27 1
    42   19   20 1
    43   20   25 ar
    44   20   21 ar
    45   21   22 ar
    46   21   50 1
    47   22   23 ar
    48   22   29 1
    49   23   24 ar
    50   23   51 1
    51   24   25 ar
    52   24   52 1
    53   25   26 1
    54   26   27 am
    55   26   53 1
    56   27   28 2
    57   30   54 1
    58   30   55 1
    59   30   56 1
@<TRIPOS>MOLECULE
ZINC00901405
   18    19     0     0     0
SMALL
USER_CHARGES

@<TRIPOS>ATOM
      1 C1         -0.0167    1.3821    0.0096 C.ar      1 <0>        -0.0981
      2 C2          1.1647    2.0985    0.0022 C.ar      1 <0>        -0.0981
      3 C3          2.3850    1.4409   -0.0130 C.ar      1 <0>        -0.0670
      4 C4          2.4201    0.0516   -0.0208 C.ar      1 <0>        -0.1273
      5 C5          1.2176   -0.6776   -0.0132 C.ar      1 <0>        -0.1273
      6 C6          0.0021   -0.0041    0.0020 C.ar      1 <0>        -0.0670
      7 C7          1.2665   -2.1556   -0.0211 C.2       1 <0>         0.4132
      8 O1          0.2365   -2.7998   -0.0152 O.2       1 <0>        -0.4213
      9 C8          2.5707   -2.8448   -0.0368 C.2       1 <0>        -0.1396
     10 C9          3.7162   -2.1502   -0.0436 C.2       1 <0>        -0.1395
     11 C10         3.7080   -0.6750   -0.0365 C.2       1 <0>         0.4132
     12 O2          4.7553   -0.0594   -0.0433 O.2       1 <0>        -0.4213
     13 H1         -0.9612    1.9056    0.0260 H         1 <0>         0.1393
     14 H2          1.1373    3.1781    0.0079 H         1 <0>         0.1393
     15 H3          3.3052    2.0062   -0.0191 H         1 <0>         0.1440
     16 H4         -0.9247   -0.5586    0.0083 H         1 <0>         0.1440
     17 H5          2.6025   -3.9244   -0.0424 H         1 <0>         0.1567
     18 H6          4.6587   -2.6775   -0.0543 H         1 <0>         0.1567
@<TRIPOS>BOND
     1    1    6 ar
     2    1    2 ar
     3    1   13 1
     4    2    3 ar
     5    2   14 1
     6    3    4 ar
     7    3   15 1
     8    4   11 1
     9    4    5 ar
    10    5    6 ar
    11    5    7 1
    12    6   16 1
    13    7    8 2
    14    7    9 1
    15    9   10 2
    16    9   17 1
    17   10   11 1
    18   10   18 1
    19   11   12 2
@<TRIPOS>MOLECULE
ZINC03820040
   62    66     0     0     0
SMALL
USER_CHARGES
N-[4-[4-(4-methylpiperazin-1-yl)-6-[(5-methyl-2H-pyrazol-3-yl)amino]pyrimidin-2-yl]sulfanylphenyl]cyclopropanecarboxamide
@<TRIPOS>ATOM
      1 C1          1.8035   -7.6837    0.5070 C.3       1 <0>        -0.0779
      2 C2          2.3685   -6.3674    0.0389 C.2       1 <0>         0.0949
      3 C3          1.9325   -5.1020    0.4407 C.2       1 <0>        -0.2905
      4 C4          2.6904   -4.1743   -0.2066 C.2       1 <0>         0.3252
      5 N1          3.5799   -4.8447   -0.9836 N.pl3     1 <0>        -0.4853
      6 H1          4.2729   -4.4328   -1.5753 H         1 <0>         0.4473
      7 N2          3.3537   -6.2159   -0.8085 N.2       1 <0>        -0.2711
      8 N3          2.5778   -2.7905   -0.0888 N.pl3     1 <0>        -0.6296
      9 C5          1.3376   -2.2123    0.1391 C.ar      1 <0>         0.4706
     10 C6          0.1755   -2.9717    0.0343 C.ar      1 <0>        -0.2983
     11 C7         -1.0466   -2.3490    0.2714 C.ar      1 <0>         0.3791
     12 N4         -1.0643   -1.0564    0.5886 N.ar      1 <0>        -0.5664
     13 C8          0.0620   -0.3646    0.6795 C.ar      1 <0>         0.3511
     14 N5          1.2425   -0.9231    0.4557 N.ar      1 <0>        -0.5606
     15 S1         -0.0125    1.3444    1.1018 S.3       1 <0>         0.1303
     16 C9          1.7078    1.7032    1.2298 C.ar      1 <0>        -0.1638
     17 C10         2.3806    1.4637    2.4214 C.ar      1 <0>        -0.0284
     18 C11         3.7293    1.7409    2.5200 C.ar      1 <0>        -0.1315
     19 C12         4.4114    2.2681    1.4313 C.ar      1 <0>         0.1902
     20 C13         3.7379    2.5125    0.2417 C.ar      1 <0>        -0.1573
     21 C14         2.3903    2.2311    0.1410 C.ar      1 <0>        -0.0288
     22 N6          5.7793    2.5539    1.5333 N.am      1 <0>        -0.6744
     23 C15         6.5739    1.7808    2.2997 C.2       1 <0>         0.5466
     24 O1          6.1269    0.7811    2.8213 O.2       1 <0>        -0.5140
     25 C16         8.0178    2.1584    2.5086 C.3       1 <0>        -0.2022
     26 C17         9.0818    1.2604    1.8742 C.3       1 <0>        -0.1494
     27 C18         8.8679    1.2402    3.3890 C.3       1 <0>        -0.1425
     28 N7         -2.2296   -3.0657    0.1789 N.pl3     1 <0>        -0.4710
     29 C19        -2.3617   -3.6957   -1.1422 C.3       1 <0>         0.0277
     30 C20        -3.6379   -4.5399   -1.1765 C.3       1 <0>         0.0040
     31 C21        -4.6643   -3.0537    0.4349 C.3       1 <0>        -0.0004
     32 C22        -3.3881   -2.2095    0.4692 C.3       1 <0>         0.0347
     33 C23        -6.0501   -4.4431   -0.9842 C.3       1 <0>        -0.0407
     34 H2          2.3381   -8.0122    1.3982 H         1 <0>         0.0831
     35 H3          0.7460   -7.5623    0.7417 H         1 <0>         0.0784
     36 H4          1.9177   -8.4287   -0.2805 H         1 <0>         0.0774
     37 H5          1.1347   -4.8964    1.1389 H         1 <0>         0.1550
     38 H6          3.3667   -2.2314   -0.1662 H         1 <0>         0.4241
     39 H7          0.2211   -4.0192   -0.2246 H         1 <0>         0.1631
     40 H8          1.8494    1.0573    3.2693 H         1 <0>         0.1319
     41 H9          4.2533    1.5509    3.4451 H         1 <0>         0.1405
     42 H10         4.2686    2.9225   -0.6049 H         1 <0>         0.1339
     43 H11         1.8666    2.4209   -0.7843 H         1 <0>         0.1341
     44 H12         6.1543    3.3081    1.0523 H         1 <0>         0.4168
     45 H13         8.2224    3.2282    2.5520 H         1 <0>         0.1306
     46 H14         8.7374    0.3965    1.3057 H         1 <0>         0.0995
     47 H15         9.9866    1.7393    1.5000 H         1 <0>         0.1100
     48 H16         9.6320    1.7059    4.0114 H         1 <0>         0.1092
     49 H17         8.3827    0.3633    3.8175 H         1 <0>         0.1093
     50 H18        -2.4158   -2.9234   -1.9095 H         1 <0>         0.0737
     51 H19        -1.4982   -4.3342   -1.3286 H         1 <0>         0.1318
     52 H20        -3.5722   -5.3290   -0.4274 H         1 <0>         0.1439
     53 H21        -3.7533   -4.9852   -2.1646 H         1 <0>         0.1412
     54 H22        -4.6102   -3.8259    1.2022 H         1 <0>         0.1407
     55 H23        -5.5278   -2.4152    0.6217 H         1 <0>         0.1407
     56 H24        -3.2729   -1.7645    1.4575 H         1 <0>         0.1357
     57 H25        -3.4537   -1.4201   -0.2796 H         1 <0>         0.0793
     58 H26        -6.8948   -3.7714   -0.8313 H         1 <0>         0.1238
     59 H27        -6.1225   -4.8989   -1.9717 H         1 <0>         0.1230
     60 H28        -6.0632   -5.2226   -0.2224 H         1 <0>         0.1251
     61 N8         -4.7966   -3.6630   -0.9051 N.4       1 <0>        -0.4014
     62 H29        -4.8229   -2.9169   -1.6099 H         1 <0>         0.4281
@<TRIPOS>BOND
     1    1    2 1
     2    1   34 1
     3    1   35 1
     4    1   36 1
     5    2    7 2
     6    2    3 1
     7    3    4 2
     8    3   37 1
     9    4    5 1
    10    4    8 1
    11    5    6 1
    12    5    7 1
    13    8    9 1
    14    8   38 1
    15    9   14 ar
    16    9   10 ar
    17   10   11 ar
    18   10   39 1
    19   11   12 ar
    20   11   28 1
    21   12   13 ar
    22   13   14 ar
    23   13   15 1
    24   15   16 1
    25   16   21 ar
    26   16   17 ar
    27   17   18 ar
    28   17   40 1
    29   18   19 ar
    30   18   41 1
    31   19   20 ar
    32   19   22 1
    33   20   21 ar
    34   20   42 1
    35   21   43 1
    36   22   23 am
    37   22   44 1
    38   23   24 2
    39   23   25 1
    40   25   27 1
    41   25   26 1
    42   25   45 1
    43   26   27 1
    44   26   46 1
    45   26   47 1
    46   27   48 1
    47   27   49 1
    48   28   32 1
    49   28   29 1
    50   29   30 1
    51   29   50 1
    52   29   51 1
    53   30   52 1
    54   30   53 1
    55   30   61 1
    56   31   32 1
    57   31   54 1
    58   31   55 1
    59   31   61 1
    60   32   56 1
    61   32   57 1
    62   33   58 1
    63   33   59 1
    64   33   60 1
    65   33   61 1
    66   61   62 1
@<TRIPOS>MOLECULE
ZINC18825339
   59    62     0     0     0
SMALL
USER_CHARGES
5-[(Z)-(5-fluoro-2-oxo-indolin-3-ylidene)methyl]-N-[(2R)-2-hydroxy-3-morpholino-propyl]-2,4-dimethyl-1H-pyrrole-3-carboxamide
@<TRIPOS>ATOM
      1 C1          3.5607    0.7280    0.3667 C.3       1 <0>        -0.0956
      2 C2          2.0758    0.7165    0.1102 C.2       1 <0>        -0.0564
      3 C3          1.2591    1.8188   -0.0477 C.2       1 <0>        -0.0308
      4 N1         -0.0271    1.3691   -0.2640 N.pl3     1 <0>        -0.5068
      5 H1         -0.8436    2.0903   -0.4163 H         1 <0>         0.4494
      6 C4         -0.0354    0.0257   -0.2455 C.2       1 <0>         0.1277
      7 C5          1.2525   -0.4230   -0.0155 C.2       1 <0>        -0.2308
      8 C6          1.6847   -1.8291    0.0810 C.2       1 <0>         0.5980
      9 O1          2.0430   -2.4250   -0.9167 O.2       1 <0>        -0.5421
     10 N2          1.6827   -2.4542    1.2750 N.am      1 <0>        -0.7266
     11 C7          2.1121   -3.8516    1.3710 C.3       1 <0>         0.1299
     12 C8          2.0150   -4.3162    2.8255 C.3       1 <0>         0.1144
     13 H2          2.5334   -3.6206    3.5018 H         1 <0>         0.0568
     14 C9          2.5799   -5.7329    2.9471 C.3       1 <0>         0.0228
     15 N3          2.4867   -6.1790    4.3436 N.3       1 <0>        -0.5349
     16 C10         3.3671   -5.3829    5.2109 C.3       1 <0>         0.0083
     17 C11         3.1945   -5.8402    6.6618 C.3       1 <0>         0.0618
     18 O2          3.4694   -7.2408    6.7508 O.3       1 <0>        -0.3843
     19 C12         2.6296   -8.0463    5.9193 C.3       1 <0>         0.0614
     20 C13         2.7965   -7.6114    4.4609 C.3       1 <0>         0.0172
     21 O3          0.6463   -4.3123    3.2364 O.3       1 <0>        -0.5882
     22 C14        -1.2476   -0.8477   -0.4426 C.3       1 <0>        -0.0994
     23 C15         1.6686    3.1691    0.0027 C.2       1 <0>         0.0908
     24 C16         0.8216    4.1284    0.5209 C.2       1 <0>        -0.2125
     25 C17         1.0162    5.5955    0.5210 C.ar      1 <0>        -0.0684
     26 C18         2.0202    6.4240    0.0297 C.ar      1 <0>        -0.1043
     27 C19         1.9118    7.7937    0.1786 C.ar      1 <0>         0.0808
     28 C20         0.8031    8.3379    0.8097 C.ar      1 <0>        -0.1198
     29 C21        -0.2000    7.5233    1.2941 C.ar      1 <0>        -0.1061
     30 C22        -0.1080    6.1430    1.1533 C.ar      1 <0>         0.1250
     31 N4         -0.9593    5.1144    1.5420 N.am      1 <0>        -0.6604
     32 C23        -0.4649    3.9133    1.1971 C.2       1 <0>         0.5647
     33 O4         -0.9909    2.8351    1.4086 O.2       1 <0>        -0.5132
     34 F1          2.8866    8.6030   -0.2904 F         1 <0>        -0.1355
     35 H3          3.9167    1.7678    0.4131 H         1 <0>         0.0672
     36 H4          4.0776    0.1994   -0.4478 H         1 <0>         0.0746
     37 H5          3.7717    0.2252    1.3221 H         1 <0>         0.0710
     38 H6          1.3586   -1.9152    2.1775 H         1 <0>         0.4262
     39 H7          1.4633   -4.4786    0.7417 H         1 <0>         0.0750
     40 H8          3.1531   -3.9398    1.0266 H         1 <0>         0.0785
     41 H9          2.0023   -6.4143    2.3052 H         1 <0>         0.0900
     42 H10         3.6334   -5.7360    2.6307 H         1 <0>         0.0465
     43 H11         4.4130   -5.5254    4.9015 H         1 <0>         0.0459
     44 H12         3.1012   -4.3189    5.1257 H         1 <0>         0.0881
     45 H13         3.8925   -5.2859    7.3064 H         1 <0>         0.1001
     46 H14         2.1618   -5.6458    6.9871 H         1 <0>         0.0615
     47 H15         2.9156   -9.1033    6.0238 H         1 <0>         0.1009
     48 H16         1.5805   -7.9185    6.2243 H         1 <0>         0.0621
     49 H17         2.1104   -8.1883    3.8234 H         1 <0>         0.0898
     50 H18         3.8332   -7.7899    4.1393 H         1 <0>         0.0455
     51 H19         0.3780   -4.6185    4.2583 H         1 <0>         0.4136
     52 H20        -0.9523   -1.9052   -0.3757 H         1 <0>         0.0845
     53 H21        -1.6843   -0.6508   -1.4328 H         1 <0>         0.0777
     54 H22        -1.9909   -0.6245    0.3369 H         1 <0>         0.0809
     55 H23         2.6624    3.4568   -0.3709 H         1 <0>         0.1579
     56 H24         2.8828    5.9984   -0.4614 H         1 <0>         0.1409
     57 H25         0.7239    9.4091    0.9228 H         1 <0>         0.1443
     58 H26        -1.0583    7.9589    1.7840 H         1 <0>         0.1386
     59 H27        -1.9003    5.3463    2.0623 H         1 <0>         0.4455
@<TRIPOS>BOND
     1    1    2 1
     2    1   35 1
     3    1   36 1
     4    1   37 1
     5    2    7 1
     6    2    3 2
     7    3    4 1
     8    3   23 1
     9    4    5 1
    10    4    6 1
    11    6    7 2
    12    6   22 1
    13    7    8 1
    14    8    9 2
    15    8   10 am
    16   10   11 1
    17   10   38 1
    18   11   12 1
    19   11   39 1
    20   11   40 1
    21   12   13 1
    22   12   14 1
    23   12   21 1
    24   14   15 1
    25   14   41 1
    26   14   42 1
    27   15   20 1
    28   15   16 1
    29   16   17 1
    30   16   43 1
    31   16   44 1
    32   17   18 1
    33   17   45 1
    34   17   46 1
    35   18   19 1
    36   19   20 1
    37   19   47 1
    38   19   48 1
    39   20   49 1
    40   20   50 1
    41   21   51 1
    42   22   52 1
    43   22   53 1
    44   22   54 1
    45   23   24 2
    46   23   55 1
    47   24   32 1
    48   24   25 1
    49   25   30 ar
    50   25   26 ar
    51   26   27 ar
    52   26   56 1
    53   27   28 ar
    54   27   34 1
    55   28   29 ar
    56   28   57 1
    57   29   30 ar
    58   29   58 1
    59   30   31 1
    60   31   32 am
    61   31   59 1
    62   32   33 2
@<TRIPOS>MOLECULE
ZINC18825344
   59    62     0     0     0
SMALL
USER_CHARGES
5-[(Z)-(5-fluoro-2-oxo-indolin-3-ylidene)methyl]-N-[(2S)-2-hydroxy-3-morpholino-propyl]-2,4-dimethyl-1H-pyrrole-3-carboxamide
@<TRIPOS>ATOM
      1 C1          4.7056    0.6287    1.0117 C.3       1 <0>        -0.0968
      2 C2          3.2464    0.8378    0.6983 C.2       1 <0>        -0.0523
      3 C3          2.5980    2.0501    0.5678 C.2       1 <0>        -0.0327
      4 N1          1.2732    1.7961    0.2789 N.pl3     1 <0>        -0.5060
      5 H1          0.5720    2.6311    0.1339 H         1 <0>         0.4496
      6 C4          1.0783    0.4679    0.2258 C.2       1 <0>         0.1246
      7 C5          2.2801   -0.1676    0.4808 C.2       1 <0>        -0.2308
      8 C6          2.5088   -1.6234    0.5191 C.2       1 <0>         0.5976
      9 O1          2.8262   -2.2159   -0.4944 O.2       1 <0>        -0.5428
     10 N2          2.3662   -2.2977    1.6773 N.am      1 <0>        -0.7254
     11 C7          2.5935   -3.7444    1.7154 C.3       1 <0>         0.1298
     12 C8          2.3672   -4.2590    3.1384 C.3       1 <0>         0.1172
     13 H2          1.3599   -4.0040    3.4994 H         1 <0>         0.0560
     14 C9          2.6045   -5.7699    3.1781 C.3       1 <0>         0.0219
     15 N3          2.3382   -6.2720    4.5327 N.3       1 <0>        -0.5356
     16 C10         2.9762   -7.5793    4.7450 C.3       1 <0>         0.0168
     17 C11         2.7241   -8.0365    6.1842 C.3       1 <0>         0.0612
     18 O2          1.3152   -8.0759    6.4267 O.3       1 <0>        -0.3844
     19 C12         0.6618   -6.8191    6.2299 C.3       1 <0>         0.0617
     20 C13         0.8930   -6.3496    4.7911 C.3       1 <0>         0.0111
     21 O3          3.2765   -3.6103    4.0297 O.3       1 <0>        -0.5892
     22 C14        -0.2328   -0.2165   -0.0637 C.3       1 <0>        -0.0987
     23 C15         3.1876    3.3256    0.7056 C.2       1 <0>         0.0935
     24 C16         2.4515    4.3746    1.2192 C.2       1 <0>        -0.2157
     25 C17         2.8515    5.7966    1.3077 C.ar      1 <0>        -0.0669
     26 C18         3.9943    6.4912    0.9234 C.ar      1 <0>        -0.1048
     27 C19         4.0710    7.8545    1.1363 C.ar      1 <0>         0.0814
     28 C20         3.0098    8.5263    1.7247 C.ar      1 <0>        -0.1204
     29 C21         1.8704    7.8457    2.1029 C.ar      1 <0>        -0.1055
     30 C22         1.7753    6.4739    1.8965 C.ar      1 <0>         0.1237
     31 N4          0.7622    5.5637    2.1775 N.am      1 <0>        -0.6596
     32 C23         1.1039    4.3195    1.8021 C.2       1 <0>         0.5657
     33 O4          0.4171    3.3209    1.9242 O.2       1 <0>        -0.5153
     34 F1          5.1807    8.5334    0.7715 F         1 <0>        -0.1355
     35 H3          5.1994    1.6049    1.1269 H         1 <0>         0.0668
     36 H4          5.1808    0.0720    0.1906 H         1 <0>         0.0744
     37 H5          4.8016    0.0567    1.9464 H         1 <0>         0.0741
     38 H6          2.0791   -1.7617    2.5940 H         1 <0>         0.4273
     39 H7          1.8935   -4.2437    1.0293 H         1 <0>         0.0777
     40 H8          3.6268   -3.9615    1.4070 H         1 <0>         0.0736
     41 H9          1.9304   -6.2658    2.4641 H         1 <0>         0.0486
     42 H10         3.6486   -5.9844    2.9062 H         1 <0>         0.0884
     43 H11         2.5501   -8.3132    4.0451 H         1 <0>         0.0451
     44 H12         4.0587   -7.4917    4.5704 H         1 <0>         0.0900
     45 H13         3.1515   -9.0395    6.3305 H         1 <0>         0.1008
     46 H14         3.1986   -7.3305    6.8817 H         1 <0>         0.0620
     47 H15        -0.4170   -6.9344    6.4112 H         1 <0>         0.1000
     48 H16         1.0741   -6.0778    6.9303 H         1 <0>         0.0613
     49 H17         0.4415   -5.3564    4.6504 H         1 <0>         0.0873
     50 H18         0.4333   -7.0637    4.0920 H         1 <0>         0.0461
     51 H19         3.2627   -3.8533    5.1024 H         1 <0>         0.4141
     52 H20        -0.0899   -1.3070   -0.0417 H         1 <0>         0.0829
     53 H21        -0.5927    0.0862   -1.0581 H         1 <0>         0.0781
     54 H22        -0.9728    0.0718    0.6974 H         1 <0>         0.0803
     55 H23         4.2335    3.4835    0.4037 H         1 <0>         0.1584
     56 H24         4.8196    5.9664    0.4654 H         1 <0>         0.1411
     57 H25         3.0756    9.5918    1.8882 H         1 <0>         0.1443
     58 H26         1.0507    8.3797    2.5605 H         1 <0>         0.1385
     59 H27        -0.1701    5.9069    2.6497 H         1 <0>         0.4455
@<TRIPOS>BOND
     1    1    2 1
     2    1   35 1
     3    1   36 1
     4    1   37 1
     5    2    7 1
     6    2    3 2
     7    3    4 1
     8    3   23 1
     9    4    5 1
    10    4    6 1
    11    6    7 2
    12    6   22 1
    13    7    8 1
    14    8    9 2
    15    8   10 am
    16   10   11 1
    17   10   38 1
    18   11   12 1
    19   11   39 1
    20   11   40 1
    21   12   13 1
    22   12   14 1
    23   12   21 1
    24   14   15 1
    25   14   41 1
    26   14   42 1
    27   15   20 1
    28   15   16 1
    29   16   17 1
    30   16   43 1
    31   16   44 1
    32   17   18 1
    33   17   45 1
    34   17   46 1
    35   18   19 1
    36   19   20 1
    37   19   47 1
    38   19   48 1
    39   20   49 1
    40   20   50 1
    41   21   51 1
    42   22   52 1
    43   22   53 1
    44   22   54 1
    45   23   24 2
    46   23   55 1
    47   24   32 1
    48   24   25 1
    49   25   30 ar
    50   25   26 ar
    51   26   27 ar
    52   26   56 1
    53   27   28 ar
    54   27   34 1
    55   28   29 ar
    56   28   57 1
    57   29   30 ar
    58   29   58 1
    59   30   31 1
    60   31   32 am
    61   31   59 1
    62   32   33 2
@<TRIPOS>MOLECULE
ZINC00602803
   57    59     0     0     0
SMALL
USER_CHARGES

@<TRIPOS>ATOM
      1 C1         -1.3402   -4.8618    1.2145 C.3       1 <0>        -0.1534
      2 C2         -0.8181   -3.6495    0.4408 C.3       1 <0>         0.0511
      3 O1         -0.7742   -2.5142    1.3074 O.3       1 <0>        -0.3148
      4 C3         -0.3304   -1.3470    0.7727 C.ar      1 <0>         0.1525
      5 C4          0.0498   -1.3049   -0.5488 C.ar      1 <0>        -0.1831
      6 C5          0.5092   -0.1023   -1.1071 C.ar      1 <0>         0.1876
      7 C6          0.5748    1.0570   -0.2965 C.ar      1 <0>        -0.1304
      8 C7          0.1883    0.9932    1.0499 C.ar      1 <0>        -0.0592
      9 C8         -0.2650   -0.1967    1.5740 C.ar      1 <0>         0.1185
     10 N1         -0.6575   -0.2608    2.9161 N.am      1 <0>        -0.6449
     11 C9         -0.1566    0.6173    3.8075 C.2       1 <0>         0.5328
     12 O2          0.7152    1.3957    3.4703 O.2       1 <0>        -0.5071
     13 C10        -0.6641    0.6344    5.1877 C.2       1 <0>        -0.1271
     14 C11        -0.1697    1.5011    6.0673 C.2       1 <0>        -0.1492
     15 C12        -0.6897    1.5186    7.4817 C.3       1 <0>         0.0302
     16 C13         1.3312    2.5206    8.3617 C.3       1 <0>        -0.0486
     17 C14        -0.0528    1.1357    9.7861 C.3       1 <0>        -0.0433
     18 C15         1.0386    2.2666   -0.8642 C.ar      1 <0>         0.2844
     19 C16         1.4144    2.2536   -2.2161 C.ar      1 <0>        -0.1029
     20 C17         1.3165    1.0573   -2.9447 C.ar      1 <0>         0.2010
     21 N2          0.8834   -0.0478   -2.3940 N.ar      1 <0>        -0.4743
     22 C18         1.8922    3.4476   -2.8459 C.1       1 <0>         0.2469
     23 N3          2.2712    4.3948   -3.3456 N.1       1 <0>        -0.3851
     24 N4          1.1194    3.4219   -0.1130 N.pl3     1 <0>        -0.6979
     25 C19         2.3677    3.9814    0.1773 C.ar      1 <0>         0.1846
     26 C20         3.4715    3.1592    0.3659 C.ar      1 <0>        -0.1231
     27 C21         4.7048    3.7137    0.6463 C.ar      1 <0>        -0.1069
     28 C22         4.8398    5.0877    0.7520 C.ar      1 <0>         0.0844
     29 C23         3.7394    5.9099    0.5700 C.ar      1 <0>        -0.0407
     30 C24         2.5044    5.3592    0.2831 C.ar      1 <0>        -0.1222
     31 Cl1         3.9119    7.6322    0.7020 Cl        1 <0>        -0.0373
     32 F1          6.0462    5.6274    1.0324 F         1 <0>        -0.1244
     33 H1         -2.3423   -4.6506    1.5877 H         1 <0>         0.0676
     34 H2         -1.3737   -5.7279    0.5535 H         1 <0>         0.0859
     35 H3         -0.6765   -5.0706    2.0536 H         1 <0>         0.0665
     36 H4         -1.4818   -3.4407   -0.3983 H         1 <0>         0.0727
     37 H5          0.1840   -3.8607    0.0676 H         1 <0>         0.0719
     38 H6         -0.0049   -2.1965   -1.1558 H         1 <0>         0.1557
     39 H7          0.2375    1.8756    1.6707 H         1 <0>         0.1646
     40 H8         -1.2900   -0.9373    3.2047 H         1 <0>         0.4221
     41 H9         -1.4381   -0.0567    5.4870 H         1 <0>         0.1454
     42 H10         0.6043    2.1922    5.7680 H         1 <0>         0.1533
     43 H11        -1.1915    2.4672    7.6726 H         1 <0>         0.1468
     44 H12        -1.3959    0.6999    7.6193 H         1 <0>         0.1366
     45 H13         0.7789    3.4221    8.6269 H         1 <0>         0.1257
     46 H14         2.1523    2.3777    9.0642 H         1 <0>         0.1250
     47 H15         1.7302    2.6227    7.3524 H         1 <0>         0.1232
     48 H16        -0.6601    0.2309    9.8124 H         1 <0>         0.1226
     49 H17         0.7976    1.0222   10.4584 H         1 <0>         0.1252
     50 H18        -0.6553    1.9870   10.1029 H         1 <0>         0.1250
     51 H19         1.6056    1.0492   -3.9853 H         1 <0>         0.1765
     52 H20         0.3102    3.8456    0.2136 H         1 <0>         0.4201
     53 H21         3.3660    2.0871    0.2888 H         1 <0>         0.1375
     54 H22         5.5639    3.0747    0.7881 H         1 <0>         0.1500
     55 H23         1.6466    6.0000    0.1416 H         1 <0>         0.1457
     56 N5          0.4465    1.3376    8.4096 N.4       1 <0>        -0.3970
     57 H24         0.9816    0.5092    8.1241 H         1 <0>         0.4334
@<TRIPOS>BOND
     1    1    2 1
     2    1   33 1
     3    1   34 1
     4    1   35 1
     5    2    3 1
     6    2   36 1
     7    2   37 1
     8    3    4 1
     9    4    9 ar
    10    4    5 ar
    11    5    6 ar
    12    5   38 1
    13    6   21 ar
    14    6    7 ar
    15    7    8 ar
    16    7   18 ar
    17    8    9 ar
    18    8   39 1
    19    9   10 1
    20   10   11 am
    21   10   40 1
    22   11   12 2
    23   11   13 1
    24   13   14 2
    25   13   41 1
    26   14   15 1
    27   14   42 1
    28   15   43 1
    29   15   44 1
    30   15   56 1
    31   16   45 1
    32   16   46 1
    33   16   47 1
    34   16   56 1
    35   17   48 1
    36   17   49 1
    37   17   50 1
    38   17   56 1
    39   18   19 ar
    40   18   24 1
    41   19   20 ar
    42   19   22 1
    43   20   21 ar
    44   20   51 1
    45   22   23 3
    46   24   25 1
    47   24   52 1
    48   25   30 ar
    49   25   26 ar
    50   26   27 ar
    51   26   53 1
    52   27   28 ar
    53   27   54 1
    54   28   29 ar
    55   28   32 1
    56   29   30 ar
    57   29   31 1
    58   30   55 1
    59   56   57 1
@<TRIPOS>MOLECULE
ZINC01044916
   44    46     0     0     0
SMALL
USER_CHARGES
[3-[(4-fluorophenyl)methyl]-4-methyl-2-oxo-chromen-7-yl] dimethylaminoformate
@<TRIPOS>ATOM
      1 C1          1.0137   -6.8224    0.1766 C.3       1 <0>        -0.1354
      2 C2         -0.3684   -6.2253    0.1128 C.2       1 <0>         0.0313
      3 C3         -0.5602   -4.7735    0.0863 C.ar      1 <0>        -0.1436
      4 C4          0.5341   -3.9016    0.1186 C.ar      1 <0>        -0.0425
      5 C5          0.3276   -2.5529    0.0874 C.ar      1 <0>        -0.1354
      6 C6         -0.9661   -2.0380    0.0344 C.ar      1 <0>         0.1583
      7 C7         -2.0604   -2.8861    0.0015 C.ar      1 <0>        -0.1301
      8 C8         -1.8687   -4.2596    0.0270 C.ar      1 <0>         0.1617
      9 O1         -2.9217   -5.1042   -0.0048 O.3       1 <0>        -0.2666
     10 C9         -2.7530   -6.4355    0.0196 C.2       1 <0>         0.5172
     11 O2         -3.7327   -7.1584   -0.0100 O.2       1 <0>        -0.4540
     12 C10        -1.4703   -7.0188    0.0788 C.2       1 <0>        -0.2123
     13 C11        -1.3226   -8.5183    0.1046 C.3       1 <0>        -0.0234
     14 C12        -1.3308   -8.9993    1.5327 C.ar      1 <0>        -0.0932
     15 C13        -0.1431   -9.1071    2.2320 C.ar      1 <0>        -0.0895
     16 C14        -0.1499   -9.5436    3.5433 C.ar      1 <0>        -0.1537
     17 C15        -1.3456   -9.8829    4.1532 C.ar      1 <0>         0.0976
     18 C16        -2.5340   -9.7796    3.4502 C.ar      1 <0>        -0.1513
     19 C17        -2.5253   -9.3379    2.1407 C.ar      1 <0>        -0.0771
     20 F1         -1.3530  -10.3142    5.4336 F         1 <0>        -0.1394
     21 O3         -1.1552   -0.6934    0.0094 O.3       1 <0>        -0.2995
     22 C18        -1.5520   -0.1101    1.1569 C.2       1 <0>         0.6444
     23 O4         -1.8103   -0.7933    2.1280 O.2       1 <0>        -0.5477
     24 N1         -1.6626    1.2312    1.2279 N.am      1 <0>        -0.5966
     25 C19        -2.0942    1.8655    2.4759 C.3       1 <0>         0.0978
     26 C20        -1.3454    2.0553    0.0589 C.3       1 <0>         0.0777
     27 H1          1.3053   -6.9531    1.2187 H         1 <0>         0.0947
     28 H2          1.0150   -7.7901   -0.3252 H         1 <0>         0.0899
     29 H3          1.7206   -6.1559   -0.3176 H         1 <0>         0.0838
     30 H4          1.5389   -4.2949    0.1641 H         1 <0>         0.1514
     31 H5          1.1723   -1.8802    0.1079 H         1 <0>         0.1455
     32 H6         -3.0599   -2.4793   -0.0437 H         1 <0>         0.1504
     33 H7         -2.1512   -8.9744   -0.4372 H         1 <0>         0.0971
     34 H8         -0.3813   -8.7989   -0.3679 H         1 <0>         0.0956
     35 H9          0.7899   -8.8463    1.7548 H         1 <0>         0.1334
     36 H10         0.7777   -9.6238    4.0907 H         1 <0>         0.1364
     37 H11        -3.4673  -10.0437    3.9250 H         1 <0>         0.1368
     38 H12        -3.4521   -9.2568    1.5922 H         1 <0>         0.1389
     39 H13        -1.2222    2.0874    3.0912 H         1 <0>         0.0634
     40 H14        -2.6237    2.7909    2.2490 H         1 <0>         0.0821
     41 H15        -2.7578    1.1903    3.0161 H         1 <0>         0.0830
     42 H16        -2.2443    2.1955   -0.5415 H         1 <0>         0.0632
     43 H17        -0.9736    3.0255    0.3884 H         1 <0>         0.0799
     44 H18        -0.5824    1.5580   -0.5400 H         1 <0>         0.0798
@<TRIPOS>BOND
     1    1    2 1
     2    1   27 1
     3    1   28 1
     4    1   29 1
     5    2   12 2
     6    2    3 1
     7    3    8 ar
     8    3    4 ar
     9    4    5 ar
    10    4   30 1
    11    5    6 ar
    12    5   31 1
    13    6    7 ar
    14    6   21 1
    15    7    8 ar
    16    7   32 1
    17    8    9 1
    18    9   10 1
    19   10   11 2
    20   10   12 1
    21   12   13 1
    22   13   14 1
    23   13   33 1
    24   13   34 1
    25   14   19 ar
    26   14   15 ar
    27   15   16 ar
    28   15   35 1
    29   16   17 ar
    30   16   36 1
    31   17   18 ar
    32   17   20 1
    33   18   19 ar
    34   18   37 1
    35   19   38 1
    36   21   22 1
    37   22   23 2
    38   22   24 am
    39   24   25 1
    40   24   26 1
    41   25   39 1
    42   25   40 1
    43   25   41 1
    44   26   42 1
    45   26   43 1
    46   26   44 1
