@<TRIPOS>MOLECULE
ZINC01430592
   28    30     0     0     0
SMALL
USER_CHARGES

@<TRIPOS>ATOM
      1 C1         -0.0184    1.5028    0.0103 C.3       1 <0>        -0.1219
      2 C2          0.0021   -0.0041    0.0020 C.ar      1 <0>        -0.0590
      3 C3          0.0057   -0.6889   -1.1974 C.ar      1 <0>        -0.1142
      4 C4          0.0244   -2.0715   -1.2059 C.ar      1 <0>        -0.0937
      5 C5          0.0395   -2.7735   -0.0143 C.ar      1 <0>        -0.1169
      6 C6          0.0355   -2.0954    1.1885 C.ar      1 <0>        -0.0878
      7 C7          0.0230   -0.7059    1.2007 C.ar      1 <0>         0.1452
      8 N1          0.0256   -0.0162    2.4160 N.am      1 <0>        -0.5712
      9 C8          1.0935    0.3220    3.1544 C.2       1 <0>         0.5309
     10 O1          2.2200    0.0304    2.7914 O.2       1 <0>        -0.4974
     11 C9          0.8761    1.0461    4.4001 C.ar      1 <0>        -0.1912
     12 C10         1.8014    1.5174    5.3546 C.ar      1 <0>         0.0173
     13 C11         1.3730    2.1790    6.4636 C.ar      1 <0>        -0.1678
     14 C12         0.0202    2.4118    6.6921 C.ar      1 <0>         0.1643
     15 C13        -0.9157    1.9643    5.7773 C.ar      1 <0>        -0.1252
     16 C14        -0.4923    1.2922    4.6499 C.ar      1 <0>        -0.0664
     17 S1         -1.3022    0.5671    3.2513 S.3       1 <0>         0.2663
     18 F1         -0.3771    3.0711    7.8023 F         1 <0>        -0.1203
     19 H1          1.0042    1.8801    0.0026 H         1 <0>         0.0759
     20 H2         -0.5455    1.8639   -0.8728 H         1 <0>         0.0767
     21 H3         -0.5286    1.8543    0.9071 H         1 <0>         0.0693
     22 H4         -0.0064   -0.1439   -2.1297 H         1 <0>         0.1347
     23 H5          0.0269   -2.6044   -2.1453 H         1 <0>         0.1331
     24 H6          0.0541   -3.8533   -0.0246 H         1 <0>         0.1347
     25 H7          0.0466   -2.6442    2.1186 H         1 <0>         0.1297
     26 H8          2.8579    1.3515    5.2042 H         1 <0>         0.1481
     27 H9          2.0985    2.5308    7.1822 H         1 <0>         0.1518
     28 H10        -1.9683    2.1391    5.9446 H         1 <0>         0.1552
@<TRIPOS>BOND
     1    1    2 1
     2    1   19 1
     3    1   20 1
     4    1   21 1
     5    2    7 ar
     6    2    3 ar
     7    3    4 ar
     8    3   22 1
     9    4    5 ar
    10    4   23 1
    11    5    6 ar
    12    5   24 1
    13    6    7 ar
    14    6   25 1
    15    7    8 1
    16    8   17 1
    17    8    9 am
    18    9   10 2
    19    9   11 1
    20   11   16 ar
    21   11   12 ar
    22   12   13 ar
    23   12   26 1
    24   13   14 ar
    25   13   27 1
    26   14   15 ar
    27   14   18 1
    28   15   16 ar
    29   15   28 1
    30   16   17 1
@<TRIPOS>MOLECULE
ZINC00529002
   28    30     0     0     0
SMALL
USER_CHARGES

@<TRIPOS>ATOM
      1 C1         -0.0184    1.5028    0.0103 C.3       1 <0>        -0.1154
      2 C2          0.0021   -0.0041    0.0020 C.ar      1 <0>        -0.0929
      3 C3          0.0057   -0.6873   -1.2004 C.ar      1 <0>        -0.0939
      4 C4          0.0244   -2.0681   -1.2117 C.ar      1 <0>        -0.1347
      5 C5          0.0396   -2.7709   -0.0132 C.ar      1 <0>         0.1655
      6 C6          0.0359   -2.0812    1.1929 C.ar      1 <0>        -0.1138
      7 C7          0.0229   -0.7003    1.1968 C.ar      1 <0>        -0.0946
      8 N1          0.0581   -4.1680   -0.0209 N.am      1 <0>        -0.5624
      9 C8         -0.3829   -4.9905    0.9431 C.2       1 <0>         0.5242
     10 O1         -0.8666   -4.5452    1.9695 O.2       1 <0>        -0.4965
     11 C9         -0.2707   -6.4289    0.7344 C.ar      1 <0>        -0.1800
     12 C10        -0.6472   -7.5037    1.5656 C.ar      1 <0>        -0.0124
     13 C11        -0.4470   -8.7893    1.1648 C.ar      1 <0>        -0.1333
     14 C12         0.1295   -9.0839   -0.0640 C.ar      1 <0>        -0.0557
     15 C13         0.5109   -8.0578   -0.9048 C.ar      1 <0>        -0.0871
     16 C14         0.3131   -6.7499   -0.5106 C.ar      1 <0>        -0.0909
     17 S1          0.6283   -5.1658   -1.2376 S.3       1 <0>         0.2582
     18 H1          1.0042    1.8801    0.0026 H         1 <0>         0.0732
     19 H2         -0.5455    1.8639   -0.8728 H         1 <0>         0.0688
     20 H3         -0.5286    1.8543    0.9071 H         1 <0>         0.0687
     21 H4         -0.0065   -0.1404   -2.1316 H         1 <0>         0.1338
     22 H5          0.0269   -2.6011   -2.1510 H         1 <0>         0.1312
     23 H6          0.0477   -2.6243    2.1263 H         1 <0>         0.1418
     24 H7          0.0244   -0.1635    2.1339 H         1 <0>         0.1331
     25 H8         -1.0972   -7.3058    2.5272 H         1 <0>         0.1377
     26 H9         -0.7427   -9.5979    1.8168 H         1 <0>         0.1395
     27 H10         0.2790  -10.1116   -0.3603 H         1 <0>         0.1446
     28 H11         0.9604   -8.2763   -1.8622 H         1 <0>         0.1434
@<TRIPOS>BOND
     1    1    2 1
     2    1   18 1
     3    1   19 1
     4    1   20 1
     5    2    7 ar
     6    2    3 ar
     7    3    4 ar
     8    3   21 1
     9    4    5 ar
    10    4   22 1
    11    5    6 ar
    12    5    8 1
    13    6    7 ar
    14    6   23 1
    15    7   24 1
    16    8   17 1
    17    8    9 am
    18    9   10 2
    19    9   11 1
    20   11   16 ar
    21   11   12 ar
    22   12   13 ar
    23   12   25 1
    24   13   14 ar
    25   13   26 1
    26   14   15 ar
    27   14   27 1
    28   15   16 ar
    29   15   28 1
    30   16   17 1
@<TRIPOS>MOLECULE
ZINC01443667
   29    31     0     0     0
SMALL
USER_CHARGES
4-fluoro-8-(4-methoxyphenyl)-7-thia-8-azabicyclo[4.3.0]nona-2,4,10-trien-9-one
@<TRIPOS>ATOM
      1 C1          0.8676    8.3935   -0.5042 C.3       1 <0>         0.0244
      2 O1          1.9242    7.5873    0.0208 O.3       1 <0>        -0.3136
      3 C2          1.7338    6.2411    0.0166 C.ar      1 <0>         0.1235
      4 C3          2.7198    5.4000    0.5118 C.ar      1 <0>        -0.1243
      5 C4          2.5276    4.0328    0.5076 C.ar      1 <0>        -0.0970
      6 C5          1.3464    3.4994    0.0076 C.ar      1 <0>         0.1341
      7 C6          0.3618    4.3421   -0.4925 C.ar      1 <0>        -0.0752
      8 C7          0.5540    5.7093   -0.4834 C.ar      1 <0>        -0.1824
      9 N1          1.1510    2.1141    0.0024 N.am      1 <0>        -0.5529
     10 C8         -0.0177    1.4529    0.0100 C.2       1 <0>         0.5287
     11 O2         -1.0749    2.0599    0.0184 O.2       1 <0>        -0.4965
     12 C9          0.0021   -0.0041    0.0020 C.ar      1 <0>        -0.1904
     13 C10        -1.0701   -0.9226    0.0073 C.ar      1 <0>         0.0177
     14 C11        -0.8340   -2.2619   -0.0026 C.ar      1 <0>        -0.1665
     15 C12         0.4611   -2.7708   -0.0173 C.ar      1 <0>         0.1658
     16 C13         1.5368   -1.9015   -0.0224 C.ar      1 <0>        -0.1240
     17 C14         1.3085   -0.5413   -0.0134 C.ar      1 <0>        -0.0640
     18 S1          2.3465    0.8951   -0.0156 S.3       1 <0>         0.2672
     19 F1          0.6665   -4.1060   -0.0260 F         1 <0>        -0.1192
     20 H1          0.6897    8.1261   -1.5459 H         1 <0>         0.0578
     21 H2         -0.0405    8.2243    0.0745 H         1 <0>         0.0579
     22 H3          1.1475    9.4451   -0.4418 H         1 <0>         0.1035
     23 H4          3.6381    5.8148    0.9005 H         1 <0>         0.1436
     24 H5          3.2956    3.3782    0.8925 H         1 <0>         0.1384
     25 H6         -0.5552    3.9281   -0.8852 H         1 <0>         0.1456
     26 H7         -0.2130    6.3648   -0.8687 H         1 <0>         0.1393
     27 H8         -2.0868   -0.5584    0.0190 H         1 <0>         0.1494
     28 H9         -1.6701   -2.9456    0.0014 H         1 <0>         0.1527
     29 H10         2.5466   -2.2844   -0.0338 H         1 <0>         0.1564
@<TRIPOS>BOND
     1    1    2 1
     2    1   20 1
     3    1   21 1
     4    1   22 1
     5    2    3 1
     6    3    8 ar
     7    3    4 ar
     8    4    5 ar
     9    4   23 1
    10    5    6 ar
    11    5   24 1
    12    6    7 ar
    13    6    9 1
    14    7    8 ar
    15    7   25 1
    16    8   26 1
    17    9   18 1
    18    9   10 am
    19   10   11 2
    20   10   12 1
    21   12   17 ar
    22   12   13 ar
    23   13   14 ar
    24   13   27 1
    25   14   15 ar
    26   14   28 1
    27   15   16 ar
    28   15   19 1
    29   16   17 ar
    30   16   29 1
    31   17   18 1
@<TRIPOS>MOLECULE
ZINC03350769
   34    36     0     0     0
SMALL
USER_CHARGES
ethyl 4-(9-oxo-7-thia-8-azabicyclo[4.3.0]nona-2,4,10-trien-8-yl)benzoate
@<TRIPOS>ATOM
      1 C1          3.5722    2.0748   -0.0209 C.3       1 <0>        -0.1541
      2 C2          2.3716    1.1263   -0.0145 C.3       1 <0>         0.0631
      3 O1          1.1433    1.9005    0.0013 O.3       1 <0>        -0.3538
      4 C3         -0.0144    1.2109    0.0087 C.2       1 <0>         0.5128
      5 O2          0.0021   -0.0041    0.0020 O.2       1 <0>        -0.5047
      6 C4         -1.3011    1.9307    0.0187 C.ar      1 <0>        -0.1411
      7 C5         -1.3218    3.3288    0.0322 C.ar      1 <0>        -0.0307
      8 C6         -2.5245    3.9976    0.0357 C.ar      1 <0>        -0.1362
      9 C7         -3.7198    3.2836    0.0374 C.ar      1 <0>         0.2159
     10 C8         -3.7027    1.8915    0.0298 C.ar      1 <0>        -0.1538
     11 C9         -2.5034    1.2166    0.0205 C.ar      1 <0>        -0.0229
     12 N1         -4.9346    3.9631    0.0464 N.am      1 <0>        -0.5599
     13 C10        -5.1752    5.2023    0.5042 C.2       1 <0>         0.5294
     14 O3         -4.2774    5.8731    0.9828 O.2       1 <0>        -0.4897
     15 C11        -6.5319    5.7291    0.4178 C.ar      1 <0>        -0.1806
     16 C12        -7.0428    6.9815    0.8206 C.ar      1 <0>        -0.0114
     17 C13        -8.3593    7.2797    0.6473 C.ar      1 <0>        -0.1322
     18 C14        -9.2395    6.3707    0.0747 C.ar      1 <0>        -0.0533
     19 C15        -8.7773    5.1350   -0.3312 C.ar      1 <0>        -0.0868
     20 C16        -7.4442    4.8205   -0.1618 C.ar      1 <0>        -0.0868
     21 S1         -6.4424    3.4057   -0.5292 S.3       1 <0>         0.2520
     22 H1          4.4943    1.4936   -0.0328 H         1 <0>         0.0821
     23 H2          3.5303    2.7080   -0.9071 H         1 <0>         0.0677
     24 H3          3.5473    2.6984    0.8727 H         1 <0>         0.0678
     25 H4          2.4135    0.4932    0.8717 H         1 <0>         0.0723
     26 H5          2.3965    0.5027   -0.9082 H         1 <0>         0.0723
     27 H6         -0.3950    3.8832    0.0357 H         1 <0>         0.1497
     28 H7         -2.5412    5.0774    0.0416 H         1 <0>         0.1516
     29 H8         -4.6316    1.3406    0.0316 H         1 <0>         0.1423
     30 H9         -2.4908    0.1367    0.0143 H         1 <0>         0.1499
     31 H10        -6.3833    7.7097    1.2690 H         1 <0>         0.1388
     32 H11        -8.7280    8.2445    0.9629 H         1 <0>         0.1404
     33 H12       -10.2804    6.6292   -0.0519 H         1 <0>         0.1458
     34 H13        -9.4529    4.4206   -0.7780 H         1 <0>         0.1443
@<TRIPOS>BOND
     1    1    2 1
     2    1   22 1
     3    1   23 1
     4    1   24 1
     5    2    3 1
     6    2   25 1
     7    2   26 1
     8    3    4 1
     9    4    5 2
    10    4    6 1
    11    6   11 ar
    12    6    7 ar
    13    7    8 ar
    14    7   27 1
    15    8    9 ar
    16    8   28 1
    17    9   10 ar
    18    9   12 1
    19   10   11 ar
    20   10   29 1
    21   11   30 1
    22   12   21 1
    23   12   13 am
    24   13   14 2
    25   13   15 1
    26   15   20 ar
    27   15   16 ar
    28   16   17 ar
    29   16   31 1
    30   17   18 ar
    31   17   32 1
    32   18   19 ar
    33   18   33 1
    34   19   20 ar
    35   19   34 1
    36   20   21 1
@<TRIPOS>MOLECULE
ZINC01430602
   31    33     0     0     0
SMALL
USER_CHARGES
8-(2,5-dimethylphenyl)-4-fluoro-7-thia-8-azabicyclo[4.3.0]nona-2,4,10-trien-9-one
@<TRIPOS>ATOM
      1 C1         -0.2008   -2.8266   -2.5042 C.3       1 <0>        -0.1154
      2 C2         -0.0856   -2.0760   -1.2026 C.ar      1 <0>        -0.0829
      3 C3          0.0386   -2.7709   -0.0131 C.ar      1 <0>        -0.0951
      4 C4          0.1451   -2.0862    1.1835 C.ar      1 <0>        -0.1096
      5 C5          0.1272   -0.7052    1.1947 C.ar      1 <0>        -0.0649
      6 C6          0.0021   -0.0041    0.0020 C.ar      1 <0>         0.1518
      7 C7         -0.1100   -0.6955   -1.1982 C.ar      1 <0>        -0.0892
      8 N1         -0.0169    1.3931    0.0097 N.am      1 <0>        -0.5630
      9 C8         -1.0927    2.1964    0.0184 C.2       1 <0>         0.5335
     10 O1         -2.2180    1.7278    0.0203 O.2       1 <0>        -0.4980
     11 C9         -0.8891    3.6393    0.0301 C.ar      1 <0>        -0.1901
     12 C10        -1.8366    4.6858    0.0441 C.ar      1 <0>         0.0163
     13 C11        -1.4333    5.9847    0.0470 C.ar      1 <0>        -0.1674
     14 C12        -0.0843    6.3259    0.0355 C.ar      1 <0>         0.1644
     15 C13         0.8730    5.3278    0.0224 C.ar      1 <0>        -0.1256
     16 C14         0.4747    4.0073    0.0191 C.ar      1 <0>        -0.0626
     17 S1          1.3230    2.4515    0.0026 S.3       1 <0>         0.2514
     18 F1          0.2881    7.6246    0.0385 F         1 <0>        -0.1201
     19 C15         0.2438    0.0401    2.4993 C.3       1 <0>        -0.1204
     20 H1         -1.2514   -3.0216   -2.7194 H         1 <0>         0.0746
     21 H2          0.2297   -2.2289   -3.3077 H         1 <0>         0.0688
     22 H3          0.3359   -3.7722   -2.4271 H         1 <0>         0.0719
     23 H4          0.0529   -3.8508   -0.0190 H         1 <0>         0.1325
     24 H5          0.2420   -2.6319    2.1104 H         1 <0>         0.1350
     25 H6         -0.2118   -0.1536   -2.1268 H         1 <0>         0.1291
     26 H7         -2.8912    4.4529    0.0528 H         1 <0>         0.1482
     27 H8         -2.1763    6.7684    0.0581 H         1 <0>         0.1519
     28 H9          1.9230    5.5801    0.0140 H         1 <0>         0.1551
     29 H10        -0.7509    0.2061    2.9131 H         1 <0>         0.0752
     30 H11         0.8360   -0.5467    3.2014 H         1 <0>         0.0759
     31 H12         0.7305    1.0001    2.3271 H         1 <0>         0.0688
@<TRIPOS>BOND
     1    1    2 1
     2    1   20 1
     3    1   21 1
     4    1   22 1
     5    2    7 ar
     6    2    3 ar
     7    3    4 ar
     8    3   23 1
     9    4    5 ar
    10    4   24 1
    11    5    6 ar
    12    5   19 1
    13    6    7 ar
    14    6    8 1
    15    7   25 1
    16    8   17 1
    17    8    9 am
    18    9   10 2
    19    9   11 1
    20   11   16 ar
    21   11   12 ar
    22   12   13 ar
    23   12   26 1
    24   13   14 ar
    25   13   27 1
    26   14   15 ar
    27   14   18 1
    28   15   16 ar
    29   15   28 1
    30   16   17 1
    31   19   29 1
    32   19   30 1
    33   19   31 1
@<TRIPOS>MOLECULE
ZINC00478097
   25    27     0     0     0
SMALL
USER_CHARGES

@<TRIPOS>ATOM
      1 C1         -0.0167    1.3787    0.0096 C.ar      1 <0>        -0.1273
      2 C2          1.1695    2.0897    0.0021 C.ar      1 <0>        -0.0926
      3 C3          2.3774    1.4204   -0.0130 C.ar      1 <0>        -0.1402
      4 C4          2.3999    0.0312   -0.0206 C.ar      1 <0>         0.1718
      5 C5          1.2063   -0.6798   -0.0130 C.ar      1 <0>        -0.1194
      6 C6          0.0021   -0.0041    0.0020 C.ar      1 <0>        -0.0932
      7 N1          3.6203   -0.6492   -0.0363 N.am      1 <0>        -0.5634
      8 C7          3.8536   -1.8858   -0.5018 C.2       1 <0>         0.5246
      9 O1          2.9520   -2.5528   -0.9792 O.2       1 <0>        -0.4959
     10 C8          5.2106   -2.4130   -0.4240 C.ar      1 <0>        -0.1803
     11 C9          5.7302   -3.6590   -0.8305 C.ar      1 <0>        -0.0122
     12 C10         7.0502   -3.9453   -0.6601 C.ar      1 <0>        -0.1333
     13 C11         7.9220   -3.0295   -0.0852 C.ar      1 <0>        -0.0554
     14 C12         7.4495   -1.7992    0.3252 C.ar      1 <0>        -0.0871
     15 C13         6.1135   -1.4962    0.1577 C.ar      1 <0>        -0.0908
     16 S1          5.0981   -0.0896    0.5149 S.3       1 <0>         0.2587
     17 H1         -0.9598    1.9046    0.0260 H         1 <0>         0.1303
     18 H2          1.1512    3.1695    0.0077 H         1 <0>         0.1342
     19 H3          3.3034    1.9762   -0.0192 H         1 <0>         0.1309
     20 H4          1.2202   -1.7597   -0.0193 H         1 <0>         0.1415
     21 H5         -0.9262   -0.5561    0.0079 H         1 <0>         0.1336
     22 H6          5.0763   -4.3917   -1.2801 H         1 <0>         0.1378
     23 H7          7.4277   -4.9057   -0.9785 H         1 <0>         0.1396
     24 H8          8.9652   -3.2792    0.0405 H         1 <0>         0.1448
     25 H9          8.1192   -1.0803    0.7736 H         1 <0>         0.1435
@<TRIPOS>BOND
     1    1    6 ar
     2    1    2 ar
     3    1   17 1
     4    2    3 ar
     5    2   18 1
     6    3    4 ar
     7    3   19 1
     8    4    5 ar
     9    4    7 1
    10    5    6 ar
    11    5   20 1
    12    6   21 1
    13    7   16 1
    14    7    8 am
    15    8    9 2
    16    8   10 1
    17   10   15 ar
    18   10   11 ar
    19   11   12 ar
    20   11   22 1
    21   12   13 ar
    22   12   23 1
    23   13   14 ar
    24   13   24 1
    25   14   15 ar
    26   14   25 1
    27   15   16 1
@<TRIPOS>MOLECULE
ZINC26740555
   25    27     0     0     0
SMALL
USER_CHARGES
2-(4-chlorophenyl)-1,2-benzothiazol-3-one
@<TRIPOS>ATOM
      1 C1          2.7844    3.9136   -0.0049 C.ar      1 <0>        -0.1323
      2 C2          3.8737    3.0520   -0.0199 C.ar      1 <0>        -0.0541
      3 C3          3.6655    1.6876   -0.0245 C.ar      1 <0>        -0.0871
      4 C4          2.3749    1.1984   -0.0142 C.ar      1 <0>        -0.0869
      5 C5          1.2531    2.0558    0.0011 C.ar      1 <0>        -0.1797
      6 C6          1.5072    3.4440    0.0055 C.ar      1 <0>        -0.0122
      7 C7         -0.0161    1.3386    0.0094 C.2       1 <0>         0.5285
      8 O1         -1.0731    1.9457    0.0177 O.2       1 <0>        -0.4940
      9 N1          0.0021   -0.0041    0.0020 N.am      1 <0>        -0.5582
     10 S1          1.6575   -0.4220   -0.0160 S.3       1 <0>         0.2487
     11 C8         -1.0948   -0.8705    0.0082 C.ar      1 <0>         0.1822
     12 C9         -2.3097   -0.4515    0.5360 C.ar      1 <0>        -0.1081
     13 C10        -3.3928   -1.3081    0.5368 C.ar      1 <0>        -0.0815
     14 C11        -3.2661   -2.5865    0.0218 C.ar      1 <0>        -0.0460
     15 C12        -2.0557   -3.0083   -0.5002 C.ar      1 <0>        -0.0812
     16 C13        -0.9705   -2.1543   -0.5081 C.ar      1 <0>        -0.1283
     17 Cl1        -4.6278   -3.6631    0.0311 Cl        1 <0>        -0.0602
     18 H1          2.9549    4.9800   -0.0017 H         1 <0>         0.1402
     19 H2          4.8786    3.4477   -0.0282 H         1 <0>         0.1455
     20 H3          4.5053    1.0085   -0.0358 H         1 <0>         0.1440
     21 H4          0.6810    4.1396    0.0167 H         1 <0>         0.1385
     22 H5         -2.4079    0.5444    0.9421 H         1 <0>         0.1510
     23 H6         -4.3386   -0.9816    0.9432 H         1 <0>         0.1449
     24 H7         -1.9597   -4.0063   -0.9014 H         1 <0>         0.1455
     25 H8         -0.0260   -2.4842   -0.9149 H         1 <0>         0.1408
@<TRIPOS>BOND
     1    1    6 ar
     2    1    2 ar
     3    1   18 1
     4    2    3 ar
     5    2   19 1
     6    3    4 ar
     7    3   20 1
     8    4   10 1
     9    4    5 ar
    10    5    6 ar
    11    5    7 1
    12    6   21 1
    13    7    8 2
    14    7    9 am
    15    9   10 1
    16    9   11 1
    17   11   16 ar
    18   11   12 ar
    19   12   13 ar
    20   12   22 1
    21   13   14 ar
    22   13   23 1
    23   14   15 ar
    24   14   17 1
    25   15   16 ar
    26   15   24 1
    27   16   25 1
