@<TRIPOS>MOLECULE
ZINC06733272
   46    48     0     0     0
SMALL
USER_CHARGES
3,4-bis(2-hydroxyethylsulfanyl)-1-(4-phenylphenyl)-pyrrole-2,5-dione
@<TRIPOS>ATOM
      1 C1         -8.2884  -10.4819   -1.0283 C.ar      1 <0>        -0.1165
      2 C2         -8.6802   -9.2327   -0.5818 C.ar      1 <0>        -0.1170
      3 C3         -7.7519   -8.2190   -0.4575 C.ar      1 <0>        -0.1095
      4 C4         -6.4176   -8.4560   -0.7824 C.ar      1 <0>        -0.0485
      5 C5         -6.0294   -9.7151   -1.2364 C.ar      1 <0>        -0.1095
      6 C6         -6.9654  -10.7226   -1.3526 C.ar      1 <0>        -0.1169
      7 C7         -5.4153   -7.3702   -0.6514 C.ar      1 <0>        -0.0468
      8 C8         -4.0810   -7.6088   -0.9768 C.ar      1 <0>        -0.0884
      9 C9         -3.1514   -6.5980   -0.8547 C.ar      1 <0>        -0.1320
     10 C10        -3.5436   -5.3422   -0.4076 C.ar      1 <0>         0.1233
     11 C11        -4.8720   -5.1035   -0.0772 C.ar      1 <0>        -0.1319
     12 C12        -5.8063   -6.1095   -0.2031 C.ar      1 <0>        -0.0884
     13 N1         -2.5977   -4.3174   -0.2843 N.am      1 <0>        -0.5177
     14 C13        -1.2892   -4.4374   -0.5692 C.2       1 <0>         0.5585
     15 O1         -0.7400   -5.4432   -0.9724 O.2       1 <0>        -0.4220
     16 C14        -0.6337   -3.1403   -0.3153 C.2       1 <0>        -0.1038
     17 C15        -1.6092   -2.2933    0.1274 C.2       1 <0>        -0.1048
     18 C16        -2.8643   -3.0685    0.1367 C.2       1 <0>         0.5587
     19 O2         -3.9549   -2.6493    0.4691 O.2       1 <0>        -0.4220
     20 S1         -1.4094   -0.6047    0.5894 S.3       1 <0>        -0.0107
     21 C17        -1.7811   -0.5886    2.3649 C.3       1 <0>        -0.1221
     22 C18        -1.6278    0.8346    2.9051 C.3       1 <0>         0.0952
     23 O3         -1.8585    0.8362    4.3154 O.3       1 <0>        -0.5675
     24 S2          1.0723   -2.7598   -0.5370 S.3       1 <0>        -0.0093
     25 C19         1.3299   -2.9239   -2.3251 C.3       1 <0>        -0.1226
     26 C20         2.7838   -2.5887   -2.6638 C.3       1 <0>         0.0953
     27 O4          3.0030   -2.7794   -4.0630 O.3       1 <0>        -0.5674
     28 H1         -9.0182  -11.2721   -1.1244 H         1 <0>         0.1240
     29 H2         -9.7145   -9.0502   -0.3302 H         1 <0>         0.1256
     30 H3         -8.0590   -7.2438   -0.1094 H         1 <0>         0.1260
     31 H4         -4.9975   -9.9029   -1.4938 H         1 <0>         0.1260
     32 H5         -6.6651  -11.6997   -1.7011 H         1 <0>         0.1256
     33 H6         -3.7756   -8.5849   -1.3240 H         1 <0>         0.1368
     34 H7         -2.1176   -6.7824   -1.1070 H         1 <0>         0.1559
     35 H8         -5.1737   -4.1279    0.2743 H         1 <0>         0.1559
     36 H9         -6.8395   -5.9223    0.0496 H         1 <0>         0.1368
     37 H10        -1.0910   -1.2516    2.8866 H         1 <0>         0.1014
     38 H11        -2.8039   -0.9298    2.5251 H         1 <0>         0.1011
     39 H12        -0.6190    1.1938    2.7015 H         1 <0>         0.0622
     40 H13        -2.3514    1.4881    2.4179 H         1 <0>         0.0609
     41 H14        -1.8446    1.7166    4.7152 H         1 <0>         0.3901
     42 H15         1.1121   -3.9472   -2.6311 H         1 <0>         0.1021
     43 H16         0.6666   -2.2381   -2.8522 H         1 <0>         0.1008
     44 H17         2.9877   -1.5504   -2.4023 H         1 <0>         0.0627
     45 H18         3.4484   -3.2429   -2.0995 H         1 <0>         0.0604
     46 H19         3.9210   -2.6507   -4.3384 H         1 <0>         0.3901
@<TRIPOS>BOND
     1    1    6 ar
     2    1    2 ar
     3    1   28 1
     4    2    3 ar
     5    2   29 1
     6    3    4 ar
     7    3   30 1
     8    4    5 ar
     9    4    7 1
    10    5    6 ar
    11    5   31 1
    12    6   32 1
    13    7   12 ar
    14    7    8 ar
    15    8    9 ar
    16    8   33 1
    17    9   10 ar
    18    9   34 1
    19   10   11 ar
    20   10   13 1
    21   11   12 ar
    22   11   35 1
    23   12   36 1
    24   13   18 am
    25   13   14 am
    26   14   15 2
    27   14   16 1
    28   16   17 2
    29   16   24 1
    30   17   18 1
    31   17   20 1
    32   18   19 2
    33   20   21 1
    34   21   22 1
    35   21   37 1
    36   21   38 1
    37   22   23 1
    38   22   39 1
    39   22   40 1
    40   23   41 1
    41   24   25 1
    42   25   26 1
    43   25   42 1
    44   25   43 1
    45   26   27 1
    46   26   44 1
    47   26   45 1
    48   27   46 1
@<TRIPOS>MOLECULE
ZINC49739406
   38    40     0     0     0
SMALL
USER_CHARGES

@<TRIPOS>ATOM
      1 C1         -0.0167    1.3821    0.0096 C.ar      1 <0>        -0.1484
      2 C2          1.1794    2.0817    0.0020 C.ar      1 <0>        -0.0198
      3 C3          2.3718    1.3504   -0.0155 C.ar      1 <0>        -0.1764
      4 C4          2.3071   -0.0556   -0.0335 C.ar      1 <0>         0.1071
      5 N1          1.1364   -0.6735   -0.0182 N.ar      1 <0>        -0.4368
      6 C5          0.0021   -0.0041    0.0020 C.ar      1 <0>         0.1293
      7 C6          3.5689   -0.8418   -0.0816 C.2       1 <0>         0.4012
      8 O1          3.5656   -2.0358   -0.3012 O.2       1 <0>        -0.3675
      9 C7          4.8411   -0.0929    0.1525 C.2       1 <0>         0.1080
     10 C8          4.9154    1.3032   -0.4418 C.3       1 <0>        -0.0039
     11 C9          3.6697    2.0464   -0.0107 C.2       1 <0>         0.4104
     12 O2          3.7397    3.2059    0.3364 O.2       1 <0>        -0.3963
     13 Cl1         4.9760    1.2008   -2.2409 Cl        1 <0>        -0.0949
     14 N2          5.8194   -0.6026    0.8210 N.2       1 <0>        -0.4016
     15 C10         5.7022   -1.9532    1.3761 C.3       1 <0>         0.0070
     16 C11         6.7187   -2.8736    0.6975 C.3       1 <0>         0.0728
     17 N3          6.6012   -4.2279    1.2542 N.3       1 <0>        -0.5348
     18 C12         7.0050   -4.2535    2.6675 C.3       1 <0>         0.0118
     19 C13         6.8109   -5.6670    3.2227 C.3       1 <0>         0.0633
     20 O3          7.5587   -6.5923    2.4291 O.3       1 <0>        -0.3843
     21 C14         7.1907   -6.5942    1.0470 C.3       1 <0>         0.0633
     22 C15         7.3888   -5.1901    0.4699 C.3       1 <0>         0.0196
     23 H1         -0.9571    1.9131    0.0259 H         1 <0>         0.1567
     24 H2          1.1908    3.1616    0.0089 H         1 <0>         0.1589
     25 H3         -0.9320   -0.5460    0.0132 H         1 <0>         0.1762
     26 H4          5.8012    1.8176   -0.0692 H         1 <0>         0.1628
     27 H5          5.8977   -1.9237    2.4481 H         1 <0>         0.1036
     28 H6          4.6953   -2.3320    1.2007 H         1 <0>         0.0864
     29 H7          6.5233   -2.9031   -0.3744 H         1 <0>         0.0825
     30 H8          7.7256   -2.4948    0.8729 H         1 <0>         0.0503
     31 H9          8.0543   -3.9705    2.7514 H         1 <0>         0.0476
     32 H10         6.3919   -3.5526    3.2340 H         1 <0>         0.0862
     33 H11         7.1625   -5.7046    4.2537 H         1 <0>         0.1001
     34 H12         5.7535   -5.9295    3.1883 H         1 <0>         0.0612
     35 H13         7.8171   -7.3024    0.5046 H         1 <0>         0.1010
     36 H14         6.1444   -6.8836    0.9494 H         1 <0>         0.0620
     37 H15         7.0558   -5.1729   -0.5679 H         1 <0>         0.0891
     38 H16         8.4442   -4.9221    0.5186 H         1 <0>         0.0464
@<TRIPOS>BOND
     1    1    6 ar
     2    1    2 ar
     3    1   23 1
     4    2    3 ar
     5    2   24 1
     6    3   11 1
     7    3    4 ar
     8    4    5 ar
     9    4    7 1
    10    5    6 ar
    11    6   25 1
    12    7    8 2
    13    7    9 1
    14    9   14 2
    15    9   10 1
    16   10   11 1
    17   10   13 1
    18   10   26 1
    19   11   12 2
    20   14   15 1
    21   15   16 1
    22   15   27 1
    23   15   28 1
    24   16   17 1
    25   16   29 1
    26   16   30 1
    27   17   22 1
    28   17   18 1
    29   18   19 1
    30   18   31 1
    31   18   32 1
    32   19   20 1
    33   19   33 1
    34   19   34 1
    35   20   21 1
    36   21   22 1
    37   21   35 1
    38   21   36 1
    39   22   37 1
    40   22   38 1
@<TRIPOS>MOLECULE
ZINC49739406
   38    40     0     0     0
SMALL
USER_CHARGES

@<TRIPOS>ATOM
      1 C1         -0.0858    1.3073    0.4490 C.ar      1 <0>        -0.1492
      2 C2          1.0934    2.0345    0.4803 C.ar      1 <0>        -0.0190
      3 C3          2.3002    1.3417    0.3368 C.ar      1 <0>        -0.1779
      4 C4          2.2660   -0.0542    0.1588 C.ar      1 <0>         0.1150
      5 N1          1.1107   -0.7004    0.1437 N.ar      1 <0>        -0.4356
      6 C5         -0.0366   -0.0679    0.2808 C.ar      1 <0>         0.1318
      7 C6          3.5422   -0.7961   -0.0239 C.2       1 <0>         0.4530
      8 O1          3.5571   -1.9568   -0.3795 O.2       1 <0>        -0.3603
      9 C7          4.8055   -0.0457    0.2504 C.2       1 <0>         0.1106
     10 C8          4.8263    1.4107   -0.1809 C.3       1 <0>        -0.0694
     11 C9          3.5816    2.0666    0.3764 C.2       1 <0>         0.4132
     12 O2          3.6389    3.1801    0.8523 O.2       1 <0>        -0.3996
     13 Cl1         4.8210    1.5167   -1.9808 Cl        1 <0>        -0.0940
     14 N2          5.8194   -0.6026    0.8210 N.2       1 <0>        -0.4016
     15 C10         7.0871    0.1232    0.9324 C.3       1 <0>         0.0149
     16 C11         7.3861    0.4042    2.4064 C.3       1 <0>         0.0601
     17 N3          8.6572    1.1319    2.5182 N.3       1 <0>        -0.5367
     18 C12         9.7853    0.2901    2.0937 C.3       1 <0>         0.0107
     19 C13        11.0795    1.1046    2.1690 C.3       1 <0>         0.0632
     20 O3         11.2463    1.6031    3.4991 O.3       1 <0>        -0.3837
     21 C14        10.1660    2.4275    3.9447 C.3       1 <0>         0.0634
     22 C15         8.8626    1.6264    3.8873 C.3       1 <0>         0.0180
     23 H1         -1.0364    1.8079    0.5594 H         1 <0>         0.1568
     24 H2          1.0811    3.1064    0.6114 H         1 <0>         0.1581
     25 H3         -0.9574   -0.6320    0.2621 H         1 <0>         0.1773
     26 H4          5.7139    1.9023    0.2173 H         1 <0>         0.1565
     27 H5          7.8896   -0.4798    0.5075 H         1 <0>         0.1156
     28 H6          7.0149    1.0660    0.3902 H         1 <0>         0.0728
     29 H7          6.5836    1.0072    2.8313 H         1 <0>         0.0799
     30 H8          7.4583   -0.5386    2.9486 H         1 <0>         0.0557
     31 H9          9.8612   -0.5756    2.7516 H         1 <0>         0.0492
     32 H10         9.6246   -0.0439    1.0686 H         1 <0>         0.0888
     33 H11        11.9256    0.4682    1.9100 H         1 <0>         0.1010
     34 H12        11.0247    1.9403    1.4713 H         1 <0>         0.0617
     35 H13        10.3515    2.7478    4.9699 H         1 <0>         0.1013
     36 H14        10.0847    3.3016    3.2986 H         1 <0>         0.0620
     37 H15         8.0284    2.2678    4.1716 H         1 <0>         0.0887
     38 H16         8.9238    0.7821    4.5739 H         1 <0>         0.0477
@<TRIPOS>BOND
     1    1    6 ar
     2    1    2 ar
     3    1   23 1
     4    2    3 ar
     5    2   24 1
     6    3   11 1
     7    3    4 ar
     8    4    5 ar
     9    4    7 1
    10    5    6 ar
    11    6   25 1
    12    7    8 2
    13    7    9 1
    14    9   14 2
    15    9   10 1
    16   10   11 1
    17   10   13 1
    18   10   26 1
    19   11   12 2
    20   14   15 1
    21   15   16 1
    22   15   27 1
    23   15   28 1
    24   16   17 1
    25   16   29 1
    26   16   30 1
    27   17   22 1
    28   17   18 1
    29   18   19 1
    30   18   31 1
    31   18   32 1
    32   19   20 1
    33   19   33 1
    34   19   34 1
    35   20   21 1
    36   21   22 1
    37   21   35 1
    38   21   36 1
    39   22   37 1
    40   22   38 1
@<TRIPOS>MOLECULE
ZINC01270317
   43    45     0     0     0
SMALL
USER_CHARGES

@<TRIPOS>ATOM
      1 C1         -1.1590    0.9270    0.9888 C.2       1 <0>        -0.1536
      2 C2         -1.0962   -0.3724    0.8349 C.2       1 <0>        -0.1889
      3 C3         -2.2574   -1.1162    0.2271 C.3       1 <0>         0.1258
      4 N1         -1.7818   -1.9340   -0.8915 N.pl3     1 <0>        -0.4490
      5 C4         -1.7963   -1.6046   -2.2273 C.2       1 <0>         0.2257
      6 N2         -1.2786   -2.6191   -2.8799 N.2       1 <0>        -0.2599
      7 N3         -0.9461   -3.5473   -2.0557 N.2       1 <0>        -0.2902
      8 C5         -1.2262   -3.1798   -0.8251 C.2       1 <0>         0.1535
      9 S1         -0.9418   -4.1208    0.6371 S.3       1 <0>         0.0604
     10 C6         -0.1908   -5.6569    0.0313 C.3       1 <0>        -0.1689
     11 C7          0.1068   -6.5643    1.1971 C.2       1 <0>         0.4213
     12 O1         -0.1613   -6.2097    2.3256 O.2       1 <0>        -0.4302
     13 C8          0.7215   -7.8781    0.9668 C.ar      1 <0>        -0.1602
     14 C9          1.0372   -8.2871   -0.3345 C.ar      1 <0>        -0.0604
     15 C10         1.6138   -9.5190   -0.5476 C.ar      1 <0>        -0.1419
     16 C11         1.8834  -10.3588    0.5257 C.ar      1 <0>         0.1213
     17 C12         1.5720   -9.9587    1.8251 C.ar      1 <0>         0.0694
     18 C13         0.9990   -8.7229    2.0485 C.ar      1 <0>        -0.0657
     19 O2          1.8374  -10.7844    2.8727 O.3       1 <0>        -0.4829
     20 O3          2.4513  -11.5727    0.3092 O.3       1 <0>        -0.4852
     21 C14        -2.3002   -0.3458   -2.8164 C.ar      1 <0>        -0.0058
     22 C15        -2.9144   -0.3553   -4.0700 C.ar      1 <0>        -0.0694
     23 C16        -3.3827    0.8224   -4.6147 C.ar      1 <0>        -0.1014
     24 C17        -3.2449    2.0119   -3.9217 C.ar      1 <0>        -0.0936
     25 C18        -2.6364    2.0290   -2.6782 C.ar      1 <0>        -0.0337
     26 C19        -2.1691    0.8558   -2.1193 C.ar      1 <0>        -0.1098
     27 Cl1        -2.4672    3.5267   -1.8168 Cl        1 <0>        -0.0588
     28 H1         -0.3469    1.4540    1.4674 H         1 <0>         0.1155
     29 H2         -2.0210    1.4719    0.6331 H         1 <0>         0.1054
     30 H3         -0.2122   -0.9106    1.1436 H         1 <0>         0.1259
     31 H4         -2.7111   -1.7599    0.9807 H         1 <0>         0.1136
     32 H5         -2.9974   -0.4020   -0.1339 H         1 <0>         0.1081
     33 H6         -0.8810   -6.1548   -0.6497 H         1 <0>         0.1351
     34 H7          0.7353   -5.4257   -0.4948 H         1 <0>         0.1351
     35 H8          0.8280   -7.6367   -1.1709 H         1 <0>         0.1438
     36 H9          1.8568   -9.8335   -1.5518 H         1 <0>         0.1447
     37 H10         0.7612   -8.4103    3.0546 H         1 <0>         0.1478
     38 H11         2.7164  -10.6623    3.2568 H         1 <0>         0.3910
     39 H12         3.4181  -11.5635    0.3273 H         1 <0>         0.3957
     40 H13        -3.0225   -1.2829   -4.6125 H         1 <0>         0.1421
     41 H14        -3.8576    0.8159   -5.5847 H         1 <0>         0.1440
     42 H15        -3.6133    2.9311   -4.3527 H         1 <0>         0.1411
     43 H16        -1.6988    0.8690   -1.1471 H         1 <0>         0.1434
@<TRIPOS>BOND
     1    1    2 2
     2    1   28 1
     3    1   29 1
     4    2    3 1
     5    2   30 1
     6    3    4 1
     7    3   31 1
     8    3   32 1
     9    4    8 1
    10    4    5 1
    11    5    6 2
    12    5   21 1
    13    6    7 1
    14    7    8 2
    15    8    9 1
    16    9   10 1
    17   10   11 1
    18   10   33 1
    19   10   34 1
    20   11   12 2
    21   11   13 1
    22   13   18 ar
    23   13   14 ar
    24   14   15 ar
    25   14   35 1
    26   15   16 ar
    27   15   36 1
    28   16   17 ar
    29   16   20 1
    30   17   18 ar
    31   17   19 1
    32   18   37 1
    33   19   38 1
    34   20   39 1
    35   21   26 ar
    36   21   22 ar
    37   22   23 ar
    38   22   40 1
    39   23   24 ar
    40   23   41 1
    41   24   25 ar
    42   24   42 1
    43   25   26 ar
    44   25   27 1
    45   26   43 1
@<TRIPOS>MOLECULE
ZINC02339257
   46    49     0     0     0
SMALL
USER_CHARGES
2-[2-[5-(4-chlorophenyl)-2-furyl]vinyl]-4-oxo-1-phenyl-6-sulfanyl-2,3-dihydropyrimidine-5-carbonitrile
@<TRIPOS>ATOM
      1 C1         10.2815    4.0602   -4.4407 C.ar      1 <0>        -0.1026
      2 C2         10.9751    3.0971   -3.7310 C.ar      1 <0>        -0.1057
      3 C3         10.3681    2.4429   -2.6770 C.ar      1 <0>        -0.1019
      4 C4          9.0594    2.7532   -2.3301 C.ar      1 <0>         0.1129
      5 C5          8.3637    3.7171   -3.0486 C.ar      1 <0>        -0.1034
      6 C6          8.9783    4.3713   -4.0981 C.ar      1 <0>        -0.1075
      7 N1          8.4419    2.0928   -1.2634 N.pl3     1 <0>        -0.5352
      8 C7          8.0887    2.8197   -0.0395 C.3       1 <0>         0.4171
      9 H1          8.5948    3.7850   -0.0323 H         1 <0>         0.1272
     10 N2          8.5022    2.0445    1.1317 N.am      1 <0>        -0.7298
     11 C8          8.5270    0.6986    1.0912 C.2       1 <0>         0.5975
     12 O1          8.8317    0.0611    2.0830 O.2       1 <0>        -0.5246
     13 C9          8.1856    0.0059   -0.1535 C.2       1 <0>        -0.2404
     14 C10         8.1558    0.7525   -1.3432 C.2       1 <0>         0.2932
     15 S1          7.7652   -0.0057   -2.8850 S.3       1 <0>        -0.0349
     16 C11         7.8897   -1.3952   -0.1575 C.1       1 <0>         0.2693
     17 N3          7.6549   -2.5066   -0.1606 N.1       1 <0>        -0.4126
     18 C12         6.5978    3.0351    0.0030 C.2       1 <0>        -0.1794
     19 C13         6.1047    4.2708    0.0412 C.2       1 <0>        -0.0409
     20 C14         4.6511    4.4809    0.0825 C.2       1 <0>         0.0111
     21 C15         4.0193    5.6900    0.1237 C.2       1 <0>        -0.1721
     22 C16         2.6413    5.4301    0.1529 C.2       1 <0>        -0.1857
     23 C17         2.4909    4.0759    0.1283 C.2       1 <0>         0.0395
     24 O2          3.7139    3.5124    0.0917 O.3       1 <0>        -0.1620
     25 C18         1.2057    3.3494    0.1454 C.ar      1 <0>        -0.0168
     26 C19         1.1889    1.9530    0.1166 C.ar      1 <0>        -0.0879
     27 C20        -0.0149    1.2804    0.1333 C.ar      1 <0>        -0.1059
     28 C21        -1.2056    1.9866    0.1731 C.ar      1 <0>        -0.0279
     29 C22        -1.1957    3.3711    0.2071 C.ar      1 <0>        -0.1052
     30 C23         0.0014    4.0556    0.1909 C.ar      1 <0>        -0.0833
     31 Cl1        -2.7169    1.1325    0.1871 Cl        1 <0>        -0.0614
     32 H2         10.7585    4.5703   -5.2645 H         1 <0>         0.1300
     33 H3         11.9927    2.8564   -4.0011 H         1 <0>         0.1325
     34 H4         10.9102    1.6905   -2.1234 H         1 <0>         0.1291
     35 H5          7.3444    3.9573   -2.7844 H         1 <0>         0.1319
     36 H6          8.4393    5.1237   -4.6546 H         1 <0>         0.1325
     37 H7          8.7611    2.5044    1.9455 H         1 <0>         0.4193
     38 H8          7.5589   -1.3340   -2.4594 H         1 <0>         0.1290
     39 H9          5.9294    2.1868    0.0024 H         1 <0>         0.1280
     40 H10         6.7731    5.1191    0.0417 H         1 <0>         0.1529
     41 H11         4.4906    6.6617    0.1319 H         1 <0>         0.1582
     42 H12         1.8497    6.1639    0.1885 H         1 <0>         0.1562
     43 H13         2.1166    1.4013    0.0811 H         1 <0>         0.1375
     44 H14        -0.0293    0.2007    0.1107 H         1 <0>         0.1399
     45 H15        -2.1275    3.9159    0.2419 H         1 <0>         0.1423
     46 H16         0.0078    5.1353    0.2130 H         1 <0>         0.1400
@<TRIPOS>BOND
     1    1    6 ar
     2    1    2 ar
     3    1   32 1
     4    2    3 ar
     5    2   33 1
     6    3    4 ar
     7    3   34 1
     8    4    5 ar
     9    4    7 1
    10    5    6 ar
    11    5   35 1
    12    6   36 1
    13    7   14 1
    14    7    8 1
    15    8    9 1
    16    8   10 1
    17    8   18 1
    18   10   11 am
    19   10   37 1
    20   11   12 2
    21   11   13 1
    22   13   14 2
    23   13   16 1
    24   14   15 1
    25   15   38 1
    26   16   17 3
    27   18   19 2
    28   18   39 1
    29   19   20 1
    30   19   40 1
    31   20   24 1
    32   20   21 2
    33   21   22 1
    34   21   41 1
    35   22   23 2
    36   22   42 1
    37   23   24 1
    38   23   25 1
    39   25   30 ar
    40   25   26 ar
    41   26   27 ar
    42   26   43 1
    43   27   28 ar
    44   27   44 1
    45   28   29 ar
    46   28   31 1
    47   29   30 ar
    48   29   45 1
    49   30   46 1
@<TRIPOS>MOLECULE
ZINC02339261
   45    48     0     0     0
SMALL
USER_CHARGES

@<TRIPOS>ATOM
      1 C1         -0.0162    1.3794    0.0108 C.ar      1 <0>        -0.1253
      2 C2          0.4170    0.7135    1.1427 C.ar      1 <0>        -0.1127
      3 C3          1.6224    0.0395    1.1303 C.ar      1 <0>        -0.1101
      4 C4          2.3997    0.0310   -0.0207 C.ar      1 <0>         0.1758
      5 C5          1.9617    0.7009   -1.1559 C.ar      1 <0>        -0.1057
      6 C6          0.7553    1.3729   -1.1368 C.ar      1 <0>        -0.1101
      7 N1          3.6209   -0.6500   -0.0365 N.pl3     1 <0>        -0.5720
      8 C7          3.6608   -2.1130    0.0592 C.3       1 <0>         0.4141
      9 N2          4.5820   -2.6495   -0.9443 N.am      1 <0>        -0.7413
     10 C8          5.6547   -1.9366   -1.3418 C.2       1 <0>         0.5974
     11 O1          6.4395   -2.4075   -2.1450 O.2       1 <0>        -0.5631
     12 C9          5.8712   -0.5923   -0.8018 C.2       1 <0>        -0.3201
     13 C10         4.8034    0.0386   -0.1476 C.2       1 <0>         0.4445
     14 S1          4.9781    1.6620    0.5148 S.3       1 <0>        -0.7808
     15 C11         7.1377    0.0610   -0.9425 C.1       1 <0>         0.3363
     16 N3          8.1424    0.5793   -1.0540 N.1       1 <0>        -0.4944
     17 C12         4.1297   -2.5127    1.4345 C.2       1 <0>        -0.1335
     18 C13         3.3449   -3.2497    2.2171 C.2       1 <0>        -0.0857
     19 C14         3.8020   -3.6393    3.5580 C.2       1 <0>         0.0412
     20 C15         3.1007   -4.3939    4.4534 C.2       1 <0>        -0.1952
     21 C16         3.9040   -4.5237    5.5959 C.2       1 <0>        -0.1812
     22 C17         5.0593   -3.8442    5.3496 C.2       1 <0>         0.0216
     23 O2          4.9879   -3.3177    4.1117 O.3       1 <0>        -0.1587
     24 C18         6.1980   -3.7113    6.2800 C.ar      1 <0>        -0.0073
     25 C19         6.1505   -4.3173    7.5376 C.ar      1 <0>        -0.0885
     26 C20         7.2176   -4.1899    8.4018 C.ar      1 <0>        -0.1072
     27 C21         8.3344   -3.4626    8.0253 C.ar      1 <0>        -0.0325
     28 C22         8.3875   -2.8590    6.7800 C.ar      1 <0>        -0.1035
     29 C23         7.3296   -2.9840    5.9042 C.ar      1 <0>        -0.0878
     30 Cl1         9.6733   -3.3065    9.1193 Cl        1 <0>        -0.0691
     31 H1         -0.9613    1.9020    0.0217 H         1 <0>         0.1187
     32 H2         -0.1878    0.7207    2.0375 H         1 <0>         0.1210
     33 H3          1.9603   -0.4801    2.0147 H         1 <0>         0.1221
     34 H4          2.5639    0.6966   -2.0524 H         1 <0>         0.1208
     35 H5          0.4141    1.8940   -2.0191 H         1 <0>         0.1214
     36 H6          2.6624   -2.5150   -0.1136 H         1 <0>         0.1072
     37 H7          4.4191   -3.5261   -1.3264 H         1 <0>         0.4040
     38 H8          5.1025   -2.2011    1.7851 H         1 <0>         0.1261
     39 H9          2.3720   -3.5613    1.8665 H         1 <0>         0.1492
     40 H10         2.1150   -4.8111    4.3097 H         1 <0>         0.1548
     41 H11         3.6541   -5.0599    6.4994 H         1 <0>         0.1521
     42 H12         5.2798   -4.8841    7.8326 H         1 <0>         0.1380
     43 H13         7.1821   -4.6580    9.3745 H         1 <0>         0.1389
     44 H14         9.2611   -2.2928    6.4925 H         1 <0>         0.1398
     45 H15         7.3742   -2.5169    4.9314 H         1 <0>         0.1412
@<TRIPOS>BOND
     1    1    6 ar
     2    1    2 ar
     3    1   31 1
     4    2    3 ar
     5    2   32 1
     6    3    4 ar
     7    3   33 1
     8    4    5 ar
     9    4    7 1
    10    5    6 ar
    11    5   34 1
    12    6   35 1
    13    7   13 1
    14    7    8 1
    15    8    9 1
    16    8   17 1
    17    8   36 1
    18    9   10 am
    19    9   37 1
    20   10   11 2
    21   10   12 1
    22   12   13 2
    23   12   15 1
    24   13   14 1
    25   15   16 3
    26   17   18 2
    27   17   38 1
    28   18   19 1
    29   18   39 1
    30   19   23 1
    31   19   20 2
    32   20   21 1
    33   20   40 1
    34   21   22 2
    35   21   41 1
    36   22   23 1
    37   22   24 1
    38   24   29 ar
    39   24   25 ar
    40   25   26 ar
    41   25   42 1
    42   26   27 ar
    43   26   43 1
    44   27   28 ar
    45   27   30 1
    46   28   29 ar
    47   28   44 1
    48   29   45 1
@<TRIPOS>MOLECULE
ZINC01615742
   34    35     0     0     0
SMALL
USER_CHARGES

@<TRIPOS>ATOM
      1 C1          0.1022    1.4445    0.3855 C.ar      1 <0>        -0.0944
      2 C2          1.3035    2.1259    0.3705 C.ar      1 <0>        -0.0943
      3 C3          2.4998    1.4371    0.2398 C.ar      1 <0>        -0.0621
      4 C4          2.4903    0.0530    0.1238 C.ar      1 <0>        -0.1192
      5 C5          1.2677   -0.6405    0.1395 C.ar      1 <0>        -0.1193
      6 C6          0.0773    0.0629    0.2705 C.ar      1 <0>        -0.0620
      7 C7          1.2649   -2.1159    0.0159 C.2       1 <0>         0.4253
      8 O1          0.2138   -2.7267    0.0278 O.2       1 <0>        -0.3993
      9 C8          2.5375   -2.8406   -0.1219 C.2       1 <0>        -0.0968
     10 C9          3.7223   -2.1684   -0.1372 C.2       1 <0>        -0.0987
     11 C10         3.7556   -0.7029   -0.0162 C.2       1 <0>         0.4256
     12 O2          4.8191   -0.1141   -0.0308 O.2       1 <0>        -0.3995
     13 S1          5.2306   -3.0640   -0.3035 S.3       1 <0>        -0.0607
     14 C11         5.8822   -2.5313   -1.9104 C.3       1 <0>        -0.1134
     15 C12         7.1446   -3.3309   -2.2393 C.3       1 <0>         0.0958
     16 O3          7.5961   -2.9899   -3.5515 O.3       1 <0>        -0.5685
     17 S2          2.5294   -4.5965   -0.2681 S.3       1 <0>        -0.0580
     18 C13         1.8639   -5.1660    1.3204 C.3       1 <0>        -0.1145
     19 C14         1.9232   -6.6937    1.3798 C.3       1 <0>         0.0961
     20 O4          1.3000   -7.1481    2.5829 O.3       1 <0>        -0.5685
     21 H1         -0.8233    1.9908    0.4919 H         1 <0>         0.1426
     22 H2          1.3112    3.2021    0.4607 H         1 <0>         0.1426
     23 H3          3.4361    1.9751    0.2280 H         1 <0>         0.1467
     24 H4         -0.8650   -0.4647    0.2831 H         1 <0>         0.1467
     25 H5          5.1318   -2.7035   -2.6820 H         1 <0>         0.0960
     26 H6          6.1250   -1.4695   -1.8702 H         1 <0>         0.0985
     27 H7          7.9234   -3.0947   -1.5142 H         1 <0>         0.0595
     28 H8          6.9206   -4.3968   -2.1977 H         1 <0>         0.0611
     29 H9          8.3490   -3.5142   -3.8569 H         1 <0>         0.3886
     30 H10         2.4567   -4.7475    2.1337 H         1 <0>         0.0950
     31 H11         0.8290   -4.8385    1.4192 H         1 <0>         0.1002
     32 H12         1.4001   -7.1114    0.5196 H         1 <0>         0.0588
     33 H13         2.9638   -7.0178    1.3648 H         1 <0>         0.0615
     34 H14         1.3677   -8.1023    2.7247 H         1 <0>         0.3886
@<TRIPOS>BOND
     1    1    6 ar
     2    1    2 ar
     3    1   21 1
     4    2    3 ar
     5    2   22 1
     6    3    4 ar
     7    3   23 1
     8    4   11 1
     9    4    5 ar
    10    5    6 ar
    11    5    7 1
    12    6   24 1
    13    7    8 2
    14    7    9 1
    15    9   10 2
    16    9   17 1
    17   10   11 1
    18   10   13 1
    19   11   12 2
    20   13   14 1
    21   14   15 1
    22   14   25 1
    23   14   26 1
    24   15   16 1
    25   15   27 1
    26   15   28 1
    27   16   29 1
    28   17   18 1
    29   18   19 1
    30   18   30 1
    31   18   31 1
    32   19   20 1
    33   19   32 1
    34   19   33 1
    35   20   34 1
@<TRIPOS>MOLECULE
ZINC04474460
   72    74     0     0     0
SMALL
USER_CHARGES

@<TRIPOS>ATOM
      1 C1         -0.2768    0.9131   -0.1144 C.3       1 <0>        -0.1573
      2 C2          0.0766   -0.5716   -0.0062 C.3       1 <0>        -0.0833
      3 H1          0.6700   -0.8678   -0.8712 H         1 <0>         0.0746
      4 C3         -1.2090   -1.4000    0.0381 C.3       1 <0>        -0.1164
      5 C4         -1.9539   -1.2570   -1.2906 C.3       1 <0>        -0.1219
      6 C5         -3.2395   -2.0854   -1.2462 C.3       1 <0>        -0.1150
      7 C6         -3.9845   -1.9424   -2.5749 C.3       1 <0>        -0.0982
      8 C7         -5.2038   -2.8667   -2.5780 C.3       1 <0>        -0.1490
      9 C8         -4.4427   -0.4931   -2.7494 C.3       1 <0>        -0.1493
     10 C9          0.8827   -0.8122    1.2718 C.3       1 <0>        -0.0714
     11 H2          0.2964   -0.5317    2.1468 H         1 <0>         0.0708
     12 C10         1.3128   -2.2995    1.3655 C.3       1 <0>        -0.1189
     13 C11         2.8636   -2.2994    1.4782 C.3       1 <0>        -0.1170
     14 C12         3.1605   -0.9132    2.0549 C.3       1 <0>        -0.0593
     15 H3          2.9173   -0.8768    3.1168 H         1 <0>         0.0837
     16 C13         2.1829   -0.0244    1.2324 C.3       1 <0>        -0.0510
     17 C14         2.2015    1.3600    1.8373 C.3       1 <0>        -0.1078
     18 C15         3.5883    1.9665    1.5650 C.3       1 <0>        -0.1185
     19 C16         4.7064    1.1167    2.1657 C.3       1 <0>        -0.0898
     20 C17         4.5320   -0.3598    1.8060 C.2       1 <0>        -0.0835
     21 C18         5.5192   -1.0988    1.3001 C.2       1 <0>        -0.1503
     22 C19         6.8394   -0.5043    1.0783 C.2       1 <0>        -0.1087
     23 C20         7.8385   -1.2523    0.5663 C.2       1 <0>        -0.0916
     24 C21         9.2201   -0.6764    0.3277 C.3       1 <0>        -0.1106
     25 C22         9.6812   -1.0925   -1.0728 C.3       1 <0>         0.1086
     26 H4          9.0062   -0.6699   -1.8170 H         1 <0>         0.0568
     27 C23         9.6752   -2.6173   -1.1885 C.3       1 <0>        -0.1111
     28 C24         8.2372   -3.1388   -1.1015 C.3       1 <0>        -0.0797
     29 C25         7.6406   -2.6744    0.2166 C.2       1 <0>        -0.0887
     30 C26         6.9710   -3.5040    1.0166 C.2       1 <0>        -0.1828
     31 O1         11.0050   -0.6053   -1.3013 O.3       1 <0>        -0.5675
     32 C27         2.6778    0.0616   -0.2128 C.3       1 <0>        -0.1520
     33 H5          0.6390    1.5032   -0.1460 H         1 <0>         0.0645
     34 H6         -0.8511    1.0844   -1.0249 H         1 <0>         0.0536
     35 H7         -0.8703    1.2093    0.7506 H         1 <0>         0.0520
     36 H8         -0.9603   -2.4481    0.2043 H         1 <0>         0.0620
     37 H9         -1.8429   -1.0438    0.8502 H         1 <0>         0.0589
     38 H10        -2.2027   -0.2089   -1.4567 H         1 <0>         0.0659
     39 H11        -1.3201   -1.6132   -2.1026 H         1 <0>         0.0583
     40 H12        -2.9908   -3.1336   -1.0800 H         1 <0>         0.0595
     41 H13        -3.8734   -1.7292   -0.4341 H         1 <0>         0.0602
     42 H14        -3.3201   -2.2147   -3.3951 H         1 <0>         0.0675
     43 H15        -5.8681   -2.5944   -1.7579 H         1 <0>         0.0535
     44 H16        -5.7345   -2.7648   -3.5246 H         1 <0>         0.0534
     45 H17        -4.8774   -3.8992   -2.4537 H         1 <0>         0.0533
     46 H18        -3.5740    0.1653   -2.7472 H         1 <0>         0.0561
     47 H19        -4.9734   -0.3913   -3.6960 H         1 <0>         0.0520
     48 H20        -5.1070   -0.2209   -1.9292 H         1 <0>         0.0532
     49 H21         0.8733   -2.7613    2.2496 H         1 <0>         0.0623
     50 H22         1.0027   -2.8361    0.4689 H         1 <0>         0.0668
     51 H23         3.2015   -3.0812    2.1585 H         1 <0>         0.0634
     52 H24         3.3223   -2.4155    0.4963 H         1 <0>         0.0706
     53 H25         1.4308    1.9763    1.3745 H         1 <0>         0.0705
     54 H26         2.0299    1.2965    2.9118 H         1 <0>         0.0618
     55 H27         3.7382    2.0409    0.4879 H         1 <0>         0.0679
     56 H28         3.6301    2.9660    1.9980 H         1 <0>         0.0613
     57 H29         5.6665    1.4673    1.7871 H         1 <0>         0.0700
     58 H30         4.6906    1.2178    3.2509 H         1 <0>         0.0696
     59 H31         5.3457   -2.1359    1.0538 H         1 <0>         0.1294
     60 H32         7.0129    0.5328    1.3246 H         1 <0>         0.1187
     61 H33         9.1810    0.4109    0.3935 H         1 <0>         0.0716
     62 H34         9.9137   -1.0651    1.0733 H         1 <0>         0.0830
     63 H35        10.1094   -2.9098   -2.1445 H         1 <0>         0.0743
     64 H36        10.2652   -3.0445   -0.3778 H         1 <0>         0.0713
     65 H37         7.6525   -2.7440   -1.9324 H         1 <0>         0.0765
     66 H38         8.2389   -4.2281   -1.1380 H         1 <0>         0.0776
     67 H39         6.5576   -3.1415    1.9462 H         1 <0>         0.1074
     68 H40         6.8418   -4.5387    0.7353 H         1 <0>         0.1032
     69 H41        11.0846    0.3569   -1.2483 H         1 <0>         0.3788
     70 H42         2.0012    0.6902   -0.7918 H         1 <0>         0.0609
     71 H43         3.6784    0.4936   -0.2292 H         1 <0>         0.0614
     72 H44         2.7064   -0.9377   -0.6472 H         1 <0>         0.0539
@<TRIPOS>BOND
     1    1    2 1
     2    1   33 1
     3    1   34 1
     4    1   35 1
     5    2    3 1
     6    2    4 1
     7    2   10 1
     8    4    5 1
     9    4   36 1
    10    4   37 1
    11    5    6 1
    12    5   38 1
    13    5   39 1
    14    6    7 1
    15    6   40 1
    16    6   41 1
    17    7    8 1
    18    7    9 1
    19    7   42 1
    20    8   43 1
    21    8   44 1
    22    8   45 1
    23    9   46 1
    24    9   47 1
    25    9   48 1
    26   10   11 1
    27   10   16 1
    28   10   12 1
    29   12   13 1
    30   12   49 1
    31   12   50 1
    32   13   14 1
    33   13   51 1
    34   13   52 1
    35   14   15 1
    36   14   20 1
    37   14   16 1
    38   16   17 1
    39   16   32 1
    40   17   18 1
    41   17   53 1
    42   17   54 1
    43   18   19 1
    44   18   55 1
    45   18   56 1
    46   19   20 1
    47   19   57 1
    48   19   58 1
    49   20   21 2
    50   21   22 1
    51   21   59 1
    52   22   23 2
    53   22   60 1
    54   23   29 1
    55   23   24 1
    56   24   25 1
    57   24   61 1
    58   24   62 1
    59   25   26 1
    60   25   27 1
    61   25   31 1
    62   27   28 1
    63   27   63 1
    64   27   64 1
    65   28   29 1
    66   28   65 1
    67   28   66 1
    68   29   30 2
    69   30   67 1
    70   30   68 1
    71   31   69 1
    72   32   70 1
    73   32   71 1
    74   32   72 1
@<TRIPOS>MOLECULE
ZINC04474460
   72    74     0     0     0
SMALL
USER_CHARGES

@<TRIPOS>ATOM
      1 C1         -0.0946    0.4052   -0.8712 C.3       1 <0>        -0.1575
      2 C2          0.2555   -1.0699   -0.6649 C.3       1 <0>        -0.0833
      3 H1          0.9622   -1.3863   -1.4321 H         1 <0>         0.0747
      4 C3         -1.0164   -1.9145   -0.7636 C.3       1 <0>        -0.1163
      5 C4         -1.5781   -1.8266   -2.1841 C.3       1 <0>        -0.1220
      6 C5         -2.8500   -2.6713   -2.2828 C.3       1 <0>        -0.1149
      7 C6         -3.4116   -2.5834   -3.7032 C.3       1 <0>        -0.0982
      8 C7         -4.6106   -3.5245   -3.8367 C.3       1 <0>        -0.1490
      9 C8         -3.8563   -1.1474   -3.9879 C.3       1 <0>        -0.1493
     10 C9          0.8854   -1.2561    0.7169 C.3       1 <0>        -0.0706
     11 H2          0.1846   -0.9550    1.4955 H         1 <0>         0.0707
     12 C10         1.3135   -2.7332    0.9192 C.3       1 <0>        -0.1237
     13 C11         2.8352   -2.7073    1.2379 C.3       1 <0>        -0.1189
     14 C12         3.0387   -1.2986    1.8002 C.3       1 <0>        -0.0591
     15 H3          2.6552   -1.2302    2.8182 H         1 <0>         0.0816
     16 C13         2.1716   -0.4517    0.8239 C.3       1 <0>        -0.0493
     17 C14         2.0956    0.9522    1.3771 C.3       1 <0>        -0.1077
     18 C15         3.5005    1.5691    1.2713 C.3       1 <0>        -0.1214
     19 C16         4.5362    0.7558    2.0452 C.3       1 <0>        -0.0831
     20 C17         4.4258   -0.7342    1.7174 C.2       1 <0>        -0.0893
     21 C18         5.4790   -1.4756    1.3740 C.2       1 <0>        -0.1445
     22 C19         5.3705   -2.9361    1.3517 C.2       1 <0>        -0.1276
     23 C20         6.3920   -3.6812    0.8815 C.2       1 <0>        -0.0994
     24 C21         6.3164   -5.1943    0.8358 C.3       1 <0>        -0.1086
     25 C22         7.6223   -5.7602    1.4029 C.3       1 <0>         0.1082
     26 H4          7.7254   -5.4587    2.4453 H         1 <0>         0.0566
     27 C23         8.8097   -5.2277    0.5998 C.3       1 <0>        -0.1106
     28 C24         8.9401   -3.7153    0.8071 C.3       1 <0>        -0.0801
     29 C25         7.6365   -3.0614    0.3804 C.2       1 <0>        -0.0878
     30 C26         7.6138   -1.9834   -0.4031 C.2       1 <0>        -0.1842
     31 O1          7.5969   -7.1867    1.3214 O.3       1 <0>        -0.5679
     32 C27         2.8547   -0.4069   -0.5444 C.3       1 <0>        -0.1558
     33 H5          0.8115    1.0069   -0.8009 H         1 <0>         0.0646
     34 H6         -0.5434    0.5379   -1.8556 H         1 <0>         0.0537
     35 H7         -0.8013    0.7216   -0.1040 H         1 <0>         0.0523
     36 H8         -0.7821   -2.9529   -0.5291 H         1 <0>         0.0619
     37 H9         -1.7568   -1.5405   -0.0564 H         1 <0>         0.0589
     38 H10        -1.8124   -0.7882   -2.4185 H         1 <0>         0.0660
     39 H11        -0.8378   -2.2006   -2.8913 H         1 <0>         0.0583
     40 H12        -2.6157   -3.7096   -2.0483 H         1 <0>         0.0594
     41 H13        -3.5903   -2.2973   -1.5755 H         1 <0>         0.0602
     42 H14        -2.6408   -2.8734   -4.4173 H         1 <0>         0.0676
     43 H15        -5.3814   -3.2345   -3.1227 H         1 <0>         0.0535
     44 H16        -5.0107   -3.4618   -4.8487 H         1 <0>         0.0534
     45 H17        -4.2938   -4.5475   -3.6339 H         1 <0>         0.0532
     46 H18        -3.0021   -0.4769   -3.8928 H         1 <0>         0.0561
     47 H19        -4.2564   -1.0847   -4.9998 H         1 <0>         0.0520
     48 H20        -4.6271   -0.8574   -3.2738 H         1 <0>         0.0532
     49 H21         0.7640   -3.1714    1.7523 H         1 <0>         0.0621
     50 H22         1.1314   -3.3038    0.0085 H         1 <0>         0.0671
     51 H23         3.0864   -3.4610    1.9841 H         1 <0>         0.0695
     52 H24         3.4223   -2.8496    0.3306 H         1 <0>         0.0802
     53 H25         1.3879    1.5417    0.7942 H         1 <0>         0.0707
     54 H26         1.7823    0.9223    2.4206 H         1 <0>         0.0619
     55 H27         3.7926    1.6096    0.2220 H         1 <0>         0.0692
     56 H28         3.4743    2.5829    1.6707 H         1 <0>         0.0614
     57 H29         5.5350    1.1071    1.7862 H         1 <0>         0.0665
     58 H30         4.3742    0.8928    3.1144 H         1 <0>         0.0728
     59 H31         6.4123   -0.9994    1.1122 H         1 <0>         0.1211
     60 H32         4.4726   -3.4164    1.7116 H         1 <0>         0.1460
     61 H33         5.4752   -5.5383    1.4376 H         1 <0>         0.0708
     62 H34         6.1902   -5.5247   -0.1953 H         1 <0>         0.0817
     63 H35         9.7231   -5.7193    0.9345 H         1 <0>         0.0737
     64 H36         8.6540   -5.4362   -0.4586 H         1 <0>         0.0708
     65 H37         9.1336   -3.5041    1.8588 H         1 <0>         0.0763
     66 H38         9.7581   -3.3304    0.1982 H         1 <0>         0.0768
     67 H39         6.6699   -1.5416   -0.6866 H         1 <0>         0.1061
     68 H40         8.5392   -1.5516   -0.7545 H         1 <0>         0.1017
     69 H41         6.8711   -7.5958    1.8122 H         1 <0>         0.3786
     70 H42         2.2023    0.0935   -1.2600 H         1 <0>         0.0630
     71 H43         3.7937    0.1408   -0.4640 H         1 <0>         0.0618
     72 H44         3.0548   -1.4232   -0.8840 H         1 <0>         0.0543
@<TRIPOS>BOND
     1    1    2 1
     2    1   33 1
     3    1   34 1
     4    1   35 1
     5    2    3 1
     6    2    4 1
     7    2   10 1
     8    4    5 1
     9    4   36 1
    10    4   37 1
    11    5    6 1
    12    5   38 1
    13    5   39 1
    14    6    7 1
    15    6   40 1
    16    6   41 1
    17    7    8 1
    18    7    9 1
    19    7   42 1
    20    8   43 1
    21    8   44 1
    22    8   45 1
    23    9   46 1
    24    9   47 1
    25    9   48 1
    26   10   11 1
    27   10   16 1
    28   10   12 1
    29   12   13 1
    30   12   49 1
    31   12   50 1
    32   13   14 1
    33   13   51 1
    34   13   52 1
    35   14   15 1
    36   14   20 1
    37   14   16 1
    38   16   17 1
    39   16   32 1
    40   17   18 1
    41   17   53 1
    42   17   54 1
    43   18   19 1
    44   18   55 1
    45   18   56 1
    46   19   20 1
    47   19   57 1
    48   19   58 1
    49   20   21 2
    50   21   22 1
    51   21   59 1
    52   22   23 2
    53   22   60 1
    54   23   29 1
    55   23   24 1
    56   24   25 1
    57   24   61 1
    58   24   62 1
    59   25   26 1
    60   25   27 1
    61   25   31 1
    62   27   28 1
    63   27   63 1
    64   27   64 1
    65   28   29 1
    66   28   65 1
    67   28   66 1
    68   29   30 2
    69   30   67 1
    70   30   68 1
    71   31   69 1
    72   32   70 1
    73   32   71 1
    74   32   72 1
@<TRIPOS>MOLECULE
ZINC12494489
   72    74     0     0     0
SMALL
USER_CHARGES

@<TRIPOS>ATOM
      1 C1         -1.8215   -0.4111   -0.2775 C.3       1 <0>        -0.1493
      2 C2         -0.3369   -0.0451   -0.2223 C.3       1 <0>        -0.0863
      3 H1         -0.2288    1.0392   -0.2478 H         1 <0>         0.0742
      4 C3          0.3845   -0.6581   -1.4242 C.3       1 <0>        -0.1261
      5 C4         -0.1662   -0.0483   -2.7149 C.3       1 <0>        -0.1234
      6 C5          0.5553   -0.6612   -3.9169 C.3       1 <0>        -0.1142
      7 C6          0.0046   -0.0514   -5.2075 C.3       1 <0>        -0.0978
      8 C7          0.8094   -0.5705   -6.4008 C.3       1 <0>        -0.1488
      9 C8         -1.4642   -0.4469   -5.3722 C.3       1 <0>        -0.1492
     10 C9          0.2744   -0.5883    1.0708 C.3       1 <0>        -0.0807
     11 H2         -0.3185   -0.2684    1.9276 H         1 <0>         0.0708
     12 C10         0.3406   -2.1256    1.0187 C.3       1 <0>        -0.1234
     13 C11         1.8356   -2.5060    1.1056 C.3       1 <0>        -0.1118
     14 C12         2.5643   -1.2410    0.6104 C.3       1 <0>        -0.0522
     15 H3          2.5257   -1.1920   -0.4778 H         1 <0>         0.0861
     16 C13         1.7343   -0.0902    1.2188 C.3       1 <0>        -0.0453
     17 C14         2.0187    0.0397    2.7158 C.3       1 <0>        -0.1075
     18 C15         3.5025    0.2912    2.9723 C.3       1 <0>        -0.1158
     19 C16         4.2907   -0.9539    2.5431 C.3       1 <0>        -0.0894
     20 C17         3.9876   -1.2134    1.0715 C.2       1 <0>        -0.0886
     21 C18         4.9747   -1.4031    0.1961 C.2       1 <0>        -0.1514
     22 C19         6.3589   -1.5061    0.6640 C.2       1 <0>        -0.1095
     23 C20         7.3661   -1.6115   -0.2272 C.2       1 <0>        -0.0904
     24 C21         8.8108   -1.7264    0.2165 C.3       1 <0>        -0.1109
     25 C22         9.6511   -0.7557   -0.6194 C.3       1 <0>         0.1087
     26 H4          9.3201    0.2655   -0.4304 H         1 <0>         0.0569
     27 C23         9.4876   -1.0762   -2.1056 C.3       1 <0>        -0.1112
     28 C24         8.0472   -0.7909   -2.5428 C.3       1 <0>        -0.0798
     29 C25         7.1136   -1.6266   -1.6833 C.2       1 <0>        -0.0882
     30 C26         6.1166   -2.3357   -2.2122 C.2       1 <0>        -0.1838
     31 O1         11.0271   -0.8840   -0.2557 O.3       1 <0>        -0.5675
     32 C27         1.9605    1.2247    0.4701 C.3       1 <0>        -0.1422
     33 H5         -2.3177   -0.0531    0.6245 H         1 <0>         0.0510
     34 H6         -2.2778    0.0531   -1.1518 H         1 <0>         0.0545
     35 H7         -1.9265   -1.4939   -0.3446 H         1 <0>         0.0536
     36 H8          1.4522   -0.4512   -1.3514 H         1 <0>         0.0743
     37 H9          0.2231   -1.7360   -1.4339 H         1 <0>         0.0644
     38 H10        -1.2339   -0.2551   -2.7878 H         1 <0>         0.0653
     39 H11        -0.0047    1.0297   -2.7052 H         1 <0>         0.0578
     40 H12         1.6230   -0.4544   -3.8440 H         1 <0>         0.0591
     41 H13         0.3938   -1.7391   -3.9266 H         1 <0>         0.0599
     42 H14         0.0853    1.0345   -5.1596 H         1 <0>         0.0673
     43 H15         0.7286   -1.6565   -6.4487 H         1 <0>         0.0534
     44 H16         0.4170   -0.1361   -7.3202 H         1 <0>         0.0532
     45 H17         1.8558   -0.2888   -6.2834 H         1 <0>         0.0531
     46 H18        -2.0376   -0.0771   -4.5222 H         1 <0>         0.0561
     47 H19        -1.8566   -0.0125   -6.2917 H         1 <0>         0.0517
     48 H20        -1.5450   -1.5328   -5.4202 H         1 <0>         0.0530
     49 H21        -0.2027   -2.5515    1.8623 H         1 <0>         0.0597
     50 H22        -0.0826   -2.4860    0.0811 H         1 <0>         0.0720
     51 H23         2.1145   -2.7305    2.1351 H         1 <0>         0.0659
     52 H24         2.0537   -3.3530    0.4551 H         1 <0>         0.0636
     53 H25         1.4400    0.8707    3.1191 H         1 <0>         0.0600
     54 H26         1.7198   -0.8804    3.2179 H         1 <0>         0.0636
     55 H27         3.8335    1.1522    2.3915 H         1 <0>         0.0655
     56 H28         3.6638    0.4786    4.0339 H         1 <0>         0.0633
     57 H29         5.3588   -0.7789    2.6725 H         1 <0>         0.0713
     58 H30         3.9804   -1.8123    3.1389 H         1 <0>         0.0708
     59 H31         4.7539   -1.4809   -0.8582 H         1 <0>         0.1257
     60 H32         6.5731   -1.4976    1.7225 H         1 <0>         0.1198
     61 H33         8.8924   -1.4675    1.2722 H         1 <0>         0.0718
     62 H34         9.1630   -2.7459    0.0597 H         1 <0>         0.0831
     63 H35        10.1719   -0.4583   -2.6870 H         1 <0>         0.0744
     64 H36         9.7166   -2.1281   -2.2768 H         1 <0>         0.0713
     65 H37         7.8258    0.2679   -2.4089 H         1 <0>         0.0766
     66 H38         7.9207   -1.0633   -3.5906 H         1 <0>         0.0777
     67 H39         5.4696   -2.9179   -1.5728 H         1 <0>         0.1077
     68 H40         5.9557   -2.3280   -3.2801 H         1 <0>         0.1032
     69 H41        11.2078   -0.6906    0.6743 H         1 <0>         0.3789
     70 H42         1.2325    1.9635    0.8051 H         1 <0>         0.0550
     71 H43         2.9676    1.5894    0.6725 H         1 <0>         0.0542
     72 H44         1.8428    1.0581   -0.6006 H         1 <0>         0.0652
@<TRIPOS>BOND
     1    1    2 1
     2    1   33 1
     3    1   34 1
     4    1   35 1
     5    2    3 1
     6    2    4 1
     7    2   10 1
     8    4    5 1
     9    4   36 1
    10    4   37 1
    11    5    6 1
    12    5   38 1
    13    5   39 1
    14    6    7 1
    15    6   40 1
    16    6   41 1
    17    7    8 1
    18    7    9 1
    19    7   42 1
    20    8   43 1
    21    8   44 1
    22    8   45 1
    23    9   46 1
    24    9   47 1
    25    9   48 1
    26   10   11 1
    27   10   16 1
    28   10   12 1
    29   12   13 1
    30   12   49 1
    31   12   50 1
    32   13   14 1
    33   13   51 1
    34   13   52 1
    35   14   15 1
    36   14   20 1
    37   14   16 1
    38   16   17 1
    39   16   32 1
    40   17   18 1
    41   17   53 1
    42   17   54 1
    43   18   19 1
    44   18   55 1
    45   18   56 1
    46   19   20 1
    47   19   57 1
    48   19   58 1
    49   20   21 2
    50   21   22 1
    51   21   59 1
    52   22   23 2
    53   22   60 1
    54   23   29 1
    55   23   24 1
    56   24   25 1
    57   24   61 1
    58   24   62 1
    59   25   26 1
    60   25   27 1
    61   25   31 1
    62   27   28 1
    63   27   63 1
    64   27   64 1
    65   28   29 1
    66   28   65 1
    67   28   66 1
    68   29   30 2
    69   30   67 1
    70   30   68 1
    71   31   69 1
    72   32   70 1
    73   32   71 1
    74   32   72 1
@<TRIPOS>MOLECULE
ZINC01237385
   49    52     0     0     0
SMALL
USER_CHARGES
2-[[4-(4-chlorophenyl)-5-(p-tolyl)-1,2,4-triazol-3-yl]sulfanyl]-1-(3,4-dihydroxyphenyl)-ethanone
@<TRIPOS>ATOM
      1 C1          2.7669    7.2872    0.0120 C.3       1 <0>        -0.1206
      2 C2          2.3598    5.8362    0.0091 C.ar      1 <0>        -0.0643
      3 C3          1.0609    5.4848    0.3311 C.ar      1 <0>        -0.1196
      4 C4          0.6815    4.1584    0.3299 C.ar      1 <0>        -0.0658
      5 C5          1.6115    3.1700    0.0033 C.ar      1 <0>        -0.0337
      6 C6          2.9219    3.5310   -0.3146 C.ar      1 <0>        -0.0995
      7 C7          3.2866    4.8615   -0.3152 C.ar      1 <0>        -0.1176
      8 C8          1.2120    1.7470   -0.0001 C.2       1 <0>         0.2443
      9 N1         -0.0153    1.2807    0.0091 N.2       1 <0>        -0.2626
     10 N2          0.0021   -0.0041    0.0020 N.2       1 <0>        -0.2833
     11 C9          1.2422   -0.4398   -0.0122 C.2       1 <0>         0.1538
     12 N3          2.0572    0.6590   -0.0140 N.pl3     1 <0>        -0.4166
     13 C10         3.4592    0.6746   -0.0278 C.ar      1 <0>         0.1049
     14 C11         4.1593    1.1898    1.0547 C.ar      1 <0>        -0.0826
     15 C12         5.5403    1.2002    1.0407 C.ar      1 <0>        -0.0957
     16 C13         6.2260    0.7068   -0.0554 C.ar      1 <0>        -0.0180
     17 C14         5.5302    0.1971   -1.1376 C.ar      1 <0>        -0.0934
     18 C15         4.1493    0.1802   -1.1262 C.ar      1 <0>        -0.0866
     19 Cl1         7.9618    0.7268   -0.0726 Cl        1 <0>        -0.0487
     20 S1          1.7584   -2.1244   -0.0267 S.3       1 <0>         0.0740
     21 C16         0.1463   -2.9472   -0.0154 C.3       1 <0>        -0.1611
     22 C17         0.3447   -4.4411   -0.0257 C.2       1 <0>         0.4188
     23 O1          1.4658   -4.9039   -0.0393 O.2       1 <0>        -0.4299
     24 C18        -0.8194   -5.3365   -0.0192 C.ar      1 <0>        -0.1609
     25 C19        -2.1143   -4.8045    0.0023 C.ar      1 <0>        -0.0600
     26 C20        -3.2038   -5.6461    0.0015 C.ar      1 <0>        -0.1418
     27 C21        -3.0223   -7.0234   -0.0076 C.ar      1 <0>         0.1216
     28 C22        -1.7354   -7.5613   -0.0227 C.ar      1 <0>         0.0691
     29 C23        -0.6374   -6.7250   -0.0288 C.ar      1 <0>        -0.0652
     30 O2         -1.5626   -8.9102   -0.0320 O.3       1 <0>        -0.4828
     31 O3         -4.1005   -7.8481   -0.0021 O.3       1 <0>        -0.4851
     32 H1          3.1312    7.5603    1.0024 H         1 <0>         0.0755
     33 H2          3.5573    7.4442   -0.7219 H         1 <0>         0.0698
     34 H3          1.9067    7.9065   -0.2422 H         1 <0>         0.0708
     35 H4          0.3424    6.2505    0.5837 H         1 <0>         0.1326
     36 H5         -0.3327    3.8854    0.5815 H         1 <0>         0.1378
     37 H6          3.6473    2.7708   -0.5639 H         1 <0>         0.1260
     38 H7          4.2990    5.1425   -0.5653 H         1 <0>         0.1293
     39 H8          3.6245    1.5791    1.9084 H         1 <0>         0.1422
     40 H9          6.0855    1.5975    1.8841 H         1 <0>         0.1496
     41 H10         6.0675   -0.1874   -1.9919 H         1 <0>         0.1504
     42 H11         3.6067   -0.2170   -1.9713 H         1 <0>         0.1445
     43 H12        -0.3568   -2.6834    0.8076 H         1 <0>         0.1202
     44 H13        -0.4196   -2.6498   -0.8982 H         1 <0>         0.1367
     45 H14        -2.2584   -3.7342    0.0145 H         1 <0>         0.1440
     46 H15        -4.2023   -5.2346    0.0128 H         1 <0>         0.1448
     47 H16         0.3595   -7.1403   -0.0405 H         1 <0>         0.1478
     48 H17        -1.5039   -9.3053    0.8487 H         1 <0>         0.3910
     49 H18        -4.4046   -8.0921    0.8829 H         1 <0>         0.3957
@<TRIPOS>BOND
     1    1    2 1
     2    1   32 1
     3    1   33 1
     4    1   34 1
     5    2    7 ar
     6    2    3 ar
     7    3    4 ar
     8    3   35 1
     9    4    5 ar
    10    4   36 1
    11    5    6 ar
    12    5    8 1
    13    6    7 ar
    14    6   37 1
    15    7   38 1
    16    8   12 1
    17    8    9 2
    18    9   10 1
    19   10   11 2
    20   11   12 1
    21   11   20 1
    22   12   13 1
    23   13   18 ar
    24   13   14 ar
    25   14   15 ar
    26   14   39 1
    27   15   16 ar
    28   15   40 1
    29   16   17 ar
    30   16   19 1
    31   17   18 ar
    32   17   41 1
    33   18   42 1
    34   20   21 1
    35   21   22 1
    36   21   43 1
    37   21   44 1
    38   22   23 2
    39   22   24 1
    40   24   29 ar
    41   24   25 ar
    42   25   26 ar
    43   25   45 1
    44   26   27 ar
    45   26   46 1
    46   27   28 ar
    47   27   31 1
    48   28   29 ar
    49   28   30 1
    50   29   47 1
    51   30   48 1
    52   31   49 1
@<TRIPOS>MOLECULE
ZINC13806195
   39    41     0     0     0
SMALL
USER_CHARGES

@<TRIPOS>ATOM
      1 C1         -0.0184    1.5028    0.0103 C.3       1 <0>        -0.1180
      2 C2          0.0021   -0.0041    0.0020 C.ar      1 <0>        -0.0893
      3 C3          0.0057   -0.6861   -1.2022 C.ar      1 <0>        -0.0956
      4 C4          0.0243   -2.0650   -1.2174 C.ar      1 <0>        -0.1669
      5 C5          0.0396   -2.7734   -0.0133 C.ar      1 <0>         0.0870
      6 C6          0.0359   -2.0783    1.1983 C.ar      1 <0>        -0.0959
      7 C7          0.0229   -0.6989    1.1983 C.ar      1 <0>        -0.0683
      8 C8          0.0255    0.0529    2.5043 C.3       1 <0>        -0.1185
      9 N1          0.0577   -4.1413   -0.0208 N.2       1 <0>        -0.4515
     10 C9         -0.7427   -4.8050   -0.8257 C.2       1 <0>         0.3699
     11 N2         -1.6599   -4.3142   -1.7326 N.am      1 <0>        -0.6903
     12 C10        -2.3821   -5.1467   -2.4622 C.2       1 <0>         0.5521
     13 O1         -3.1949   -4.7274   -3.2667 O.2       1 <0>        -0.4969
     14 C11        -2.1859   -6.5479   -2.2847 C.2       1 <0>        -0.2425
     15 C12        -2.8071   -7.6025   -2.9166 C.2       1 <0>         0.0731
     16 C13        -2.4590   -8.9219   -2.5869 C.2       1 <0>        -0.1631
     17 C14        -3.0728   -9.9638   -3.2113 C.2       1 <0>         0.0009
     18 C15        -2.7221  -11.2934   -2.8790 C.2       1 <0>        -0.0212
     19 C16        -3.2569  -12.4389   -3.4339 C.2       1 <0>        -0.1539
     20 C17        -2.6182  -13.5213   -2.8085 C.2       1 <0>        -0.2202
     21 C18        -1.7406  -13.0080   -1.9187 C.2       1 <0>        -0.0080
     22 O2         -1.8009  -11.6686   -1.9673 O.3       1 <0>        -0.1650
     23 S1         -0.9143   -6.5713   -1.0293 S.3       1 <0>         0.0856
     24 H1          1.0042    1.8801    0.0026 H         1 <0>         0.0732
     25 H2         -0.5455    1.8639   -0.8728 H         1 <0>         0.0678
     26 H3         -0.5286    1.8543    0.9071 H         1 <0>         0.0710
     27 H4         -0.0066   -0.1373   -2.1323 H         1 <0>         0.1280
     28 H5          0.0267   -2.5960   -2.1579 H         1 <0>         0.1209
     29 H6          0.0477   -2.6195    2.1329 H         1 <0>         0.1329
     30 H7         -1.0014    0.2205    2.8292 H         1 <0>         0.0740
     31 H8          0.5544   -0.5302    3.2582 H         1 <0>         0.0700
     32 H9          0.5254    1.0122    2.3703 H         1 <0>         0.0727
     33 H10        -1.7750   -3.3565   -1.8345 H         1 <0>         0.4179
     34 H11        -3.5619   -7.4143   -3.6658 H         1 <0>         0.1561
     35 H12        -1.7042   -9.1101   -1.8378 H         1 <0>         0.1303
     36 H13        -3.8276   -9.7756   -3.9604 H         1 <0>         0.1577
     37 H14        -4.0175  -12.4918   -4.1988 H         1 <0>         0.1584
     38 H15        -2.7953  -14.5689   -3.0024 H         1 <0>         0.1561
     39 H16        -1.0919  -13.5833   -1.2750 H         1 <0>         0.2093
@<TRIPOS>BOND
     1    1    2 1
     2    1   24 1
     3    1   25 1
     4    1   26 1
     5    2    7 ar
     6    2    3 ar
     7    3    4 ar
     8    3   27 1
     9    4    5 ar
    10    4   28 1
    11    5    6 ar
    12    5    9 1
    13    6    7 ar
    14    6   29 1
    15    7    8 1
    16    8   30 1
    17    8   31 1
    18    8   32 1
    19    9   10 2
    20   10   23 1
    21   10   11 1
    22   11   12 am
    23   11   33 1
    24   12   13 2
    25   12   14 1
    26   14   15 2
    27   14   23 1
    28   15   16 1
    29   15   34 1
    30   16   17 2
    31   16   35 1
    32   17   18 1
    33   17   36 1
    34   18   22 1
    35   18   19 2
    36   19   20 1
    37   19   37 1
    38   20   21 2
    39   20   38 1
    40   21   22 1
    41   21   39 1
@<TRIPOS>MOLECULE
ZINC13806195
   38    40     0     0     0
SMALL
USER_CHARGES

@<TRIPOS>ATOM
      1 C1         -0.4142    1.4831    0.0561 C.3       1 <0>        -0.1015
      2 C2         -0.2886   -0.0185    0.0356 C.ar      1 <0>        -0.1385
      3 C3         -0.8458   -0.7434   -1.0021 C.ar      1 <0>        -0.1034
      4 C4         -0.7325   -2.1194   -1.0240 C.ar      1 <0>        -0.1539
      5 C5         -0.0576   -2.7756   -0.0022 C.ar      1 <0>         0.1555
      6 C6          0.5012   -2.0445    1.0382 C.ar      1 <0>        -0.1356
      7 C7          0.3884   -0.6680    1.0514 C.ar      1 <0>        -0.0814
      8 C8          0.9992    0.1266    2.1768 C.3       1 <0>        -0.1060
      9 N1          0.0586   -4.1685   -0.0209 N.2       1 <0>        -0.5648
     10 C9         -0.0422   -4.8497   -1.2083 C.2       1 <0>         0.4427
     11 N2         -0.0664   -4.3601   -2.4373 N.2       1 <0>        -0.7092
     12 C10        -0.1673   -5.1289   -3.5004 C.2       1 <0>         0.5232
     13 O1         -0.1882   -4.6647   -4.6305 O.2       1 <0>        -0.5385
     14 C11        -0.2535   -6.5818   -3.2554 C.2       1 <0>        -0.1588
     15 C12        -0.3643   -7.6230   -4.1515 C.2       1 <0>        -0.0524
     16 C13        -0.4315   -8.9446   -3.6863 C.2       1 <0>        -0.0793
     17 C14        -0.5410   -9.9735   -4.5718 C.2       1 <0>        -0.1027
     18 C15        -0.6088  -11.3054   -4.1030 C.2       1 <0>         0.0297
     19 C16        -0.7151  -12.4393   -4.8847 C.2       1 <0>        -0.2016
     20 C17        -0.7501  -13.5300   -4.0029 C.2       1 <0>        -0.2131
     21 C18        -0.6662  -13.0333   -2.7485 C.2       1 <0>        -0.0424
     22 O2         -0.5755  -11.6969   -2.8120 O.3       1 <0>        -0.1677
     23 S1         -0.1648   -6.6123   -1.4694 S.3       1 <0>        -0.1244
     24 H1          0.4311    1.9256   -0.4710 H         1 <0>         0.0576
     25 H2         -1.3423    1.7768   -0.4343 H         1 <0>         0.0557
     26 H3         -0.4222    1.8330    1.0884 H         1 <0>         0.0586
     27 H4         -1.3703   -0.2327   -1.7961 H         1 <0>         0.1076
     28 H5         -1.1685   -2.6849   -1.8342 H         1 <0>         0.1376
     29 H6          1.0262   -2.5516    1.8342 H         1 <0>         0.1142
     30 H7          0.2710    0.2376    2.9802 H         1 <0>         0.0618
     31 H8          1.8793   -0.3947    2.5536 H         1 <0>         0.0594
     32 H9          1.2893    1.1114    1.8106 H         1 <0>         0.0611
     33 H10        -0.3993   -7.4214   -5.2119 H         1 <0>         0.1419
     34 H11        -0.3965   -9.1463   -2.6258 H         1 <0>         0.1219
     35 H12        -0.5761   -9.7719   -5.6322 H         1 <0>         0.1478
     36 H13        -0.7619  -12.4786   -5.9630 H         1 <0>         0.1502
     37 H14        -0.8298  -14.5720   -4.2754 H         1 <0>         0.1475
     38 H15        -0.6672  -13.6191   -1.8412 H         1 <0>         0.2010
@<TRIPOS>BOND
     1    1    2 1
     2    1   24 1
     3    1   25 1
     4    1   26 1
     5    2    7 ar
     6    2    3 ar
     7    3    4 ar
     8    3   27 1
     9    4    5 ar
    10    4   28 1
    11    5    6 ar
    12    5    9 1
    13    6    7 ar
    14    6   29 1
    15    7    8 1
    16    8   30 1
    17    8   31 1
    18    8   32 1
    19    9   10 1
    20   10   23 1
    21   10   11 2
    22   11   12 1
    23   12   13 2
    24   12   14 1
    25   14   15 2
    26   14   23 1
    27   15   16 1
    28   15   33 1
    29   16   17 2
    30   16   34 1
    31   17   18 1
    32   17   35 1
    33   18   22 1
    34   18   19 2
    35   19   20 1
    36   19   36 1
    37   20   21 2
    38   20   37 1
    39   21   22 1
    40   21   38 1
@<TRIPOS>MOLECULE
ZINC13805752
   33    35     0     0     0
SMALL
USER_CHARGES
(5Z)-2-[(3,5-dichlorophenyl)amino]-5-[(E)-3-(2-furyl)prop-2-enylidene]thiazol-4-one
@<TRIPOS>ATOM
      1 C1         -5.4965   -7.2263    0.5075 C.2       1 <0>        -0.2189
      2 C2         -4.1053   -7.3389    0.3646 C.2       1 <0>        -0.1556
      3 C3         -3.6087   -6.0504    0.3274 C.2       1 <0>        -0.0192
      4 O1         -4.6536   -5.2031    0.4341 O.3       1 <0>        -0.1659
      5 C4         -5.7897   -5.9073    0.5425 C.2       1 <0>        -0.0112
      6 C5         -2.2497   -5.6847    0.1951 C.2       1 <0>        -0.0069
      7 C6         -1.8981   -4.3693    0.1667 C.2       1 <0>        -0.1600
      8 C7         -0.5494   -4.0064    0.0354 C.2       1 <0>         0.0610
      9 C8         -0.1937   -2.6753    0.0067 C.2       1 <0>        -0.2460
     10 C9          1.1398   -2.0558   -0.1218 C.2       1 <0>         0.5432
     11 O2          2.1545   -2.7287   -0.2260 O.2       1 <0>        -0.4511
     12 N1          1.1774   -0.7406   -0.1242 N.2       1 <0>        -0.6446
     13 C10         0.0871   -0.0002   -0.0073 C.2       1 <0>         0.4800
     14 S1         -1.2180   -1.2133    0.1154 S.3       1 <0>        -0.0263
     15 N2         -0.0165    1.3684    0.0096 N.pl3     1 <0>        -0.5795
     16 C11         1.1378    2.1568    0.0106 C.ar      1 <0>         0.1641
     17 C12         2.3286    1.6462    0.5111 C.ar      1 <0>        -0.1073
     18 C13         3.4695    2.4265    0.5069 C.ar      1 <0>        -0.0005
     19 C14         3.4239    3.7187    0.0135 C.ar      1 <0>        -0.1106
     20 C15         2.2375    4.2317   -0.4809 C.ar      1 <0>        -0.0031
     21 C16         1.0947    3.4542   -0.4836 C.ar      1 <0>        -0.1277
     22 Cl1         2.1847    5.8531   -1.0989 Cl        1 <0>        -0.0437
     23 Cl2         4.9597    1.7871    1.1268 Cl        1 <0>        -0.0406
     24 H1         -6.2020   -8.0415    0.5724 H         1 <0>         0.1561
     25 H2         -3.5346   -8.2534    0.2985 H         1 <0>         0.1583
     26 H3         -6.7801   -5.4878    0.6413 H         1 <0>         0.2089
     27 H4         -1.4901   -6.4485    0.1164 H         1 <0>         0.1572
     28 H5         -2.6576   -3.6055    0.2453 H         1 <0>         0.1276
     29 H6          0.2101   -4.7702   -0.0432 H         1 <0>         0.1564
     30 H7         -0.8908    1.7886    0.0167 H         1 <0>         0.4405
     31 H8          2.3639    0.6392    0.8997 H         1 <0>         0.1669
     32 H9          4.3156    4.3279    0.0147 H         1 <0>         0.1501
     33 H10         0.1690    3.8552   -0.8693 H         1 <0>         0.1486
@<TRIPOS>BOND
     1    1    5 2
     2    1    2 1
     3    1   24 1
     4    2    3 2
     5    2   25 1
     6    3    4 1
     7    3    6 1
     8    4    5 1
     9    5   26 1
    10    6    7 2
    11    6   27 1
    12    7    8 1
    13    7   28 1
    14    8    9 2
    15    8   29 1
    16    9   14 1
    17    9   10 1
    18   10   11 2
    19   10   12 1
    20   12   13 2
    21   13   14 1
    22   13   15 1
    23   15   16 1
    24   15   30 1
    25   16   21 ar
    26   16   17 ar
    27   17   18 ar
    28   17   31 1
    29   18   19 ar
    30   18   23 1
    31   19   20 ar
    32   19   32 1
    33   20   21 ar
    34   20   22 1
    35   21   33 1
@<TRIPOS>MOLECULE
ZINC16994962
   32    34     0     0     0
SMALL
USER_CHARGES

@<TRIPOS>ATOM
      1 C1          0.1610    1.0967    2.3631 C.2       1 <0>        -0.2138
      2 C2          1.4747    1.5550    2.1823 C.2       1 <0>        -0.1981
      3 C3          2.2361    0.4482    1.8606 C.2       1 <0>         0.0259
      4 O1          1.4180   -0.6250    1.8486 O.3       1 <0>        -0.1673
      5 C4          0.1700   -0.2381    2.1503 C.2       1 <0>        -0.0398
      6 C5          3.6239    0.4411    1.5916 C.2       1 <0>        -0.0951
      7 C6          4.2522   -0.7278    1.2858 C.2       1 <0>        -0.0855
      8 C7          5.6294   -0.7348    1.0188 C.2       1 <0>        -0.0426
      9 C8          6.2652   -1.9176    0.7093 C.2       1 <0>        -0.1683
     10 C9          7.6855   -2.1747    0.4009 C.2       1 <0>         0.5267
     11 O2          8.5141   -1.2767    0.3889 O.2       1 <0>        -0.5300
     12 N1          8.0122   -3.4223    0.1399 N.2       1 <0>        -0.7107
     13 C10         7.1253   -4.4041    0.1499 C.2       1 <0>         0.4500
     14 S1          5.6027   -3.5735    0.5764 S.3       1 <0>        -0.1103
     15 N2          7.3272   -5.7380   -0.1018 N.2       1 <0>        -0.5555
     16 C11         8.6282   -6.2389   -0.2177 C.ar      1 <0>         0.1798
     17 C12         9.6879   -5.5674    0.3780 C.ar      1 <0>        -0.1378
     18 C13        10.9714   -6.0639    0.2621 C.ar      1 <0>        -0.0878
     19 C14        11.2028   -7.2297   -0.4471 C.ar      1 <0>        -0.0733
     20 C15        10.1496   -7.9015   -1.0421 C.ar      1 <0>        -0.0891
     21 C16         8.8621   -7.4125   -0.9246 C.ar      1 <0>        -0.0483
     22 Cl1         7.5399   -8.2593   -1.6650 Cl        1 <0>        -0.0676
     23 Cl2        12.8178   -7.8501   -0.5909 Cl        1 <0>        -0.0894
     24 H1         -0.6965    1.6976    2.6275 H         1 <0>         0.1481
     25 H2          1.8224    2.5732    2.2760 H         1 <0>         0.1507
     26 H3         -0.6898   -0.8886    2.2135 H         1 <0>         0.2015
     27 H4          4.1858    1.3627    1.6287 H         1 <0>         0.1485
     28 H5          3.6903   -1.6493    1.2487 H         1 <0>         0.1227
     29 H6          6.1913    0.1867    1.0559 H         1 <0>         0.1428
     30 H7          9.5084   -4.6575    0.9313 H         1 <0>         0.1545
     31 H8         11.7956   -5.5417    0.7250 H         1 <0>         0.1262
     32 H9         10.3330   -8.8110   -1.5949 H         1 <0>         0.1329
@<TRIPOS>BOND
     1    1    5 2
     2    1    2 1
     3    1   24 1
     4    2    3 2
     5    2   25 1
     6    3    4 1
     7    3    6 1
     8    4    5 1
     9    5   26 1
    10    6    7 2
    11    6   27 1
    12    7    8 1
    13    7   28 1
    14    8    9 2
    15    8   29 1
    16    9   14 1
    17    9   10 1
    18   10   11 2
    19   10   12 1
    20   12   13 2
    21   13   14 1
    22   13   15 1
    23   15   16 1
    24   16   21 ar
    25   16   17 ar
    26   17   18 ar
    27   17   30 1
    28   18   19 ar
    29   18   31 1
    30   19   20 ar
    31   19   23 1
    32   20   21 ar
    33   20   32 1
    34   21   22 1
@<TRIPOS>MOLECULE
ZINC01276363
   53    56     0     0     0
SMALL
USER_CHARGES
1-(3,4-dihydroxyphenyl)-2-[[4-(4-methoxyphenyl)-5-(p-tolyl)-1,2,4-triazol-3-yl]sulfanyl]ethanone
@<TRIPOS>ATOM
      1 C1          2.7685    7.2867    0.0162 C.3       1 <0>        -0.1199
      2 C2          2.3609    5.8358    0.0118 C.ar      1 <0>        -0.0662
      3 C3          1.0617    5.4845    0.3329 C.ar      1 <0>        -0.1203
      4 C4          0.6820    4.1582    0.3308 C.ar      1 <0>        -0.0671
      5 C5          1.6118    3.1698    0.0037 C.ar      1 <0>        -0.0310
      6 C6          2.9223    3.5308   -0.3142 C.ar      1 <0>        -0.0991
      7 C7          3.2876    4.8611   -0.3130 C.ar      1 <0>        -0.1189
      8 C8          1.2122    1.7468   -0.0001 C.2       1 <0>         0.2401
      9 N1         -0.0153    1.2808    0.0091 N.2       1 <0>        -0.2648
     10 N2          0.0021   -0.0041    0.0020 N.2       1 <0>        -0.2860
     11 C9          1.2423   -0.4396   -0.0122 C.2       1 <0>         0.1518
     12 N3          2.0571    0.6589   -0.0140 N.pl3     1 <0>        -0.4074
     13 C10         3.4601    0.6745   -0.0274 C.ar      1 <0>         0.0569
     14 C11         4.1590    1.1901    1.0556 C.ar      1 <0>        -0.0511
     15 C12         5.5397    1.1995    1.0447 C.ar      1 <0>        -0.1961
     16 C13         6.2284    0.7049   -0.0534 C.ar      1 <0>         0.1523
     17 C14         5.5302    0.1952   -1.1385 C.ar      1 <0>        -0.1362
     18 C15         4.1496    0.1797   -1.1259 C.ar      1 <0>        -0.0573
     19 O1          7.5877    0.7200   -0.0663 O.3       1 <0>        -0.3087
     20 C16         8.2415    1.2591    1.0844 C.3       1 <0>         0.0224
     21 S1          1.7587   -2.1242   -0.0270 S.3       1 <0>         0.0735
     22 C17         0.1466   -2.9472   -0.0161 C.3       1 <0>        -0.1616
     23 C18         0.3451   -4.4410   -0.0267 C.2       1 <0>         0.4186
     24 O2          1.4663   -4.9037   -0.0404 O.2       1 <0>        -0.4300
     25 C19        -0.8188   -5.3365   -0.0206 C.ar      1 <0>        -0.1605
     26 C20        -2.1138   -4.8046    0.0009 C.ar      1 <0>        -0.0599
     27 C21        -3.2033   -5.6464   -0.0002 C.ar      1 <0>        -0.1418
     28 C22        -3.0216   -7.0236   -0.0095 C.ar      1 <0>         0.1212
     29 C23        -1.7347   -7.5614   -0.0247 C.ar      1 <0>         0.0690
     30 C24        -0.6367   -6.7250   -0.0305 C.ar      1 <0>        -0.0654
     31 O3         -1.5617   -8.9103   -0.0342 O.3       1 <0>        -0.4829
     32 O4         -4.0997   -7.8484   -0.0043 O.3       1 <0>        -0.4852
     33 H1          3.1325    7.5588    1.0069 H         1 <0>         0.0747
     34 H2          3.5593    7.4441   -0.7173 H         1 <0>         0.0692
     35 H3          1.9086    7.9064   -0.2379 H         1 <0>         0.0705
     36 H4          0.3433    6.2503    0.5855 H         1 <0>         0.1319
     37 H5         -0.3323    3.8853    0.5820 H         1 <0>         0.1373
     38 H6          3.6476    2.7705   -0.5638 H         1 <0>         0.1285
     39 H7          4.3002    5.1420   -0.5620 H         1 <0>         0.1278
     40 H8          3.6230    1.5796    1.9084 H         1 <0>         0.1346
     41 H9          6.0836    1.5965    1.8891 H         1 <0>         0.1431
     42 H10         6.0667   -0.1898   -1.9931 H         1 <0>         0.1475
     43 H11         3.6062   -0.2171   -1.9707 H         1 <0>         0.1414
     44 H12         9.3214    1.2114    0.9444 H         1 <0>         0.1062
     45 H13         7.9383    2.2970    1.2215 H         1 <0>         0.0599
     46 H14         7.9633    0.6800    1.9650 H         1 <0>         0.0602
     47 H15        -0.3566   -2.6837    0.8069 H         1 <0>         0.1196
     48 H16        -0.4192   -2.6495   -0.8989 H         1 <0>         0.1362
     49 H17        -2.2580   -3.7344    0.0134 H         1 <0>         0.1441
     50 H18        -4.2018   -5.2349    0.0112 H         1 <0>         0.1447
     51 H19         0.3602   -7.1402   -0.0422 H         1 <0>         0.1478
     52 H20        -1.5031   -9.3056    0.8464 H         1 <0>         0.3908
     53 H21        -4.4039   -8.0926    0.8806 H         1 <0>         0.3955
@<TRIPOS>BOND
     1    1    2 1
     2    1   33 1
     3    1   34 1
     4    1   35 1
     5    2    7 ar
     6    2    3 ar
     7    3    4 ar
     8    3   36 1
     9    4    5 ar
    10    4   37 1
    11    5    6 ar
    12    5    8 1
    13    6    7 ar
    14    6   38 1
    15    7   39 1
    16    8   12 1
    17    8    9 2
    18    9   10 1
    19   10   11 2
    20   11   12 1
    21   11   21 1
    22   12   13 1
    23   13   18 ar
    24   13   14 ar
    25   14   15 ar
    26   14   40 1
    27   15   16 ar
    28   15   41 1
    29   16   17 ar
    30   16   19 1
    31   17   18 ar
    32   17   42 1
    33   18   43 1
    34   19   20 1
    35   20   44 1
    36   20   45 1
    37   20   46 1
    38   21   22 1
    39   22   23 1
    40   22   47 1
    41   22   48 1
    42   23   24 2
    43   23   25 1
    44   25   30 ar
    45   25   26 ar
    46   26   27 ar
    47   26   49 1
    48   27   28 ar
    49   27   50 1
    50   28   29 ar
    51   28   32 1
    52   29   30 ar
    53   29   31 1
    54   30   51 1
    55   31   52 1
    56   32   53 1
@<TRIPOS>MOLECULE
ZINC16974640
   32    34     0     0     0
SMALL
USER_CHARGES

@<TRIPOS>ATOM
      1 C1          1.1555   -0.4977    0.8438 C.ar      1 <0>        -0.1006
      2 C2          2.3456    0.1957    0.7402 C.ar      1 <0>        -0.1410
      3 C3          2.3800    1.4198    0.0848 C.ar      1 <0>         0.1663
      4 C4          1.2164    1.9431   -0.4647 C.ar      1 <0>        -0.1127
      5 C5          0.0291    1.2447   -0.3577 C.ar      1 <0>        -0.0723
      6 C6         -0.0012    0.0252    0.2961 C.ar      1 <0>        -0.1414
      7 Br1        -1.5559    1.9558   -1.1046 Br        1 <0>        -0.0773
      8 N1          3.5829    2.1240   -0.0212 N.2       1 <0>        -0.5664
      9 C7          4.7790    1.4565    0.0675 C.2       1 <0>         0.4472
     10 N2          4.9935    0.1508    0.0701 N.2       1 <0>        -0.7108
     11 C8          6.2006   -0.3650    0.1606 C.2       1 <0>         0.5254
     12 O1          6.3857   -1.5728    0.1615 O.2       1 <0>        -0.5339
     13 C9          7.3192    0.5928    0.2605 C.2       1 <0>        -0.1643
     14 C10         8.6735    0.3603    0.3653 C.2       1 <0>        -0.0464
     15 C11         9.5660    1.4393    0.4486 C.2       1 <0>        -0.0832
     16 C12        10.9044    1.2095    0.5522 C.2       1 <0>        -0.0979
     17 C13        11.8038    2.2968    0.6361 C.2       1 <0>         0.0273
     18 C14        13.1786    2.2102    0.7387 C.2       1 <0>        -0.1993
     19 C15        13.6583    3.5276    0.7935 C.2       1 <0>        -0.2136
     20 C16        12.5858    4.3473    0.7241 C.2       1 <0>        -0.0407
     21 O2         11.4733    3.6052    0.6246 O.3       1 <0>        -0.1675
     22 S1          6.4239    2.1398    0.1994 S.3       1 <0>        -0.1172
     23 H1          1.1294   -1.4517    1.3494 H         1 <0>         0.1189
     24 H2          3.2486   -0.2135    1.1687 H         1 <0>         0.1440
     25 H3          1.2398    2.8949   -0.9746 H         1 <0>         0.1258
     26 H4         -0.9304   -0.5191    0.3786 H         1 <0>         0.1187
     27 H5          9.0477   -0.6527    0.3832 H         1 <0>         0.1425
     28 H6          9.1918    2.4522    0.4306 H         1 <0>         0.1224
     29 H7         11.2786    0.1966    0.5701 H         1 <0>         0.1483
     30 H8         13.7684    1.3061    0.7707 H         1 <0>         0.1505
     31 H9         14.6918    3.8302    0.8761 H         1 <0>         0.1479
     32 H10        12.6197    5.4266    0.7420 H         1 <0>         0.2014
@<TRIPOS>BOND
     1    1    6 ar
     2    1    2 ar
     3    1   23 1
     4    2    3 ar
     5    2   24 1
     6    3    4 ar
     7    3    8 1
     8    4    5 ar
     9    4   25 1
    10    5    6 ar
    11    5    7 1
    12    6   26 1
    13    8    9 1
    14    9   22 1
    15    9   10 2
    16   10   11 1
    17   11   12 2
    18   11   13 1
    19   13   14 2
    20   13   22 1
    21   14   15 1
    22   14   27 1
    23   15   16 2
    24   15   28 1
    25   16   17 1
    26   16   29 1
    27   17   21 1
    28   17   18 2
    29   18   19 1
    30   18   30 1
    31   19   20 2
    32   19   31 1
    33   20   21 1
    34   20   32 1
@<TRIPOS>MOLECULE
ZINC03104100
   44    47     0     0     0
SMALL
USER_CHARGES

@<TRIPOS>ATOM
      1 C1          0.0570    1.3450    0.6650 C.ar      1 <0>        -0.1475
      2 C2          1.2163    2.0808    0.4336 C.ar      1 <0>        -0.1153
      3 C3          2.3954    1.4588    0.1534 C.ar      1 <0>        -0.1039
      4 C4          2.4476    0.0569    0.0966 C.ar      1 <0>         0.1176
      5 C5          1.2691   -0.6912    0.3323 C.ar      1 <0>         0.0425
      6 C6          0.0713   -0.0162    0.6178 C.ar      1 <0>        -0.0725
      7 N1          1.3083   -2.0305    0.2800 N.ar      1 <0>        -0.4877
      8 C7          2.4432   -2.6419    0.0095 C.ar      1 <0>         0.3722
      9 C8          3.6215   -1.8940   -0.2257 C.ar      1 <0>         0.4176
     10 N2          3.5967   -0.5782   -0.1769 N.ar      1 <0>        -0.5667
     11 N3          4.8095   -2.5508   -0.5090 N.2       1 <0>        -1.0689
     12 S1          6.1912   -1.6806   -0.7851 S.o2      1 <0>         2.6384
     13 O1          5.9826   -0.9592   -1.9914 O.2       1 <0>        -1.0081
     14 O2          6.5183   -1.0386    0.4397 O.2       1 <0>        -1.0086
     15 C9          7.4802   -2.8380   -1.1069 C.ar      1 <0>        -0.6242
     16 C10         8.2395   -3.3343   -0.0637 C.ar      1 <0>        -0.0107
     17 C11         9.2507   -4.2422   -0.3155 C.ar      1 <0>        -0.1366
     18 C12         9.5030   -4.6544   -1.6119 C.ar      1 <0>         0.0030
     19 C13         8.7427   -4.1573   -2.6555 C.ar      1 <0>        -0.1364
     20 C14         7.7281   -3.2537   -2.4018 C.ar      1 <0>        -0.0104
     21 Cl1        10.7733   -5.7943   -1.9291 Cl        1 <0>        -0.0734
     22 N4          2.4838   -4.0278   -0.0447 N.pl3     1 <0>        -0.6368
     23 C15         1.3031   -4.7664    0.0686 C.ar      1 <0>         0.2262
     24 C16         0.1310   -4.2983   -0.5139 C.ar      1 <0>        -0.1708
     25 C17        -1.0366   -5.0278   -0.4024 C.ar      1 <0>        -0.0559
     26 C18        -1.0440   -6.2245    0.2886 C.ar      1 <0>        -0.2293
     27 C19         0.1241   -6.6982    0.8733 C.ar      1 <0>         0.2291
     28 C20         1.3005   -5.9708    0.7578 C.ar      1 <0>        -0.2361
     29 N5          0.1158   -7.9078    1.5714 N.pl3     1 <0>        -0.8833
     30 H1         -0.8651    1.8605    0.8894 H         1 <0>         0.1159
     31 H2          1.1800    3.1593    0.4764 H         1 <0>         0.1164
     32 H3          3.2868    2.0420   -0.0247 H         1 <0>         0.1232
     33 H4         -0.8352   -0.5744    0.7996 H         1 <0>         0.1214
     34 H5          8.0427   -3.0123    0.9482 H         1 <0>         0.1466
     35 H6          9.8441   -4.6296    0.4995 H         1 <0>         0.1377
     36 H7          8.9394   -4.4784   -3.6678 H         1 <0>         0.1379
     37 H8          7.1314   -2.8693   -3.2158 H         1 <0>         0.1469
     38 H9          3.3319   -4.4840   -0.1612 H         1 <0>         0.4291
     39 H10         0.1332   -3.3631   -1.0540 H         1 <0>         0.1269
     40 H11        -1.9459   -4.6619   -0.8559 H         1 <0>         0.1168
     41 H12        -1.9588   -6.7920    0.3745 H         1 <0>         0.1111
     42 H13         2.2108   -6.3389    1.2076 H         1 <0>         0.1179
     43 H14        -0.7058   -8.4177    1.6483 H         1 <0>         0.3941
     44 H15         0.9315   -8.2380    1.9794 H         1 <0>         0.3945
@<TRIPOS>BOND
     1    1    6 ar
     2    1    2 ar
     3    1   30 1
     4    2    3 ar
     5    2   31 1
     6    3    4 ar
     7    3   32 1
     8    4   10 ar
     9    4    5 ar
    10    5    6 ar
    11    5    7 ar
    12    6   33 1
    13    7    8 ar
    14    8    9 ar
    15    8   22 1
    16    9   10 ar
    17    9   11 1
    18   11   12 1
    19   12   13 2
    20   12   14 2
    21   12   15 1
    22   15   20 ar
    23   15   16 ar
    24   16   17 ar
    25   16   34 1
    26   17   18 ar
    27   17   35 1
    28   18   19 ar
    29   18   21 1
    30   19   20 ar
    31   19   36 1
    32   20   37 1
    33   22   23 1
    34   22   38 1
    35   23   28 ar
    36   23   24 ar
    37   24   25 ar
    38   24   39 1
    39   25   26 ar
    40   25   40 1
    41   26   27 ar
    42   26   41 1
    43   27   28 ar
    44   27   29 1
    45   28   42 1
    46   29   43 1
    47   29   44 1
@<TRIPOS>MOLECULE
ZINC05852842
   45    47     0     0     0
SMALL
USER_CHARGES
2-(3,4-dimethylphenyl)amino-5-(2-methyl-3-phenyl-prop-2-enylidene)-thiazol-4-one
@<TRIPOS>ATOM
      1 C1         -6.4099   -0.9875   -0.9350 C.3       1 <0>        -0.1191
      2 C2         -5.0814   -0.3053   -0.7330 C.ar      1 <0>        -0.0919
      3 C3         -5.0187    0.8934   -0.0458 C.ar      1 <0>        -0.0965
      4 C4         -3.8033    1.5215    0.1403 C.ar      1 <0>        -0.1375
      5 C5         -2.6424    0.9480   -0.3632 C.ar      1 <0>         0.1268
      6 C6         -2.7096   -0.2531   -1.0574 C.ar      1 <0>        -0.1105
      7 C7         -3.9280   -0.8788   -1.2355 C.ar      1 <0>        -0.0631
      8 C8         -4.0012   -2.1850   -1.9836 C.3       1 <0>        -0.1206
      9 N1         -1.4102    1.5812   -0.1766 N.pl3     1 <0>        -0.5772
     10 C9         -0.2534    0.8447   -0.1791 C.2       1 <0>         0.4806
     11 N2         -0.1169   -0.4706   -0.2335 N.2       1 <0>        -0.6472
     12 C10         1.0598   -1.0580   -0.2340 C.2       1 <0>         0.5445
     13 O1          1.1728   -2.2728   -0.2842 O.2       1 <0>        -0.4567
     14 C11         2.2393   -0.1667   -0.1700 C.2       1 <0>        -0.2504
     15 C12         3.5680   -0.4754   -0.1547 C.2       1 <0>         0.0758
     16 C13         4.5263    0.5445    0.0078 C.2       1 <0>        -0.1322
     17 C14         5.4468    0.4573    0.9973 C.2       1 <0>        -0.0643
     18 C15         5.3551   -0.6196    1.9938 C.ar      1 <0>        -0.0759
     19 C16         4.1092   -1.1581    2.3350 C.ar      1 <0>        -0.1116
     20 C17         4.0324   -2.1718    3.2662 C.ar      1 <0>        -0.1162
     21 C18         5.1821   -2.6491    3.8716 C.ar      1 <0>        -0.1094
     22 C19         6.4177   -2.1180    3.5440 C.ar      1 <0>        -0.1204
     23 C20         6.5125   -1.1079    2.6106 C.ar      1 <0>        -0.0996
     24 C21         4.5270    1.7324   -0.9194 C.3       1 <0>        -0.1122
     25 S1          1.4332    1.4289   -0.1176 S.3       1 <0>        -0.0359
     26 H1         -6.8592   -0.6398   -1.8653 H         1 <0>         0.0724
     27 H2         -6.2607   -2.0661   -0.9845 H         1 <0>         0.0723
     28 H3         -7.0708   -0.7500   -0.1014 H         1 <0>         0.0668
     29 H4         -5.9215    1.3387    0.3454 H         1 <0>         0.1306
     30 H5         -3.7550    2.4575    0.6770 H         1 <0>         0.1291
     31 H6         -1.8096   -0.6994   -1.4540 H         1 <0>         0.1485
     32 H7         -4.1482   -1.9877   -3.0455 H         1 <0>         0.0729
     33 H8         -3.0723   -2.7374   -1.8418 H         1 <0>         0.0708
     34 H9         -4.8360   -2.7745   -1.6046 H         1 <0>         0.0734
     35 H10        -1.3734    2.5416   -0.0453 H         1 <0>         0.4353
     36 H11         3.8853   -1.5016   -0.2671 H         1 <0>         0.1585
     37 H12         6.2484    1.1789    1.0543 H         1 <0>         0.1362
     38 H13         3.2109   -0.7837    1.8668 H         1 <0>         0.1279
     39 H14         3.0722   -2.5917    3.5271 H         1 <0>         0.1245
     40 H15         5.1147   -3.4405    4.6034 H         1 <0>         0.1246
     41 H16         7.3100   -2.4962    4.0206 H         1 <0>         0.1262
     42 H17         7.4773   -0.6949    2.3558 H         1 <0>         0.1271
     43 H18         3.9656    2.5486   -0.4646 H         1 <0>         0.0762
     44 H19         5.5533    2.0529   -1.0985 H         1 <0>         0.0776
     45 H20         4.0626    1.4550   -1.8657 H         1 <0>         0.0699
@<TRIPOS>BOND
     1    1    2 1
     2    1   26 1
     3    1   27 1
     4    1   28 1
     5    2    7 ar
     6    2    3 ar
     7    3    4 ar
     8    3   29 1
     9    4    5 ar
    10    4   30 1
    11    5    6 ar
    12    5    9 1
    13    6    7 ar
    14    6   31 1
    15    7    8 1
    16    8   32 1
    17    8   33 1
    18    8   34 1
    19    9   10 1
    20    9   35 1
    21   10   25 1
    22   10   11 2
    23   11   12 1
    24   12   13 2
    25   12   14 1
    26   14   15 2
    27   14   25 1
    28   15   16 1
    29   15   36 1
    30   16   17 2
    31   16   24 1
    32   17   18 1
    33   17   37 1
    34   18   23 ar
    35   18   19 ar
    36   19   20 ar
    37   19   38 1
    38   20   21 ar
    39   20   39 1
    40   21   22 ar
    41   21   40 1
    42   22   23 ar
    43   22   41 1
    44   23   42 1
    45   24   43 1
    46   24   44 1
    47   24   45 1
@<TRIPOS>MOLECULE
ZINC16994086
   30    32     0     0     0
SMALL
USER_CHARGES

@<TRIPOS>ATOM
      1 C1         -0.0167    1.3784    0.0096 C.ar      1 <0>        -0.0797
      2 C2          1.1661    2.0889    0.0021 C.ar      1 <0>        -0.1774
      3 C3          2.3872    1.4105   -0.0132 C.ar      1 <0>         0.1081
      4 C4          2.4039    0.0144   -0.0209 C.ar      1 <0>        -0.1277
      5 C5          1.2111   -0.6876   -0.0132 C.ar      1 <0>         0.1268
      6 C6          0.0021   -0.0041    0.0020 C.ar      1 <0>        -0.1490
      7 O1          1.2229   -2.0465   -0.0211 O.3       1 <0>        -0.4958
      8 N1          3.5622    2.1114   -0.0211 N.2       1 <0>        -0.4543
      9 C7          3.7066    3.1438   -0.8225 C.2       1 <0>         0.3767
     10 N2          2.7976    3.6712   -1.7133 N.am      1 <0>        -0.6883
     11 C8          3.1097    4.7241   -2.4496 C.2       1 <0>         0.5578
     12 C9          4.4542    5.2924   -2.2699 C.2       1 <0>        -0.2472
     13 C10         5.0313    6.3609   -2.8893 C.2       1 <0>         0.1227
     14 C11         6.3539    6.7396   -2.5603 C.2       1 <0>        -0.2213
     15 C12         7.1168    7.7881   -3.0637 C.2       1 <0>        -0.0834
     16 C13         8.3837    7.9052   -2.5427 C.2       1 <0>        -0.1827
     17 C14         8.7945    7.0196   -1.6021 C.2       1 <0>        -0.2193
     18 S1          7.4751    6.0024   -1.3867 S.3       1 <0>         0.2246
     19 S2          5.1257    4.2097   -1.0168 S.3       1 <0>         0.0916
     20 O2          2.3184    5.2024   -3.2423 O.2       1 <0>        -0.4875
     21 H1         -0.9601    1.9038    0.0260 H         1 <0>         0.1344
     22 H2          1.1479    3.1688    0.0078 H         1 <0>         0.1251
     23 H3          3.3446   -0.5161   -0.0331 H         1 <0>         0.1399
     24 H4         -0.9270   -0.5546    0.0079 H         1 <0>         0.1348
     25 H5          1.2349   -2.4449    0.8599 H         1 <0>         0.3961
     26 H6          4.4788    6.9183   -3.6312 H         1 <0>         0.1733
     27 H7          6.7388    8.4657   -3.8149 H         1 <0>         0.1510
     28 H8          9.0429    8.6920   -2.8786 H         1 <0>         0.1404
     29 H9          9.7509    6.9798   -1.1018 H         1 <0>         0.1911
     30 H10         1.9207    3.2661   -1.8014 H         1 <0>         0.4192
@<TRIPOS>BOND
     1    1    6 ar
     2    1    2 ar
     3    1   21 1
     4    2    3 ar
     5    2   22 1
     6    3    4 ar
     7    3    8 1
     8    4    5 ar
     9    4   23 1
    10    5    6 ar
    11    5    7 1
    12    6   24 1
    13    7   25 1
    14    8    9 2
    15    9   19 1
    16    9   10 1
    17   10   11 am
    18   10   30 1
    19   11   12 1
    20   11   20 2
    21   12   13 2
    22   12   19 1
    23   13   14 1
    24   13   26 1
    25   14   18 1
    26   14   15 2
    27   15   16 1
    28   15   27 1
    29   16   17 2
    30   16   28 1
    31   17   18 1
    32   17   29 1
@<TRIPOS>MOLECULE
ZINC01749514
   39    41     0     0     0
SMALL
USER_CHARGES
2-(3,5-dichlorophenyl)amino-5-(2-methyl-3-phenyl-prop-2-enylidene)-thiazol-4-one
@<TRIPOS>ATOM
      1 C1          0.3676    1.9779    0.0083 C.3       1 <0>        -0.1107
      2 C2         -0.5962    1.8005    1.1531 C.2       1 <0>        -0.1353
      3 C3         -0.2591    1.0199    2.2072 C.2       1 <0>        -0.0617
      4 C4         -1.2515    0.7259    3.2512 C.ar      1 <0>        -0.0766
      5 C5         -0.8381    0.4787    4.5651 C.ar      1 <0>        -0.0986
      6 C6         -1.7755    0.2085    5.5392 C.ar      1 <0>        -0.1199
      7 C7         -3.1215    0.1705    5.2183 C.ar      1 <0>        -0.1086
      8 C8         -3.5384    0.4092    3.9200 C.ar      1 <0>        -0.1170
      9 C9         -2.6142    0.6861    2.9353 C.ar      1 <0>        -0.1129
     10 C10        -1.8478    2.4466    1.1268 C.2       1 <0>         0.0818
     11 C11        -2.6847    2.2697    0.0641 C.2       1 <0>        -0.2557
     12 C12        -3.9789    2.9188   -0.2417 C.2       1 <0>         0.5456
     13 O1         -4.4701    3.7559    0.4991 O.2       1 <0>        -0.4501
     14 N1         -4.5709    2.5452   -1.3551 N.2       1 <0>        -0.6462
     15 C13        -4.0493    1.6396   -2.1669 C.2       1 <0>         0.4791
     16 S1         -2.5222    1.1937   -1.3552 S.3       1 <0>        -0.0233
     17 N2         -4.5560    1.1630   -3.3488 N.pl3     1 <0>        -0.5807
     18 C14        -5.8010    1.6059   -3.8046 C.ar      1 <0>         0.1613
     19 C15        -6.7866    1.9674   -2.8951 C.ar      1 <0>        -0.1001
     20 C16        -8.0148    2.4105   -3.3487 C.ar      1 <0>        -0.0023
     21 C17        -8.2669    2.4833   -4.7075 C.ar      1 <0>        -0.1079
     22 C18        -7.2887    2.1184   -5.6158 C.ar      1 <0>        -0.0048
     23 C19        -6.0567    1.6800   -5.1679 C.ar      1 <0>        -0.1241
     24 Cl1        -7.6089    2.2118   -7.3195 Cl        1 <0>        -0.0434
     25 Cl2        -9.2446    2.8698   -2.2128 Cl        1 <0>        -0.0406
     26 H1          0.2509    1.1541   -0.6959 H         1 <0>         0.0764
     27 H2          1.3883    1.9872    0.3907 H         1 <0>         0.0776
     28 H3          0.1607    2.9207   -0.4981 H         1 <0>         0.0694
     29 H4          0.7387    0.6134    2.2809 H         1 <0>         0.1364
     30 H5          0.2120    0.5031    4.8161 H         1 <0>         0.1275
     31 H6         -1.4585    0.0215    6.5546 H         1 <0>         0.1265
     32 H7         -3.8505   -0.0462    5.9851 H         1 <0>         0.1250
     33 H8         -4.5904    0.3781    3.6779 H         1 <0>         0.1248
     34 H9         -2.9411    0.8721    1.9228 H         1 <0>         0.1285
     35 H10        -2.1449    3.0821    1.9481 H         1 <0>         0.1595
     36 H11        -4.0504    0.5186   -3.8685 H         1 <0>         0.4403
     37 H12        -6.5919    1.9065   -1.8346 H         1 <0>         0.1618
     38 H13        -9.2289    2.8252   -5.0597 H         1 <0>         0.1504
     39 H14        -5.2938    1.3950   -5.8772 H         1 <0>         0.1487
@<TRIPOS>BOND
     1    1    2 1
     2    1   26 1
     3    1   27 1
     4    1   28 1
     5    2    3 2
     6    2   10 1
     7    3    4 1
     8    3   29 1
     9    4    9 ar
    10    4    5 ar
    11    5    6 ar
    12    5   30 1
    13    6    7 ar
    14    6   31 1
    15    7    8 ar
    16    7   32 1
    17    8    9 ar
    18    8   33 1
    19    9   34 1
    20   10   11 2
    21   10   35 1
    22   11   16 1
    23   11   12 1
    24   12   13 2
    25   12   14 1
    26   14   15 2
    27   15   16 1
    28   15   17 1
    29   17   18 1
    30   17   36 1
    31   18   23 ar
    32   18   19 ar
    33   19   20 ar
    34   19   37 1
    35   20   21 ar
    36   20   25 1
    37   21   22 ar
    38   21   38 1
    39   22   23 ar
    40   22   24 1
    41   23   39 1
@<TRIPOS>MOLECULE
ZINC01275236
   50    53     0     0     0
SMALL
USER_CHARGES
1-(3,4-dihydroxyphenyl)-2-[[5-(4-methoxyphenyl)-4-phenyl-1,2,4-triazol-3-yl]sulfanyl]ethanone
@<TRIPOS>ATOM
      1 C1          3.5241    3.0763   -0.4210 C.3       1 <0>         0.0237
      2 O1          2.3336    3.7263   -0.8706 O.3       1 <0>        -0.3133
      3 C2          1.1627    3.0600   -0.6939 C.ar      1 <0>         0.1486
      4 C3         -0.0310    3.6357   -1.1087 C.ar      1 <0>        -0.1489
      5 C4         -1.2210    2.9629   -0.9317 C.ar      1 <0>        -0.0593
      6 C5         -1.2257    1.7035   -0.3289 C.ar      1 <0>        -0.0654
      7 C6         -0.0229    1.1263    0.0827 C.ar      1 <0>        -0.0285
      8 C7          1.1629    1.8054   -0.0988 C.ar      1 <0>        -0.2085
      9 C8         -2.4999    0.9812   -0.1317 C.2       1 <0>         0.2487
     10 N1         -2.6408   -0.3020    0.1080 N.2       1 <0>        -0.2684
     11 N2         -3.8867   -0.5935    0.2257 N.2       1 <0>        -0.2855
     12 C9         -4.6207    0.4850    0.0687 C.2       1 <0>         0.1520
     13 N3         -3.7642    1.5281   -0.1587 N.pl3     1 <0>        -0.4149
     14 C10        -4.1026    2.8709   -0.3762 C.ar      1 <0>         0.0973
     15 C11        -3.7795    3.8320    0.5722 C.ar      1 <0>        -0.0948
     16 C12        -4.1091    5.1552    0.3525 C.ar      1 <0>        -0.1043
     17 C13        -4.7704    5.5213   -0.8054 C.ar      1 <0>        -0.0972
     18 C14        -5.0986    4.5655   -1.7492 C.ar      1 <0>        -0.1035
     19 C15        -4.7666    3.2416   -1.5377 C.ar      1 <0>        -0.0998
     20 S1         -6.3789    0.5732    0.1443 S.3       1 <0>         0.0732
     21 C16        -6.7667   -1.1630    0.4782 C.3       1 <0>        -0.1614
     22 C17        -8.2602   -1.3323    0.5866 C.2       1 <0>         0.4187
     23 O2         -8.9906   -0.3734    0.4514 O.2       1 <0>        -0.4300
     24 C18        -8.8313   -2.6582    0.8559 C.ar      1 <0>        -0.1606
     25 C19        -7.9903   -3.7674    1.0066 C.ar      1 <0>        -0.0600
     26 C20        -8.5280   -5.0081    1.2656 C.ar      1 <0>        -0.1418
     27 C21        -9.9046   -5.1656    1.3653 C.ar      1 <0>         0.1212
     28 C22       -10.7495   -4.0666    1.2103 C.ar      1 <0>         0.0691
     29 C23       -10.2189   -2.8179    0.9570 C.ar      1 <0>        -0.0655
     30 O3        -12.0966   -4.2255    1.3091 O.3       1 <0>        -0.4829
     31 O4        -10.4291   -6.3926    1.6148 O.3       1 <0>        -0.4852
     32 H1          4.3845    3.7148   -0.6214 H         1 <0>         0.1037
     33 H2          3.4529    2.8882    0.6503 H         1 <0>         0.0590
     34 H3          3.6430    2.1302   -0.9490 H         1 <0>         0.0593
     35 H4         -0.0270    4.6118   -1.5709 H         1 <0>         0.1383
     36 H5         -2.1489    3.4111   -1.2549 H         1 <0>         0.1331
     37 H6         -0.0219    0.1509    0.5463 H         1 <0>         0.1404
     38 H7          2.0934    1.3612    0.2227 H         1 <0>         0.1382
     39 H8         -3.2672    3.5458    1.4789 H         1 <0>         0.1312
     40 H9         -3.8540    5.9039    1.0878 H         1 <0>         0.1379
     41 H10        -5.0307    6.5560   -0.9731 H         1 <0>         0.1356
     42 H11        -5.6154    4.8544   -2.6524 H         1 <0>         0.1385
     43 H12        -5.0229    2.4955   -2.2754 H         1 <0>         0.1332
     44 H13        -6.4201   -1.7314   -0.2680 H         1 <0>         0.1198
     45 H14        -6.2977   -1.4665    1.4142 H         1 <0>         0.1359
     46 H15        -6.9200   -3.6490    0.9245 H         1 <0>         0.1440
     47 H16        -7.8781   -5.8621    1.3868 H         1 <0>         0.1447
     48 H17       -10.8720   -1.9662    0.8367 H         1 <0>         0.1478
     49 H18       -12.5314   -4.4283    0.4695 H         1 <0>         0.3909
     50 H19       -10.6263   -6.9053    0.8190 H         1 <0>         0.3956
@<TRIPOS>BOND
     1    1    2 1
     2    1   32 1
     3    1   33 1
     4    1   34 1
     5    2    3 1
     6    3    8 ar
     7    3    4 ar
     8    4    5 ar
     9    4   35 1
    10    5    6 ar
    11    5   36 1
    12    6    7 ar
    13    6    9 1
    14    7    8 ar
    15    7   37 1
    16    8   38 1
    17    9   13 1
    18    9   10 2
    19   10   11 1
    20   11   12 2
    21   12   13 1
    22   12   20 1
    23   13   14 1
    24   14   19 ar
    25   14   15 ar
    26   15   16 ar
    27   15   39 1
    28   16   17 ar
    29   16   40 1
    30   17   18 ar
    31   17   41 1
    32   18   19 ar
    33   18   42 1
    34   19   43 1
    35   20   21 1
    36   21   22 1
    37   21   44 1
    38   21   45 1
    39   22   23 2
    40   22   24 1
    41   24   29 ar
    42   24   25 ar
    43   25   26 ar
    44   25   46 1
    45   26   27 ar
    46   26   47 1
    47   27   28 ar
    48   27   31 1
    49   28   29 ar
    50   28   30 1
    51   29   48 1
    52   30   49 1
    53   31   50 1
@<TRIPOS>MOLECULE
ZINC02302986
   48    52     0     0     0
SMALL
USER_CHARGES

@<TRIPOS>ATOM
      1 C1         -0.0167    1.3781    0.0096 C.ar      1 <0>        -0.1169
      2 C2          1.1709    2.0855    0.0021 C.ar      1 <0>        -0.1318
      3 C3          2.3773    1.4107   -0.0130 C.ar      1 <0>        -0.0956
      4 C4          2.3960    0.0285   -0.0201 C.ar      1 <0>        -0.1089
      5 C5          1.2084   -0.6789   -0.0117 C.ar      1 <0>        -0.0829
      6 C6          0.0021   -0.0041    0.0020 C.ar      1 <0>        -0.1302
      7 C7          3.7112   -0.7071   -0.0376 C.3       1 <0>         0.1636
      8 N1          4.1518   -0.9524    1.3379 N.pl3     1 <0>        -0.4687
      9 C8          4.9373   -0.0906    2.0753 C.ar      1 <0>         0.3074
     10 C9          5.1414   -0.7136    3.3864 C.ar      1 <0>         0.2036
     11 C10         4.4114   -1.9898    3.3293 C.2       1 <0>        -0.3200
     12 C11         3.8372   -2.0600    2.0660 C.2       1 <0>         0.5697
     13 N2          3.0643   -3.1000    1.6144 N.2       1 <0>        -1.0741
     14 S1          2.7556   -4.3923    2.6027 S.o2      1 <0>         2.6398
     15 O1          3.9987   -5.0471    2.8153 O.2       1 <0>        -0.9964
     16 O2          1.9590   -3.9037    3.6733 O.2       1 <0>        -0.9951
     17 C12         1.7448   -5.5135    1.6939 C.ar      1 <0>        -0.6270
     18 C13         0.3680   -5.4002    1.7453 C.ar      1 <0>        -0.0219
     19 C14        -0.4249   -6.2798    1.0323 C.ar      1 <0>        -0.1461
     20 C15         0.1588   -7.2724    0.2676 C.ar      1 <0>        -0.0785
     21 C16         1.5356   -7.3852    0.2155 C.ar      1 <0>        -0.1461
     22 C17         2.3287   -6.5029    0.9251 C.ar      1 <0>        -0.0218
     23 C18         4.3091   -2.9657    4.3723 C.1       1 <0>         0.2913
     24 N3          4.2279   -3.7398    5.1998 N.1       1 <0>        -0.4448
     25 N4          5.8641   -0.1032    4.3047 N.ar      1 <0>        -0.4542
     26 C19         6.4093    1.0881    4.0312 C.ar      1 <0>         0.0877
     27 C20         7.1839    1.7546    4.9993 C.ar      1 <0>        -0.0849
     28 C21         7.7334    2.9648    4.7099 C.ar      1 <0>        -0.1162
     29 C22         7.5404    3.5590    3.4639 C.ar      1 <0>        -0.1238
     30 C23         6.7976    2.9453    2.5035 C.ar      1 <0>        -0.0787
     31 C24         6.2133    1.6919    2.7641 C.ar      1 <0>         0.0780
     32 N5          5.4806    1.0812    1.8243 N.ar      1 <0>        -0.4567
     33 H1         -0.9591    1.9053    0.0259 H         1 <0>         0.1163
     34 H2          1.1563    3.1654    0.0076 H         1 <0>         0.1175
     35 H3          3.3051    1.9634   -0.0196 H         1 <0>         0.1247
     36 H4          1.2231   -1.7588   -0.0176 H         1 <0>         0.1356
     37 H5         -0.9258   -0.5567    0.0082 H         1 <0>         0.1192
     38 H6          3.5884   -1.6586   -0.5549 H         1 <0>         0.1101
     39 H7          4.4573   -0.1052   -0.5563 H         1 <0>         0.0938
     40 H8         -0.0880   -4.6247    2.3428 H         1 <0>         0.1374
     41 H9         -1.5006   -6.1918    1.0730 H         1 <0>         0.1277
     42 H10        -0.4607   -7.9601   -0.2889 H         1 <0>         0.1250
     43 H11         1.9917   -8.1609   -0.3818 H         1 <0>         0.1279
     44 H12         3.4044   -6.5886    0.8814 H         1 <0>         0.1377
     45 H13         7.3413    1.3064    5.9693 H         1 <0>         0.1304
     46 H14         8.3270    3.4723    5.4558 H         1 <0>         0.1241
     47 H15         7.9867    4.5207    3.2580 H         1 <0>         0.1238
     48 H16         6.6566    3.4189    1.5432 H         1 <0>         0.1289
@<TRIPOS>BOND
     1    1    6 ar
     2    1    2 ar
     3    1   33 1
     4    2    3 ar
     5    2   34 1
     6    3    4 ar
     7    3   35 1
     8    4    5 ar
     9    4    7 1
    10    5    6 ar
    11    5   36 1
    12    6   37 1
    13    7    8 1
    14    7   38 1
    15    7   39 1
    16    8   12 1
    17    8    9 1
    18    9   32 ar
    19    9   10 ar
    20   10   11 1
    21   10   25 ar
    22   11   12 2
    23   11   23 1
    24   12   13 1
    25   13   14 1
    26   14   15 2
    27   14   16 2
    28   14   17 1
    29   17   22 ar
    30   17   18 ar
    31   18   19 ar
    32   18   40 1
    33   19   20 ar
    34   19   41 1
    35   20   21 ar
    36   20   42 1
    37   21   22 ar
    38   21   43 1
    39   22   44 1
    40   23   24 3
    41   25   26 ar
    42   26   31 ar
    43   26   27 ar
    44   27   28 ar
    45   27   45 1
    46   28   29 ar
    47   28   46 1
    48   29   30 ar
    49   29   47 1
    50   30   31 ar
    51   30   48 1
    52   31   32 ar
@<TRIPOS>MOLECULE
ZINC00499809
   39    43     0     0     0
SMALL
USER_CHARGES
amino-(benzo[1,3]dioxol-5-ylmethyl)BLAHcarbonitrile
@<TRIPOS>ATOM
      1 C1         -5.2944   -1.6046    4.7834 C.ar      1 <0>        -0.1016
      2 C2         -5.1211   -2.1850    3.5279 C.ar      1 <0>        -0.1001
      3 C3         -4.3914   -1.5621    2.5636 C.ar      1 <0>        -0.0848
      4 C4         -3.7997   -0.3134    2.8297 C.ar      1 <0>         0.0997
      5 C5         -3.9764    0.2769    4.1063 C.ar      1 <0>         0.0902
      6 C6         -4.7385   -0.3987    5.0782 C.ar      1 <0>        -0.0820
      7 N1         -3.4246    1.4635    4.3854 N.ar      1 <0>        -0.4170
      8 C7         -2.7137    2.0828    3.4635 C.ar      1 <0>         0.1743
      9 C8         -1.9811    3.3577    3.4109 C.2       1 <0>        -0.2152
     10 C9         -1.4291    3.4436    2.1387 C.2       1 <0>         0.5024
     11 N2         -1.7527    2.3427    1.4043 N.pl3     1 <0>        -0.4809
     12 C10        -2.5350    1.4772    2.1409 C.ar      1 <0>         0.2957
     13 N3         -3.0795    0.3064    1.8865 N.ar      1 <0>        -0.4358
     14 C11        -1.3328    2.1124    0.0198 C.3       1 <0>         0.1540
     15 C12        -0.0167    1.3783    0.0096 C.ar      1 <0>        -0.1200
     16 C13         0.0021   -0.0041    0.0020 C.ar      1 <0>        -0.0738
     17 C14         1.2068   -0.6819   -0.0131 C.ar      1 <0>        -0.1005
     18 C15         2.3992    0.0235   -0.0203 C.ar      1 <0>         0.0488
     19 C16         2.3803    1.4160   -0.0126 C.ar      1 <0>         0.0316
     20 C17         1.1692    2.0887    0.0021 C.ar      1 <0>        -0.0827
     21 O1          3.6676    1.8698   -0.0223 O.3       1 <0>        -0.3064
     22 C18         4.4667    0.7503   -0.4482 C.3       1 <0>         0.2126
     23 O2          3.6983   -0.3951   -0.0349 O.3       1 <0>        -0.3056
     24 N4         -0.6652    4.4897    1.6859 N.pl3     1 <0>        -0.8227
     25 C19        -1.8613    4.3210    4.4637 C.1       1 <0>         0.2974
     26 N5         -1.7662    5.0852    5.2988 N.1       1 <0>        -0.4362
     27 H1         -5.8783   -2.1192    5.5321 H         1 <0>         0.1352
     28 H2         -5.5731   -3.1431    3.3177 H         1 <0>         0.1351
     29 H3         -4.2661   -2.0251    1.5959 H         1 <0>         0.1383
     30 H4         -4.8817    0.0394    6.0549 H         1 <0>         0.1393
     31 H5         -1.2190    3.0694   -0.4894 H         1 <0>         0.1047
     32 H6         -2.0860    1.5149   -0.4937 H         1 <0>         0.1213
     33 H7         -0.9265   -0.5556    0.0083 H         1 <0>         0.1466
     34 H8          1.2184   -1.7618   -0.0191 H         1 <0>         0.1413
     35 H9          1.1516    3.1685    0.0077 H         1 <0>         0.1318
     36 H10         4.5905    0.7580   -1.5311 H         1 <0>         0.0888
     37 H11         5.4365    0.7607    0.0493 H         1 <0>         0.1355
     38 H12        -0.3134    4.4778    0.7821 H         1 <0>         0.4098
     39 H13        -0.4770    5.2412    2.2697 H         1 <0>         0.4308
@<TRIPOS>BOND
     1    1    6 ar
     2    1    2 ar
     3    1   27 1
     4    2    3 ar
     5    2   28 1
     6    3    4 ar
     7    3   29 1
     8    4   13 ar
     9    4    5 ar
    10    5    6 ar
    11    5    7 ar
    12    6   30 1
    13    7    8 ar
    14    8   12 ar
    15    8    9 1
    16    9   10 2
    17    9   25 1
    18   10   11 1
    19   10   24 1
    20   11   12 1
    21   11   14 1
    22   12   13 ar
    23   14   15 1
    24   14   31 1
    25   14   32 1
    26   15   20 ar
    27   15   16 ar
    28   16   17 ar
    29   16   33 1
    30   17   18 ar
    31   17   34 1
    32   18   23 1
    33   18   19 ar
    34   19   20 ar
    35   19   21 1
    36   20   35 1
    37   21   22 1
    38   22   23 1
    39   22   36 1
    40   22   37 1
    41   24   38 1
    42   24   39 1
    43   25   26 3
@<TRIPOS>MOLECULE
ZINC02316758
   47    51     0     0     0
SMALL
USER_CHARGES

@<TRIPOS>ATOM
      1 C1         -0.0167    1.3781    0.0096 C.ar      1 <0>        -0.1189
      2 C2          1.1709    2.0855    0.0021 C.ar      1 <0>        -0.1306
      3 C3          2.3773    1.4107   -0.0130 C.ar      1 <0>        -0.0826
      4 C4          2.3960    0.0285   -0.0201 C.ar      1 <0>        -0.1054
      5 C5          1.2084   -0.6789   -0.0117 C.ar      1 <0>        -0.0970
      6 C6          0.0021   -0.0041    0.0020 C.ar      1 <0>        -0.1321
      7 C7          3.7112   -0.7071   -0.0376 C.3       1 <0>         0.1672
      8 N1          4.1518   -0.9524    1.3379 N.pl3     1 <0>        -0.4734
      9 C8          4.9321   -0.1072    2.0864 C.2       1 <0>         0.5187
     10 C9          5.1585   -0.6281    3.3153 C.2       1 <0>        -0.3972
     11 C10         4.4991   -1.8781    3.3902 C.ar      1 <0>         0.1819
     12 C11         3.8440   -2.0665    2.0895 C.ar      1 <0>         0.2863
     13 N2          3.1417   -3.1542    1.8659 N.ar      1 <0>        -0.4607
     14 C12         3.0255   -4.0819    2.8252 C.ar      1 <0>         0.0632
     15 C13         2.2755   -5.2498    2.5941 C.ar      1 <0>        -0.0749
     16 C14         2.1628   -6.1872    3.5735 C.ar      1 <0>        -0.1352
     17 C15         2.7813   -6.0101    4.8102 C.ar      1 <0>        -0.1171
     18 C16         3.5144   -4.8947    5.0712 C.ar      1 <0>        -0.0916
     19 C17         3.6545   -3.9016    4.0826 C.ar      1 <0>         0.0941
     20 N3          4.3789   -2.8043    4.3278 N.ar      1 <0>        -0.4746
     21 N4          5.4201    1.1096    1.6458 N.2       1 <0>        -1.0872
     22 S1          6.3537    2.0395    2.6489 S.o2      1 <0>         2.6431
     23 O1          5.5140    2.4521    3.7184 O.2       1 <0>        -1.0102
     24 O2          7.5610    1.3210    2.8618 O.2       1 <0>        -1.0116
     25 C18         6.7853    3.4963    1.7566 C.ar      1 <0>        -0.6222
     26 C19         7.9356    3.5222    0.9904 C.ar      1 <0>        -0.0222
     27 C20         8.2742    4.6651    0.2904 C.ar      1 <0>        -0.1467
     28 C21         7.4624    5.7820    0.3563 C.ar      1 <0>        -0.0801
     29 C22         6.3116    5.7558    1.1218 C.ar      1 <0>        -0.1468
     30 C23         5.9708    4.6115    1.8184 C.ar      1 <0>        -0.0224
     31 H1         -0.9591    1.9053    0.0259 H         1 <0>         0.1159
     32 H2          1.1563    3.1654    0.0076 H         1 <0>         0.1187
     33 H3          3.3051    1.9634   -0.0196 H         1 <0>         0.1356
     34 H4          1.2231   -1.7588   -0.0176 H         1 <0>         0.1229
     35 H5         -0.9258   -0.5567    0.0082 H         1 <0>         0.1168
     36 H6          3.5884   -1.6586   -0.5549 H         1 <0>         0.0876
     37 H7          4.4573   -0.1052   -0.5563 H         1 <0>         0.1058
     38 H8          5.7408   -0.1700    4.1010 H         1 <0>         0.1396
     39 H9          1.7901   -5.4015    1.6414 H         1 <0>         0.1245
     40 H10         1.5856   -7.0815    3.3904 H         1 <0>         0.1203
     41 H11         2.6765   -6.7688    5.5716 H         1 <0>         0.1208
     42 H12         3.9882   -4.7711    6.0338 H         1 <0>         0.1270
     43 H13         8.5699    2.6496    0.9389 H         1 <0>         0.1372
     44 H14         9.1733    4.6856   -0.3076 H         1 <0>         0.1266
     45 H15         7.7273    6.6752   -0.1900 H         1 <0>         0.1238
     46 H16         5.6775    6.6285    1.1736 H         1 <0>         0.1265
     47 H17         5.0698    4.5898    2.4135 H         1 <0>         0.1370
@<TRIPOS>BOND
     1    1    6 ar
     2    1    2 ar
     3    1   31 1
     4    2    3 ar
     5    2   32 1
     6    3    4 ar
     7    3   33 1
     8    4    5 ar
     9    4    7 1
    10    5    6 ar
    11    5   34 1
    12    6   35 1
    13    7    8 1
    14    7   36 1
    15    7   37 1
    16    8   12 1
    17    8    9 1
    18    9   10 2
    19    9   21 1
    20   10   11 1
    21   10   38 1
    22   11   20 ar
    23   11   12 ar
    24   12   13 ar
    25   13   14 ar
    26   14   19 ar
    27   14   15 ar
    28   15   16 ar
    29   15   39 1
    30   16   17 ar
    31   16   40 1
    32   17   18 ar
    33   17   41 1
    34   18   19 ar
    35   18   42 1
    36   19   20 ar
    37   21   22 1
    38   22   23 2
    39   22   24 2
    40   22   25 1
    41   25   30 ar
    42   25   26 ar
    43   26   27 ar
    44   26   43 1
    45   27   28 ar
    46   27   44 1
    47   28   29 ar
    48   28   45 1
    49   29   30 ar
    50   29   46 1
    51   30   47 1
@<TRIPOS>MOLECULE
ZINC18118599
   36    38     0     0     0
SMALL
USER_CHARGES

@<TRIPOS>ATOM
      1 C1         -0.2981    1.2276   -0.0039 C.ar      1 <0>        -0.0937
      2 C2          0.8092    2.0269   -0.2300 C.ar      1 <0>        -0.0933
      3 C3          2.0646    1.4658   -0.3753 C.ar      1 <0>        -0.0640
      4 C4          2.2210    0.0828   -0.2918 C.ar      1 <0>        -0.1213
      5 C5          1.0926   -0.7278   -0.0505 C.ar      1 <0>        -0.1220
      6 C6         -0.1637   -0.1463    0.0863 C.ar      1 <0>        -0.0658
      7 C7          1.2571   -2.1962    0.0658 C.2       1 <0>         0.4004
      8 O1          0.3574   -2.9071    0.4663 O.2       1 <0>        -0.4049
      9 C8          2.5828   -2.7614   -0.3336 C.2       1 <0>         0.1030
     10 C9          3.8011   -1.9310    0.0320 C.3       1 <0>        -0.0039
     11 C10         3.5547   -0.5214   -0.4595 C.2       1 <0>         0.4056
     12 O2          4.4477    0.1064   -0.9870 O.2       1 <0>        -0.4003
     13 Cl1         4.0240   -1.9254    1.8212 Cl        1 <0>        -0.0996
     14 N1          2.6858   -3.8884   -0.9521 N.2       1 <0>        -0.4087
     15 C11         1.4815   -4.5841   -1.4124 C.3       1 <0>         0.0194
     16 C12         1.3280   -5.8994   -0.6460 C.3       1 <0>        -0.0661
     17 C13         0.0891   -6.6150   -1.1195 C.ar      1 <0>        -0.0973
     18 C14        -1.1249   -6.3756   -0.5030 C.ar      1 <0>        -0.0803
     19 C15        -2.2618   -7.0310   -0.9366 C.ar      1 <0>        -0.1520
     20 C16        -2.1845   -7.9275   -1.9889 C.ar      1 <0>         0.0982
     21 C17        -0.9680   -8.1665   -2.6055 C.ar      1 <0>        -0.1524
     22 C18         0.1665   -7.5060   -2.1736 C.ar      1 <0>        -0.0838
     23 F1         -3.2951   -8.5691   -2.4133 F         1 <0>        -0.1388
     24 H1         -1.2725    1.6798    0.1073 H         1 <0>         0.1415
     25 H2          0.6915    3.0986   -0.2938 H         1 <0>         0.1419
     26 H3          2.9223    2.0975   -0.5535 H         1 <0>         0.1462
     27 H4         -1.0310   -0.7653    0.2626 H         1 <0>         0.1446
     28 H5          4.6877   -2.3418   -0.4510 H         1 <0>         0.1583
     29 H6          0.6086   -3.9559   -1.2344 H         1 <0>         0.0696
     30 H7          1.5676   -4.7928   -2.4787 H         1 <0>         0.1065
     31 H8          2.2008   -6.5275   -0.8240 H         1 <0>         0.0880
     32 H9          1.2419   -5.6907    0.4204 H         1 <0>         0.0811
     33 H10        -1.1849   -5.6765    0.3180 H         1 <0>         0.1352
     34 H11        -3.2100   -6.8441   -0.4547 H         1 <0>         0.1368
     35 H12        -0.9065   -8.8658   -3.4262 H         1 <0>         0.1372
     36 H13         1.1146   -7.6889   -2.6574 H         1 <0>         0.1347
@<TRIPOS>BOND
     1    1    6 ar
     2    1    2 ar
     3    1   24 1
     4    2    3 ar
     5    2   25 1
     6    3    4 ar
     7    3   26 1
     8    4   11 1
     9    4    5 ar
    10    5    6 ar
    11    5    7 1
    12    6   27 1
    13    7    8 2
    14    7    9 1
    15    9   14 2
    16    9   10 1
    17   10   11 1
    18   10   13 1
    19   10   28 1
    20   11   12 2
    21   14   15 1
    22   15   16 1
    23   15   29 1
    24   15   30 1
    25   16   17 1
    26   16   31 1
    27   16   32 1
    28   17   22 ar
    29   17   18 ar
    30   18   19 ar
    31   18   33 1
    32   19   20 ar
    33   19   34 1
    34   20   21 ar
    35   20   23 1
    36   21   22 ar
    37   21   35 1
    38   22   36 1
@<TRIPOS>MOLECULE
ZINC18118599
   36    38     0     0     0
SMALL
USER_CHARGES

@<TRIPOS>ATOM
      1 C1         -0.3470    1.0257    0.6698 C.ar      1 <0>        -0.0913
      2 C2          0.7469    1.8626    0.5313 C.ar      1 <0>        -0.0950
      3 C3          2.0068    1.3419    0.3003 C.ar      1 <0>        -0.0633
      4 C4          2.1816   -0.0383    0.2075 C.ar      1 <0>        -0.1238
      5 C5          1.0670   -0.8886    0.3599 C.ar      1 <0>        -0.1137
      6 C6         -0.1942   -0.3467    0.5850 C.ar      1 <0>        -0.0646
      7 C7          1.2514   -2.3576    0.2888 C.2       1 <0>         0.4484
      8 O1          0.3666   -3.1257    0.6085 O.2       1 <0>        -0.3916
      9 C8          2.5780   -2.8494   -0.1957 C.2       1 <0>         0.1052
     10 C9          3.7912   -2.0542    0.2553 C.3       1 <0>        -0.0696
     11 C10         3.5201   -0.5977   -0.0522 C.2       1 <0>         0.4086
     12 O2          4.3973    0.1038   -0.5083 O.2       1 <0>        -0.4055
     13 Cl1         4.0402   -2.2698    2.0280 Cl        1 <0>        -0.0966
     14 N1          2.6858   -3.8884   -0.9521 N.2       1 <0>        -0.4061
     15 C11         4.0102   -4.4239   -1.2767 C.3       1 <0>         0.0168
     16 C12         4.2755   -4.2553   -2.7740 C.3       1 <0>        -0.0734
     17 C13         5.6379   -4.8062   -3.1079 C.ar      1 <0>        -0.1003
     18 C14         6.7485   -3.9851   -3.0483 C.ar      1 <0>        -0.0856
     19 C15         7.9985   -4.4893   -3.3539 C.ar      1 <0>        -0.1500
     20 C16         8.1382   -5.8173   -3.7197 C.ar      1 <0>         0.1002
     21 C17         7.0252   -6.6388   -3.7790 C.ar      1 <0>        -0.1504
     22 C18         5.7769   -6.1337   -3.4680 C.ar      1 <0>        -0.0815
     23 F1          9.3596   -6.3112   -4.0190 F         1 <0>        -0.1377
     24 H1         -1.3252    1.4466    0.8496 H         1 <0>         0.1425
     25 H2          0.6149    2.9320    0.6041 H         1 <0>         0.1417
     26 H3          2.8539    2.0030    0.1917 H         1 <0>         0.1450
     27 H4         -1.0511   -0.9951    0.6935 H         1 <0>         0.1474
     28 H5          4.6756   -2.3886   -0.2870 H         1 <0>         0.1494
     29 H6          4.7691   -3.8843   -0.7102 H         1 <0>         0.0632
     30 H7          4.0477   -5.4821   -1.0179 H         1 <0>         0.1165
     31 H8          3.5166   -4.7950   -3.3405 H         1 <0>         0.0931
     32 H9          4.2381   -3.1972   -3.0328 H         1 <0>         0.0776
     33 H10         6.6392   -2.9492   -2.7633 H         1 <0>         0.1324
     34 H11         8.8659   -3.8475   -3.3076 H         1 <0>         0.1380
     35 H12         7.1329   -7.6747   -4.0646 H         1 <0>         0.1382
     36 H13         4.9092   -6.7753   -3.5098 H         1 <0>         0.1359
@<TRIPOS>BOND
     1    1    6 ar
     2    1    2 ar
     3    1   24 1
     4    2    3 ar
     5    2   25 1
     6    3    4 ar
     7    3   26 1
     8    4   11 1
     9    4    5 ar
    10    5    6 ar
    11    5    7 1
    12    6   27 1
    13    7    8 2
    14    7    9 1
    15    9   14 2
    16    9   10 1
    17   10   11 1
    18   10   13 1
    19   10   28 1
    20   11   12 2
    21   14   15 1
    22   15   16 1
    23   15   29 1
    24   15   30 1
    25   16   17 1
    26   16   31 1
    27   16   32 1
    28   17   22 ar
    29   17   18 ar
    30   18   19 ar
    31   18   33 1
    32   19   20 ar
    33   19   34 1
    34   20   21 ar
    35   20   23 1
    36   21   22 ar
    37   21   35 1
    38   22   36 1
@<TRIPOS>MOLECULE
ZINC01274665
   49    52     0     0     0
SMALL
USER_CHARGES
1-(3,4-dihydroxyphenyl)-2-[[4-phenyl-5-(p-tolyl)-1,2,4-triazol-3-yl]sulfanyl]ethanone
@<TRIPOS>ATOM
      1 C1          2.4635    3.7925   -0.8916 C.3       1 <0>        -0.1200
      2 C2          1.1637    3.0555   -0.6951 C.ar      1 <0>        -0.0655
      3 C3         -0.0241    3.6319   -1.1088 C.ar      1 <0>        -0.1187
      4 C4         -1.2175    2.9627   -0.9319 C.ar      1 <0>        -0.0956
      5 C5         -1.2253    1.7036   -0.3291 C.ar      1 <0>        -0.0323
      6 C6         -0.0228    1.1260    0.0820 C.ar      1 <0>        -0.0667
      7 C7          1.1635    1.8058   -0.1013 C.ar      1 <0>        -0.1204
      8 C8         -2.5007    0.9833   -0.1313 C.2       1 <0>         0.2423
      9 N1         -2.6434   -0.2995    0.1089 N.2       1 <0>        -0.2646
     10 N2         -3.8898   -0.5890    0.2271 N.2       1 <0>        -0.2857
     11 C9         -4.6222    0.4912    0.0697 C.2       1 <0>         0.1528
     12 N3         -3.7642    1.5322   -0.1582 N.pl3     1 <0>        -0.4138
     13 C10        -4.1003    2.8754   -0.3767 C.ar      1 <0>         0.0983
     14 C11        -3.7752    3.8367    0.5707 C.ar      1 <0>        -0.0941
     15 C12        -4.1022    5.1604    0.3498 C.ar      1 <0>        -0.1045
     16 C13        -4.7637    5.5266   -0.8079 C.ar      1 <0>        -0.0975
     17 C14        -5.0940    4.5705   -1.7508 C.ar      1 <0>        -0.1036
     18 C15        -4.7641    3.2462   -1.5383 C.ar      1 <0>        -0.0996
     19 S1         -6.3801    0.5828    0.1466 S.3       1 <0>         0.0738
     20 C16        -6.7709   -1.1524    0.4820 C.3       1 <0>        -0.1615
     21 C17        -8.2647   -1.3187    0.5916 C.2       1 <0>         0.4188
     22 O1         -8.9934   -0.3586    0.4562 O.2       1 <0>        -0.4301
     23 C18        -8.8381   -2.6434    0.8623 C.ar      1 <0>        -0.1606
     24 C19        -7.9991   -3.7541    1.0132 C.ar      1 <0>        -0.0600
     25 C20        -8.5390   -4.9936    1.2736 C.ar      1 <0>        -0.1417
     26 C21        -9.9158   -5.1483    1.3744 C.ar      1 <0>         0.1213
     27 C22       -10.7588   -4.0479    1.2191 C.ar      1 <0>         0.0691
     28 C23       -10.2259   -2.8003    0.9645 C.ar      1 <0>        -0.0654
     29 O2        -12.1060   -4.2041    1.3191 O.3       1 <0>        -0.4828
     30 O3        -10.4425   -6.3741    1.6252 O.3       1 <0>        -0.4852
     31 H1          2.6679    4.4084   -0.0159 H         1 <0>         0.0751
     32 H2          3.2717    3.0738   -1.0271 H         1 <0>         0.0705
     33 H3          2.3909    4.4282   -1.7741 H         1 <0>         0.0694
     34 H4         -0.0171    4.6076   -1.5717 H         1 <0>         0.1287
     35 H5         -2.1440    3.4138   -1.2550 H         1 <0>         0.1263
     36 H6         -0.0216    0.1508    0.5460 H         1 <0>         0.1370
     37 H7          2.0942    1.3617    0.2197 H         1 <0>         0.1321
     38 H8         -3.2628    3.5506    1.4774 H         1 <0>         0.1308
     39 H9         -3.8450    5.9094    1.0841 H         1 <0>         0.1378
     40 H10        -5.0227    6.5615   -0.9763 H         1 <0>         0.1356
     41 H11        -5.6106    4.8595   -2.6541 H         1 <0>         0.1385
     42 H12        -5.0219    2.5000   -2.2752 H         1 <0>         0.1330
     43 H13        -6.4259   -1.7220   -0.2640 H         1 <0>         0.1199
     44 H14        -6.3018   -1.4561    1.4178 H         1 <0>         0.1361
     45 H15        -6.9286   -3.6377    0.9302 H         1 <0>         0.1440
     46 H16        -7.8906   -5.8487    1.3949 H         1 <0>         0.1448
     47 H17       -10.8775   -1.9475    0.8441 H         1 <0>         0.1478
     48 H18       -12.5418   -4.4067    0.4800 H         1 <0>         0.3909
     49 H19       -10.6412   -6.8870    0.8299 H         1 <0>         0.3956
@<TRIPOS>BOND
     1    1    2 1
     2    1   31 1
     3    1   32 1
     4    1   33 1
     5    2    7 ar
     6    2    3 ar
     7    3    4 ar
     8    3   34 1
     9    4    5 ar
    10    4   35 1
    11    5    6 ar
    12    5    8 1
    13    6    7 ar
    14    6   36 1
    15    7   37 1
    16    8   12 1
    17    8    9 2
    18    9   10 1
    19   10   11 2
    20   11   12 1
    21   11   19 1
    22   12   13 1
    23   13   18 ar
    24   13   14 ar
    25   14   15 ar
    26   14   38 1
    27   15   16 ar
    28   15   39 1
    29   16   17 ar
    30   16   40 1
    31   17   18 ar
    32   17   41 1
    33   18   42 1
    34   19   20 1
    35   20   21 1
    36   20   43 1
    37   20   44 1
    38   21   22 2
    39   21   23 1
    40   23   28 ar
    41   23   24 ar
    42   24   25 ar
    43   24   45 1
    44   25   26 ar
    45   25   46 1
    46   26   27 ar
    47   26   30 1
    48   27   28 ar
    49   27   29 1
    50   28   47 1
    51   29   48 1
    52   30   49 1
@<TRIPOS>MOLECULE
ZINC13810714
   33    35     0     0     0
SMALL
USER_CHARGES

@<TRIPOS>ATOM
      1 C1         -0.0167    1.3791    0.0096 C.ar      1 <0>        -0.0859
      2 C2          1.1664    2.0886    0.0021 C.ar      1 <0>        -0.0969
      3 C3          2.3859    1.4075   -0.0131 C.ar      1 <0>         0.1071
      4 C4          2.3984    0.0106   -0.0207 C.ar      1 <0>        -0.1628
      5 C5          1.2073   -0.6867   -0.0131 C.ar      1 <0>        -0.0139
      6 C6          0.0021   -0.0041    0.0020 C.ar      1 <0>        -0.1160
      7 Cl1         1.2197   -2.4226   -0.0230 Cl        1 <0>        -0.0603
      8 N1          3.5626    2.1053   -0.0211 N.2       1 <0>        -0.4560
      9 C7          4.5465    1.7440    0.7728 C.2       1 <0>         0.3775
     10 N2          4.5933    0.6993    1.6734 N.am      1 <0>        -0.6916
     11 C8          5.6831    0.4910    2.3916 C.2       1 <0>         0.5523
     12 C9          6.7927    1.3676    2.2088 C.2       1 <0>        -0.2469
     13 C10         8.0228    1.3585    2.8288 C.2       1 <0>         0.0782
     14 C11         8.9838    2.3260    2.4957 C.2       1 <0>        -0.1664
     15 C12        10.1991    2.3170    3.1083 C.2       1 <0>         0.0048
     16 C13        11.1676    3.2920    2.7726 C.2       1 <0>        -0.0230
     17 C14        12.4358    3.3971    3.3080 C.2       1 <0>        -0.1521
     18 C15        13.0415    4.5004    2.6863 C.2       1 <0>        -0.2205
     19 C16        12.1427    5.0130    1.8176 C.2       1 <0>        -0.0067
     20 O1         11.0190    4.2818    1.8678 O.3       1 <0>        -0.1649
     21 S1          6.1659    2.4757    0.9548 S.3       1 <0>         0.0933
     22 O2          5.7380   -0.4271    3.1904 O.2       1 <0>        -0.4926
     23 H1         -0.9599    1.9049    0.0260 H         1 <0>         0.1428
     24 H2          1.1498    3.1685    0.0077 H         1 <0>         0.1408
     25 H3          3.3377   -0.5223   -0.0328 H         1 <0>         0.1320
     26 H4         -0.9272   -0.5543    0.0083 H         1 <0>         0.1395
     27 H5          8.2478    0.6070    3.5711 H         1 <0>         0.1568
     28 H6          8.7588    3.0774    1.7534 H         1 <0>         0.1306
     29 H7         10.4242    1.5655    3.8506 H         1 <0>         0.1581
     30 H8         12.8755    2.7566    4.0582 H         1 <0>         0.1587
     31 H9         14.0397    4.8703    2.8684 H         1 <0>         0.1564
     32 H10        12.3041    5.8714    1.1823 H         1 <0>         0.2096
     33 H11         3.8249    0.1170    1.7796 H         1 <0>         0.4178
@<TRIPOS>BOND
     1    1    6 ar
     2    1    2 ar
     3    1   23 1
     4    2    3 ar
     5    2   24 1
     6    3    4 ar
     7    3    8 1
     8    4    5 ar
     9    4   25 1
    10    5    6 ar
    11    5    7 1
    12    6   26 1
    13    8    9 2
    14    9   21 1
    15    9   10 1
    16   10   11 am
    17   10   33 1
    18   11   12 1
    19   11   22 2
    20   12   13 2
    21   12   21 1
    22   13   14 1
    23   13   27 1
    24   14   15 2
    25   14   28 1
    26   15   16 1
    27   15   29 1
    28   16   20 1
    29   16   17 2
    30   17   18 1
    31   17   30 1
    32   18   19 2
    33   18   31 1
    34   19   20 1
    35   19   32 1
@<TRIPOS>MOLECULE
ZINC49670134
   61    65     0     0     0
SMALL
USER_CHARGES

@<TRIPOS>ATOM
      1 C1         -0.0167    1.3786    0.0096 C.ar      1 <0>        -0.1226
      2 C2          1.1696    2.0892    0.0021 C.ar      1 <0>        -0.0970
      3 C3          2.3774    1.4195   -0.0134 C.ar      1 <0>        -0.1129
      4 C4          2.3996    0.0310   -0.0211 C.ar      1 <0>         0.1459
      5 C5          1.2065   -0.6797   -0.0130 C.ar      1 <0>        -0.1357
      6 C6          0.0021   -0.0041    0.0020 C.ar      1 <0>        -0.0893
      7 N1          3.6227   -0.6513   -0.0373 N.pl3     1 <0>        -0.3031
      8 C7          3.7638   -1.9902   -0.0512 C.2       1 <0>         0.1105
      9 C8          5.1174   -2.2722   -0.0646 C.2       1 <0>        -0.2275
     10 C9          5.8092   -0.9775   -0.0577 C.2       1 <0>         0.1746
     11 N2          4.8822   -0.0456   -0.0475 N.2       1 <0>        -0.2714
     12 C10         7.2752   -0.7618   -0.0668 C.ar      1 <0>        -0.0650
     13 C11         8.1161   -1.6479    0.6061 C.ar      1 <0>        -0.0516
     14 C12         9.4798   -1.4442    0.5957 C.ar      1 <0>        -0.1451
     15 C13        10.0160   -0.3585   -0.0837 C.ar      1 <0>         0.1471
     16 C14         9.1816    0.5258   -0.7542 C.ar      1 <0>        -0.2104
     17 C15         7.8175    0.3245   -0.7530 C.ar      1 <0>        -0.0400
     18 O1         11.3602   -0.1607   -0.0920 O.3       1 <0>        -0.3043
     19 C16        11.8443    0.9758   -0.8103 C.3       1 <0>         0.0995
     20 C17        13.3468    1.0317   -0.7086 C.ar      1 <0>        -0.0938
     21 C18        13.9439    1.7181    0.3323 C.ar      1 <0>        -0.0811
     22 C19        15.3219    1.7697    0.4260 C.ar      1 <0>        -0.1138
     23 C20        16.1037    1.1342   -0.5221 C.ar      1 <0>        -0.0243
     24 C21        15.5057    0.4474   -1.5636 C.ar      1 <0>        -0.1131
     25 C22        14.1275    0.3918   -1.6532 C.ar      1 <0>        -0.0803
     26 Cl1        17.8346    1.1990   -0.4053 Cl        1 <0>        -0.0661
     27 C23         5.7385   -3.6007   -0.0818 C.2       1 <0>         0.1240
     28 C24         4.9602   -4.7145   -0.0864 C.2       1 <0>        -0.2466
     29 C25         5.3531   -6.1350   -0.0967 C.2       1 <0>         0.5419
     30 O2          6.5223   -6.4745   -0.1026 O.2       1 <0>        -0.4479
     31 N3          4.3728   -7.0226   -0.0987 N.am      1 <0>        -0.5105
     32 C26         3.0788   -6.6424   -0.0921 C.2       1 <0>         0.2857
     33 S1          1.6801   -7.6296   -0.0934 S.2       1 <0>        -0.3220
     34 S2          3.1785   -4.8597   -0.0736 S.3       1 <0>         0.0132
     35 C27         4.6997   -8.4506   -0.1088 C.3       1 <0>         0.1077
     36 C28         4.8186   -8.9568    1.3302 C.3       1 <0>        -0.6916
     37 S3          5.2234  -10.7250    1.3177 S.o2      1 <0>         2.6424
     38 O3          5.3320  -11.1867    2.6928 O.2       1 <0>        -1.0578
     39 O4          4.1610  -11.4402    0.6278 O.2       1 <0>        -1.0502
     40 O5          6.4883  -10.9075    0.6228 O.3       1 <0>        -1.0560
     41 H1         -0.9598    1.9047    0.0260 H         1 <0>         0.1312
     42 H2          1.1517    3.1691    0.0080 H         1 <0>         0.1338
     43 H3          3.3035    1.9750   -0.0200 H         1 <0>         0.1393
     44 H4          1.2205   -1.7596   -0.0193 H         1 <0>         0.1331
     45 H5         -0.9261   -0.5562    0.0079 H         1 <0>         0.1378
     46 H6          2.9628   -2.7146   -0.0515 H         1 <0>         0.1888
     47 H7          7.6996   -2.4924    1.1350 H         1 <0>         0.1383
     48 H8         10.1315   -2.1298    1.1168 H         1 <0>         0.1414
     49 H9          9.6018    1.3697   -1.2811 H         1 <0>         0.1338
     50 H10         7.1694    1.0098   -1.2791 H         1 <0>         0.1321
     51 H11        11.5538    0.8944   -1.8577 H         1 <0>         0.0768
     52 H12        11.4173    1.8837   -0.3843 H         1 <0>         0.0762
     53 H13        13.3334    2.2144    1.0721 H         1 <0>         0.1353
     54 H14        15.7882    2.3062    1.2391 H         1 <0>         0.1372
     55 H15        16.1155   -0.0486   -2.3042 H         1 <0>         0.1378
     56 H16        13.6605   -0.1483   -2.4635 H         1 <0>         0.1362
     57 H17         6.8145   -3.6937   -0.0909 H         1 <0>         0.1668
     58 H18         3.9114   -9.0002   -0.6232 H         1 <0>         0.1238
     59 H19         5.6465   -8.6030   -0.6270 H         1 <0>         0.1165
     60 H20         5.6070   -8.4072    1.8446 H         1 <0>         0.1090
     61 H21         3.8719   -8.8044    1.8484 H         1 <0>         0.1136
@<TRIPOS>BOND
     1    1    6 ar
     2    1    2 ar
     3    1   41 1
     4    2    3 ar
     5    2   42 1
     6    3    4 ar
     7    3   43 1
     8    4    5 ar
     9    4    7 1
    10    5    6 ar
    11    5   44 1
    12    6   45 1
    13    7   11 1
    14    7    8 1
    15    8    9 2
    16    8   46 1
    17    9   10 1
    18    9   27 1
    19   10   11 2
    20   10   12 1
    21   12   17 ar
    22   12   13 ar
    23   13   14 ar
    24   13   47 1
    25   14   15 ar
    26   14   48 1
    27   15   16 ar
    28   15   18 1
    29   16   17 ar
    30   16   49 1
    31   17   50 1
    32   18   19 1
    33   19   20 1
    34   19   51 1
    35   19   52 1
    36   20   25 ar
    37   20   21 ar
    38   21   22 ar
    39   21   53 1
    40   22   23 ar
    41   22   54 1
    42   23   24 ar
    43   23   26 1
    44   24   25 ar
    45   24   55 1
    46   25   56 1
    47   27   28 2
    48   27   57 1
    49   28   34 1
    50   28   29 1
    51   29   30 2
    52   29   31 am
    53   31   32 1
    54   31   35 1
    55   32   33 2
    56   32   34 1
    57   35   36 1
    58   35   58 1
    59   35   59 1
    60   36   37 1
    61   36   60 1
    62   36   61 1
    63   37   38 2
    64   37   39 2
    65   37   40 1
@<TRIPOS>MOLECULE
ZINC49670037
   61    65     0     0     0
SMALL
USER_CHARGES

@<TRIPOS>ATOM
      1 C1         -0.0167    1.3781    0.0096 C.ar      1 <0>        -0.1090
      2 C2          1.1709    2.0855    0.0021 C.ar      1 <0>        -0.1229
      3 C3          2.3773    1.4107   -0.0130 C.ar      1 <0>        -0.0941
      4 C4          2.3960    0.0285   -0.0201 C.ar      1 <0>        -0.0987
      5 C5          1.2084   -0.6789   -0.0117 C.ar      1 <0>        -0.0949
      6 C6          0.0021   -0.0041    0.0020 C.ar      1 <0>        -0.1237
      7 C7          3.7112   -0.7071   -0.0376 C.3       1 <0>         0.1004
      8 O1          4.1410   -0.9464    1.3041 O.3       1 <0>        -0.3043
      9 C8          5.3183   -1.6048    1.4665 C.ar      1 <0>         0.1480
     10 C9          6.0465   -2.0064    0.3546 C.ar      1 <0>        -0.2110
     11 C10         7.2419   -2.6744    0.5158 C.ar      1 <0>        -0.0397
     12 C11         7.7194   -2.9465    1.7976 C.ar      1 <0>        -0.0666
     13 C12         6.9855   -2.5417    2.9124 C.ar      1 <0>        -0.0514
     14 C13         5.7935   -1.8695    2.7440 C.ar      1 <0>        -0.1461
     15 C14         9.0034   -3.6646    1.9748 C.2       1 <0>         0.1755
     16 C15         9.9846   -3.4473    3.0448 C.2       1 <0>        -0.2276
     17 C16        11.0186   -4.3350    2.8108 C.2       1 <0>         0.1104
     18 N1         10.7144   -5.0382    1.7036 N.pl3     1 <0>        -0.3034
     19 N2          9.4766   -4.6206    1.2067 N.2       1 <0>        -0.2717
     20 C17        11.5142   -6.0396    1.1387 C.ar      1 <0>         0.1462
     21 C18        12.7248   -6.3787    1.7287 C.ar      1 <0>        -0.1358
     22 C19        13.5113   -7.3666    1.1693 C.ar      1 <0>        -0.0894
     23 C20        13.0944   -8.0178    0.0228 C.ar      1 <0>        -0.1228
     24 C21        11.8895   -7.6825   -0.5671 C.ar      1 <0>        -0.0970
     25 C22        11.0957   -6.6995   -0.0093 C.ar      1 <0>        -0.1129
     26 C23         9.8874   -2.4808    4.1436 C.2       1 <0>         0.1244
     27 C24        10.8834   -2.3962    5.0641 C.2       1 <0>        -0.2470
     28 C25        11.0017   -1.5185    6.2422 C.2       1 <0>         0.5414
     29 O2         10.1359   -0.7113    6.5271 O.2       1 <0>        -0.4461
     30 N3         12.0946   -1.6515    6.9748 N.am      1 <0>        -0.5104
     31 C26        13.0514   -2.5469    6.6558 C.2       1 <0>         0.2868
     32 S1         14.5236   -2.8658    7.4694 S.2       1 <0>        -0.3261
     33 S2         12.4066   -3.3242    5.1833 S.3       1 <0>         0.0137
     34 C27        12.2701   -0.8070    8.1590 C.3       1 <0>         0.1095
     35 C28        11.6688   -1.5078    9.3788 C.3       1 <0>        -0.6916
     36 S3         11.8861   -0.4622   10.8451 S.o2      1 <0>         2.6426
     37 O3         11.3210   -1.1094   12.0189 O.2       1 <0>        -1.0556
     38 O4         13.2958   -0.1738   11.0590 O.2       1 <0>        -1.0484
     39 O5         11.1603    0.7623   10.5453 O.3       1 <0>        -1.0598
     40 H1         -0.9591    1.9053    0.0259 H         1 <0>         0.1244
     41 H2          1.1563    3.1654    0.0076 H         1 <0>         0.1260
     42 H3          3.3051    1.9634   -0.0196 H         1 <0>         0.1253
     43 H4          1.2231   -1.7588   -0.0176 H         1 <0>         0.1244
     44 H5         -0.9258   -0.5567    0.0082 H         1 <0>         0.1254
     45 H6          3.5884   -1.6586   -0.5549 H         1 <0>         0.0734
     46 H7          4.4573   -0.1052   -0.5563 H         1 <0>         0.0740
     47 H8          5.6760   -1.7957   -0.6377 H         1 <0>         0.1336
     48 H9          7.8076   -2.9868   -0.3495 H         1 <0>         0.1318
     49 H10         7.3525   -2.7509    3.9063 H         1 <0>         0.1381
     50 H11         5.2269   -1.5518    3.6068 H         1 <0>         0.1411
     51 H12        11.9109   -4.4447    3.4092 H         1 <0>         0.1887
     52 H13        13.0511   -5.8702    2.6239 H         1 <0>         0.1331
     53 H14        14.4530   -7.6305    1.6274 H         1 <0>         0.1377
     54 H15        13.7114   -8.7897   -0.4130 H         1 <0>         0.1311
     55 H16        11.5667   -8.1930   -1.4625 H         1 <0>         0.1338
     56 H17        10.1526   -6.4414   -0.4678 H         1 <0>         0.1393
     57 H18         9.0242   -1.8364    4.2212 H         1 <0>         0.1669
     58 H19        13.3329   -0.6332    8.3270 H         1 <0>         0.1224
     59 H20        11.7662    0.1469    8.0029 H         1 <0>         0.1188
     60 H21        10.6059   -1.6816    9.2108 H         1 <0>         0.1105
     61 H22        12.1726   -2.4617    9.5349 H         1 <0>         0.1098
@<TRIPOS>BOND
     1    1    6 ar
     2    1    2 ar
     3    1   40 1
     4    2    3 ar
     5    2   41 1
     6    3    4 ar
     7    3   42 1
     8    4    5 ar
     9    4    7 1
    10    5    6 ar
    11    5   43 1
    12    6   44 1
    13    7    8 1
    14    7   45 1
    15    7   46 1
    16    8    9 1
    17    9   14 ar
    18    9   10 ar
    19   10   11 ar
    20   10   47 1
    21   11   12 ar
    22   11   48 1
    23   12   13 ar
    24   12   15 1
    25   13   14 ar
    26   13   49 1
    27   14   50 1
    28   15   19 2
    29   15   16 1
    30   16   17 2
    31   16   26 1
    32   17   18 1
    33   17   51 1
    34   18   19 1
    35   18   20 1
    36   20   25 ar
    37   20   21 ar
    38   21   22 ar
    39   21   52 1
    40   22   23 ar
    41   22   53 1
    42   23   24 ar
    43   23   54 1
    44   24   25 ar
    45   24   55 1
    46   25   56 1
    47   26   27 2
    48   26   57 1
    49   27   33 1
    50   27   28 1
    51   28   29 2
    52   28   30 am
    53   30   31 1
    54   30   34 1
    55   31   32 2
    56   31   33 1
    57   34   35 1
    58   34   58 1
    59   34   59 1
    60   35   36 1
    61   35   60 1
    62   35   61 1
    63   36   37 2
    64   36   38 2
    65   36   39 1
@<TRIPOS>MOLECULE
ZINC49694485
   61    65     0     0     0
SMALL
USER_CHARGES

@<TRIPOS>ATOM
      1 C1         -0.0167    1.3786    0.0096 C.ar      1 <0>        -0.1226
      2 C2          1.1696    2.0892    0.0021 C.ar      1 <0>        -0.0970
      3 C3          2.3774    1.4195   -0.0134 C.ar      1 <0>        -0.1128
      4 C4          2.3996    0.0310   -0.0211 C.ar      1 <0>         0.1459
      5 C5          1.2065   -0.6797   -0.0130 C.ar      1 <0>        -0.1357
      6 C6          0.0021   -0.0041    0.0020 C.ar      1 <0>        -0.0894
      7 N1          3.6227   -0.6513   -0.0373 N.pl3     1 <0>        -0.3030
      8 C7          3.7638   -1.9902   -0.0512 C.2       1 <0>         0.1104
      9 C8          5.1174   -2.2722   -0.0646 C.2       1 <0>        -0.2274
     10 C9          5.8092   -0.9775   -0.0577 C.2       1 <0>         0.1744
     11 N2          4.8822   -0.0456   -0.0475 N.2       1 <0>        -0.2710
     12 C10         7.2752   -0.7618   -0.0668 C.ar      1 <0>        -0.0640
     13 C11         8.1161   -1.6479    0.6061 C.ar      1 <0>        -0.0519
     14 C12         9.4798   -1.4442    0.5957 C.ar      1 <0>        -0.1442
     15 C13        10.0160   -0.3585   -0.0837 C.ar      1 <0>         0.1480
     16 C14         9.1816    0.5258   -0.7542 C.ar      1 <0>        -0.2087
     17 C15         7.8175    0.3245   -0.7530 C.ar      1 <0>        -0.0396
     18 O1         11.3602   -0.1607   -0.0920 O.3       1 <0>        -0.3067
     19 C16        11.8443    0.9758   -0.8103 C.3       1 <0>         0.1007
     20 C17        13.3468    1.0317   -0.7086 C.ar      1 <0>        -0.0842
     21 C18        14.0284    0.0600   -0.0000 C.ar      1 <0>        -0.0848
     22 C19        15.4065    0.1110    0.0933 C.ar      1 <0>        -0.1124
     23 C20        16.1042    1.1339   -0.5220 C.ar      1 <0>        -0.1054
     24 C21        15.4239    2.1059   -1.2307 C.ar      1 <0>        -0.1086
     25 C22        14.0447    2.0521   -1.3292 C.ar      1 <0>        -0.0307
     26 Cl1        13.1900    3.2691   -2.2249 Cl        1 <0>        -0.0668
     27 C23         5.7385   -3.6007   -0.0818 C.2       1 <0>         0.1241
     28 C24         4.9602   -4.7145   -0.0864 C.2       1 <0>        -0.2467
     29 C25         5.3531   -6.1350   -0.0967 C.2       1 <0>         0.5415
     30 O2          6.5223   -6.4745   -0.1026 O.2       1 <0>        -0.4463
     31 N3          4.3728   -7.0226   -0.0987 N.am      1 <0>        -0.5104
     32 C26         3.0788   -6.6424   -0.0921 C.2       1 <0>         0.2866
     33 S1          1.6801   -7.6296   -0.0934 S.2       1 <0>        -0.3255
     34 S2          3.1785   -4.8597   -0.0736 S.3       1 <0>         0.0135
     35 C27         4.6997   -8.4506   -0.1088 C.3       1 <0>         0.1096
     36 C28         4.8186   -8.9568    1.3302 C.3       1 <0>        -0.6917
     37 S3          5.2234  -10.7250    1.3177 S.o2      1 <0>         2.6427
     38 O3          5.3927  -11.2169    2.6761 O.2       1 <0>        -1.0556
     39 O4          4.1836  -11.4793    0.6351 O.2       1 <0>        -1.0483
     40 O5          6.4776  -10.8190    0.5868 O.3       1 <0>        -1.0599
     41 H1         -0.9598    1.9047    0.0260 H         1 <0>         0.1312
     42 H2          1.1517    3.1691    0.0080 H         1 <0>         0.1338
     43 H3          3.3035    1.9750   -0.0200 H         1 <0>         0.1394
     44 H4          1.2205   -1.7596   -0.0193 H         1 <0>         0.1331
     45 H5         -0.9261   -0.5562    0.0079 H         1 <0>         0.1378
     46 H6          2.9628   -2.7146   -0.0515 H         1 <0>         0.1888
     47 H7          7.6996   -2.4924    1.1350 H         1 <0>         0.1388
     48 H8         10.1315   -2.1298    1.1168 H         1 <0>         0.1419
     49 H9          9.6018    1.3697   -1.2811 H         1 <0>         0.1340
     50 H10         7.1694    1.0098   -1.2791 H         1 <0>         0.1325
     51 H11        11.5538    0.8944   -1.8577 H         1 <0>         0.0837
     52 H12        11.4173    1.8837   -0.3843 H         1 <0>         0.0832
     53 H13        13.4839   -0.7391    0.4811 H         1 <0>         0.1437
     54 H14        15.9385   -0.6482    0.6474 H         1 <0>         0.1332
     55 H15        17.1809    1.1735   -0.4484 H         1 <0>         0.1341
     56 H16        15.9690    2.9051   -1.7110 H         1 <0>         0.1364
     57 H17         6.8145   -3.6937   -0.0909 H         1 <0>         0.1669
     58 H18         3.9114   -9.0002   -0.6232 H         1 <0>         0.1218
     59 H19         5.6465   -8.6030   -0.6270 H         1 <0>         0.1195
     60 H20         5.6070   -8.4072    1.8446 H         1 <0>         0.1104
     61 H21         3.8719   -8.8044    1.8484 H         1 <0>         0.1098
@<TRIPOS>BOND
     1    1    6 ar
     2    1    2 ar
     3    1   41 1
     4    2    3 ar
     5    2   42 1
     6    3    4 ar
     7    3   43 1
     8    4    5 ar
     9    4    7 1
    10    5    6 ar
    11    5   44 1
    12    6   45 1
    13    7   11 1
    14    7    8 1
    15    8    9 2
    16    8   46 1
    17    9   10 1
    18    9   27 1
    19   10   11 2
    20   10   12 1
    21   12   17 ar
    22   12   13 ar
    23   13   14 ar
    24   13   47 1
    25   14   15 ar
    26   14   48 1
    27   15   16 ar
    28   15   18 1
    29   16   17 ar
    30   16   49 1
    31   17   50 1
    32   18   19 1
    33   19   20 1
    34   19   51 1
    35   19   52 1
    36   20   25 ar
    37   20   21 ar
    38   21   22 ar
    39   21   53 1
    40   22   23 ar
    41   22   54 1
    42   23   24 ar
    43   23   55 1
    44   24   25 ar
    45   24   56 1
    46   25   26 1
    47   27   28 2
    48   27   57 1
    49   28   34 1
    50   28   29 1
    51   29   30 2
    52   29   31 am
    53   31   32 1
    54   31   35 1
    55   32   33 2
    56   32   34 1
    57   35   36 1
    58   35   58 1
    59   35   59 1
    60   36   37 1
    61   36   60 1
    62   36   61 1
    63   37   38 2
    64   37   39 2
    65   37   40 1
@<TRIPOS>MOLECULE
ZINC05729579
   38    40     0     0     0
SMALL
USER_CHARGES

@<TRIPOS>ATOM
      1 C1          0.2363    1.9772    0.8228 C.ar      1 <0>        -0.1187
      2 C2          1.4967    2.5432    0.7799 C.ar      1 <0>        -0.1076
      3 C3          2.6034    1.7490    0.5446 C.ar      1 <0>        -0.1191
      4 C4          2.4498    0.3887    0.3525 C.ar      1 <0>        -0.0865
      5 C5          1.1894   -0.1774    0.3963 C.ar      1 <0>        -0.1154
      6 C6          0.0826    0.6170    0.6302 C.ar      1 <0>        -0.1219
      7 C7          3.6561   -0.4769    0.0950 C.3       1 <0>        -0.0580
      8 C8          4.2116   -0.9868    1.4263 C.3       1 <0>        -0.0146
      9 H1          4.4158   -0.1408    2.0826 H         1 <0>         0.0602
     10 C9          5.4872   -1.7501    1.1790 C.2       1 <0>         0.5142
     11 O1          6.5581   -1.1673    1.1890 O.co2     1 <0>        -0.6811
     12 O2          5.4484   -2.9505    0.9691 O.co2     1 <0>        -0.6584
     13 N1          3.2289   -1.8699    2.0593 N.2       1 <0>        -0.3374
     14 C10         2.6736   -1.5248    3.1710 C.2       1 <0>         0.0523
     15 C11         2.8723   -0.1449    3.7742 C.3       1 <0>        -0.0526
     16 C12         1.5027    0.4123    4.0952 C.2       1 <0>         0.4100
     17 O3          1.2470    1.5749    3.8655 O.2       1 <0>        -0.4048
     18 C13         0.4817   -0.4693    4.6887 C.ar      1 <0>        -0.1139
     19 C14        -0.6234    0.0793    5.3381 C.ar      1 <0>        -0.0690
     20 C15        -1.5848   -0.7519    5.8830 C.ar      1 <0>        -0.1034
     21 C16        -1.4621   -2.1274    5.7894 C.ar      1 <0>        -0.0985
     22 C17        -0.3708   -2.6918    5.1533 C.ar      1 <0>        -0.0702
     23 C18         0.6094   -1.8712    4.6049 C.ar      1 <0>        -0.1051
     24 C19         1.7916   -2.4579    3.9378 C.2       1 <0>         0.4500
     25 O4          2.0351   -3.6453    4.0130 O.2       1 <0>        -0.3995
     26 Cl1         3.8510   -0.2714    5.2832 Cl        1 <0>        -0.1203
     27 H2         -0.6278    2.5970    1.0111 H         1 <0>         0.1154
     28 H3          1.6168    3.6060    0.9300 H         1 <0>         0.1180
     29 H4          3.5881    2.1914    0.5104 H         1 <0>         0.1219
     30 H5          1.0693   -1.2401    0.2459 H         1 <0>         0.1210
     31 H6         -0.9021    0.1747    0.6640 H         1 <0>         0.1162
     32 H7          3.3690   -1.3245   -0.5274 H         1 <0>         0.0860
     33 H8          4.4201    0.1078   -0.4174 H         1 <0>         0.0885
     34 H9          3.3771    0.5032    3.0578 H         1 <0>         0.1450
     35 H10        -0.7282    1.1514    5.4156 H         1 <0>         0.1406
     36 H11        -2.4389   -0.3239    6.3866 H         1 <0>         0.1355
     37 H12        -2.2230   -2.7642    6.2159 H         1 <0>         0.1368
     38 H13        -0.2801   -3.7657    5.0830 H         1 <0>         0.1445
@<TRIPOS>BOND
     1    1    6 ar
     2    1    2 ar
     3    1   27 1
     4    2    3 ar
     5    2   28 1
     6    3    4 ar
     7    3   29 1
     8    4    5 ar
     9    4    7 1
    10    5    6 ar
    11    5   30 1
    12    6   31 1
    13    7    8 1
    14    7   32 1
    15    7   33 1
    16    8    9 1
    17    8   10 1
    18    8   13 1
    19   10   11 2
    20   10   12 1
    21   13   14 2
    22   14   24 1
    23   14   15 1
    24   15   16 1
    25   15   26 1
    26   15   34 1
    27   16   17 2
    28   16   18 1
    29   18   23 ar
    30   18   19 ar
    31   19   20 ar
    32   19   35 1
    33   20   21 ar
    34   20   36 1
    35   21   22 ar
    36   21   37 1
    37   22   23 ar
    38   22   38 1
    39   23   24 1
    40   24   25 2
@<TRIPOS>MOLECULE
ZINC36215827
   38    40     0     0     0
SMALL
USER_CHARGES

@<TRIPOS>ATOM
      1 C1          0.6130    1.8260   -0.8185 C.ar      1 <0>        -0.1290
      2 C2          1.8585    2.3875   -0.6075 C.ar      1 <0>        -0.1187
      3 C3          2.9541    1.5748   -0.3839 C.ar      1 <0>        -0.1012
      4 C4          2.8042    0.2006   -0.3708 C.ar      1 <0>        -0.0795
      5 C5          1.5586   -0.3608   -0.5809 C.ar      1 <0>        -0.1142
      6 C6          0.4632    0.4519   -0.8059 C.ar      1 <0>        -0.1208
      7 C7          3.9988   -0.6854   -0.1280 C.3       1 <0>        -0.0490
      8 C8          4.1456   -0.9436    1.3729 C.3       1 <0>        -0.0181
      9 H1          3.2142   -1.3530    1.7640 H         1 <0>         0.0632
     10 C9          5.2636   -1.9266    1.6065 C.2       1 <0>         0.5074
     11 O1          6.3039   -1.5554    2.1229 O.co2     1 <0>        -0.6662
     12 O2          5.1280   -3.0932    1.2792 O.co2     1 <0>        -0.6782
     13 N1          4.4511    0.3151    2.0574 N.2       1 <0>        -0.3368
     14 C10         3.7325    0.6957    3.0584 C.2       1 <0>         0.0556
     15 C11         2.6635   -0.1964    3.6655 C.3       1 <0>        -0.0523
     16 H2          2.7406   -1.2015    3.2508 H         1 <0>         0.1465
     17 C12         2.9002   -0.2373    5.1594 C.2       1 <0>         0.4090
     18 O3          2.7926   -1.2812    5.7666 O.2       1 <0>        -0.4113
     19 C13         3.2631    1.0014    5.8705 C.ar      1 <0>        -0.1146
     20 C14         3.1116    1.0830    7.2542 C.ar      1 <0>        -0.0687
     21 C15         3.4646    2.2432    7.9184 C.ar      1 <0>        -0.1021
     22 C16         3.9697    3.3278    7.2224 C.ar      1 <0>        -0.0988
     23 C17         4.1233    3.2689    5.8487 C.ar      1 <0>        -0.0692
     24 C18         3.7674    2.1122    5.1630 C.ar      1 <0>        -0.1061
     25 C19         3.9076    2.0387    3.6928 C.2       1 <0>         0.4577
     26 O4          4.1518    3.0274    3.0311 O.2       1 <0>        -0.4071
     27 Cl1         1.0297    0.4841    3.3211 Cl        1 <0>        -0.1178
     28 H3         -0.2438    2.4611   -0.9888 H         1 <0>         0.1136
     29 H4          1.9756    3.4611   -0.6178 H         1 <0>         0.1162
     30 H5          3.9273    2.0134   -0.2198 H         1 <0>         0.1232
     31 H6          1.4415   -1.4344   -0.5710 H         1 <0>         0.1196
     32 H7         -0.5099    0.0132   -0.9704 H         1 <0>         0.1154
     33 H8          3.8598   -1.6333   -0.6478 H         1 <0>         0.0908
     34 H9          4.8973   -0.1944   -0.5017 H         1 <0>         0.0813
     35 H10         2.7190    0.2417    7.8060 H         1 <0>         0.1419
     36 H11         3.3448    2.3038    8.9900 H         1 <0>         0.1364
     37 H12         4.2452    4.2260    7.7550 H         1 <0>         0.1372
     38 H13         4.5180    4.1181    5.3106 H         1 <0>         0.1446
@<TRIPOS>BOND
     1    1    6 ar
     2    1    2 ar
     3    1   28 1
     4    2    3 ar
     5    2   29 1
     6    3    4 ar
     7    3   30 1
     8    4    5 ar
     9    4    7 1
    10    5    6 ar
    11    5   31 1
    12    6   32 1
    13    7    8 1
    14    7   33 1
    15    7   34 1
    16    8    9 1
    17    8   10 1
    18    8   13 1
    19   10   11 2
    20   10   12 1
    21   13   14 2
    22   14   25 1
    23   14   15 1
    24   15   16 1
    25   15   17 1
    26   15   27 1
    27   17   18 2
    28   17   19 1
    29   19   24 ar
    30   19   20 ar
    31   20   21 ar
    32   20   35 1
    33   21   22 ar
    34   21   36 1
    35   22   23 ar
    36   22   37 1
    37   23   24 ar
    38   23   38 1
    39   24   25 1
    40   25   26 2
@<TRIPOS>MOLECULE
ZINC18119523
   32    34     0     0     0
SMALL
USER_CHARGES

@<TRIPOS>ATOM
      1 C1          1.1568   -0.4973    0.8433 C.ar      1 <0>        -0.0898
      2 C2          2.3465    0.1973    0.7396 C.ar      1 <0>        -0.1443
      3 C3          2.3801    1.4214    0.0847 C.ar      1 <0>         0.1835
      4 C4          1.2153    1.9444   -0.4648 C.ar      1 <0>        -0.0530
      5 C5          0.0277    1.2441   -0.3575 C.ar      1 <0>        -0.0144
      6 C6         -0.0007    0.0243    0.2962 C.ar      1 <0>        -0.1527
      7 Cl1        -1.4283    1.8951   -1.0430 Cl        1 <0>        -0.0739
      8 Cl2         1.2514    3.4745   -1.2841 Cl        1 <0>        -0.0591
      9 N1          3.5830    2.1266   -0.0212 N.2       1 <0>        -0.5547
     10 C7          4.7794    1.4600    0.0674 C.2       1 <0>         0.4502
     11 N2          4.9948    0.1544    0.0699 N.2       1 <0>        -0.7109
     12 C8          6.2021   -0.3606    0.1611 C.2       1 <0>         0.5267
     13 O1          6.3881   -1.5683    0.1620 O.2       1 <0>        -0.5311
     14 C9          7.3200    0.5979    0.2617 C.2       1 <0>        -0.1679
     15 C10         8.6744    0.3663    0.3679 C.2       1 <0>        -0.0433
     16 C11         9.5661    1.4459    0.4518 C.2       1 <0>        -0.0851
     17 C12        10.9045    1.2170    0.5567 C.2       1 <0>        -0.0956
     18 C13        11.8032    2.3050    0.6412 C.2       1 <0>         0.0261
     19 C14        13.1780    2.2193    0.7451 C.2       1 <0>        -0.1984
     20 C15        13.6568    3.5369    0.8003 C.2       1 <0>        -0.2137
     21 C16        12.5838    4.3559    0.7298 C.2       1 <0>        -0.0400
     22 O2         11.4719    3.6131    0.6289 O.3       1 <0>        -0.1672
     23 S1          6.4239    2.1444    0.1993 S.3       1 <0>        -0.1100
     24 H1          1.1319   -1.4514    1.3488 H         1 <0>         0.1254
     25 H2          3.2498   -0.2113    1.1678 H         1 <0>         0.1512
     26 H3         -0.9291   -0.5214    0.3787 H         1 <0>         0.1281
     27 H4          9.0492   -0.6464    0.3865 H         1 <0>         0.1427
     28 H5          9.1913    2.4586    0.4331 H         1 <0>         0.1226
     29 H6         11.2794    0.2043    0.5753 H         1 <0>         0.1484
     30 H7         13.7683    1.3155    0.7779 H         1 <0>         0.1507
     31 H8         14.6900    3.8402    0.8839 H         1 <0>         0.1480
     32 H9         12.6170    5.4352    0.7476 H         1 <0>         0.2015
@<TRIPOS>BOND
     1    1    6 ar
     2    1    2 ar
     3    1   24 1
     4    2    3 ar
     5    2   25 1
     6    3    4 ar
     7    3    9 1
     8    4    5 ar
     9    4    8 1
    10    5    6 ar
    11    5    7 1
    12    6   26 1
    13    9   10 1
    14   10   23 1
    15   10   11 2
    16   11   12 1
    17   12   13 2
    18   12   14 1
    19   14   15 2
    20   14   23 1
    21   15   16 1
    22   15   27 1
    23   16   17 2
    24   16   28 1
    25   17   18 1
    26   17   29 1
    27   18   22 1
    28   18   19 2
    29   19   20 1
    30   19   30 1
    31   20   21 2
    32   20   31 1
    33   21   22 1
    34   21   32 1
@<TRIPOS>MOLECULE
ZINC49723001
   61    65     0     0     0
SMALL
USER_CHARGES

@<TRIPOS>ATOM
      1 C1         -0.0167    1.3786    0.0096 C.ar      1 <0>        -0.1226
      2 C2          1.1696    2.0892    0.0021 C.ar      1 <0>        -0.0970
      3 C3          2.3774    1.4195   -0.0134 C.ar      1 <0>        -0.1128
      4 C4          2.3996    0.0310   -0.0211 C.ar      1 <0>         0.1458
      5 C5          1.2065   -0.6797   -0.0130 C.ar      1 <0>        -0.1356
      6 C6          0.0021   -0.0041    0.0020 C.ar      1 <0>        -0.0894
      7 N1          3.6227   -0.6513   -0.0373 N.pl3     1 <0>        -0.3030
      8 C7          3.7638   -1.9902   -0.0512 C.2       1 <0>         0.1104
      9 C8          5.1174   -2.2722   -0.0646 C.2       1 <0>        -0.2274
     10 C9          5.8092   -0.9775   -0.0577 C.2       1 <0>         0.1743
     11 N2          4.8822   -0.0456   -0.0475 N.2       1 <0>        -0.2710
     12 C10         7.2752   -0.7618   -0.0668 C.ar      1 <0>        -0.0638
     13 C11         8.1161   -1.6479    0.6061 C.ar      1 <0>        -0.0520
     14 C12         9.4798   -1.4442    0.5957 C.ar      1 <0>        -0.1439
     15 C13        10.0160   -0.3585   -0.0837 C.ar      1 <0>         0.1475
     16 C14         9.1816    0.5258   -0.7542 C.ar      1 <0>        -0.2089
     17 C15         7.8175    0.3245   -0.7530 C.ar      1 <0>        -0.0397
     18 O1         11.3602   -0.1607   -0.0920 O.3       1 <0>        -0.3059
     19 C16        11.8443    0.9758   -0.8103 C.3       1 <0>         0.1044
     20 C17        13.3468    1.0317   -0.7086 C.ar      1 <0>        -0.1275
     21 C18        14.0284    0.0601   -0.0001 C.ar      1 <0>        -0.0687
     22 C19        15.4066    0.1111    0.0933 C.ar      1 <0>        -0.1275
     23 C20        16.1049    1.1338   -0.5218 C.ar      1 <0>        -0.0888
     24 C21        15.4257    2.1058   -1.2310 C.ar      1 <0>        -0.1521
     25 C22        14.0454    2.0529   -1.3297 C.ar      1 <0>         0.1043
     26 F1         13.3806    3.0002   -2.0267 F         1 <0>        -0.1373
     27 C23         5.7385   -3.6007   -0.0818 C.2       1 <0>         0.1241
     28 C24         4.9602   -4.7145   -0.0864 C.2       1 <0>        -0.2466
     29 C25         5.3531   -6.1350   -0.0967 C.2       1 <0>         0.5415
     30 O2          6.5223   -6.4745   -0.1026 O.2       1 <0>        -0.4462
     31 N3          4.3728   -7.0226   -0.0987 N.am      1 <0>        -0.5104
     32 C26         3.0788   -6.6424   -0.0921 C.2       1 <0>         0.2866
     33 S1          1.6801   -7.6296   -0.0934 S.2       1 <0>        -0.3254
     34 S2          3.1785   -4.8597   -0.0736 S.3       1 <0>         0.0136
     35 C27         4.6997   -8.4506   -0.1088 C.3       1 <0>         0.1095
     36 C28         4.8186   -8.9568    1.3302 C.3       1 <0>        -0.6916
     37 S3          5.2234  -10.7250    1.3177 S.o2      1 <0>         2.6427
     38 O3          5.3672  -11.2228    2.6769 O.2       1 <0>        -1.0556
     39 O4          4.1965  -11.4762    0.6125 O.2       1 <0>        -1.0484
     40 O5          6.4910  -10.8161    0.6100 O.3       1 <0>        -1.0599
     41 H1         -0.9598    1.9047    0.0260 H         1 <0>         0.1312
     42 H2          1.1517    3.1691    0.0080 H         1 <0>         0.1339
     43 H3          3.3035    1.9750   -0.0200 H         1 <0>         0.1394
     44 H4          1.2205   -1.7596   -0.0193 H         1 <0>         0.1331
     45 H5         -0.9261   -0.5562    0.0079 H         1 <0>         0.1378
     46 H6          2.9628   -2.7146   -0.0515 H         1 <0>         0.1888
     47 H7          7.6996   -2.4924    1.1350 H         1 <0>         0.1389
     48 H8         10.1315   -2.1298    1.1168 H         1 <0>         0.1421
     49 H9          9.6018    1.3697   -1.2811 H         1 <0>         0.1340
     50 H10         7.1694    1.0098   -1.2791 H         1 <0>         0.1326
     51 H11        11.5538    0.8944   -1.8577 H         1 <0>         0.0820
     52 H12        11.4173    1.8837   -0.3843 H         1 <0>         0.0814
     53 H13        13.4840   -0.7389    0.4810 H         1 <0>         0.1441
     54 H14        15.9383   -0.6483    0.6474 H         1 <0>         0.1337
     55 H15        17.1816    1.1730   -0.4475 H         1 <0>         0.1347
     56 H16        15.9713    2.9047   -1.7111 H         1 <0>         0.1384
     57 H17         6.8145   -3.6937   -0.0909 H         1 <0>         0.1669
     58 H18         3.9114   -9.0002   -0.6232 H         1 <0>         0.1221
     59 H19         5.6465   -8.6030   -0.6270 H         1 <0>         0.1191
     60 H20         5.6070   -8.4072    1.8446 H         1 <0>         0.1105
     61 H21         3.8719   -8.8044    1.8484 H         1 <0>         0.1098
@<TRIPOS>BOND
     1    1    6 ar
     2    1    2 ar
     3    1   41 1
     4    2    3 ar
     5    2   42 1
     6    3    4 ar
     7    3   43 1
     8    4    5 ar
     9    4    7 1
    10    5    6 ar
    11    5   44 1
    12    6   45 1
    13    7   11 1
    14    7    8 1
    15    8    9 2
    16    8   46 1
    17    9   10 1
    18    9   27 1
    19   10   11 2
    20   10   12 1
    21   12   17 ar
    22   12   13 ar
    23   13   14 ar
    24   13   47 1
    25   14   15 ar
    26   14   48 1
    27   15   16 ar
    28   15   18 1
    29   16   17 ar
    30   16   49 1
    31   17   50 1
    32   18   19 1
    33   19   20 1
    34   19   51 1
    35   19   52 1
    36   20   25 ar
    37   20   21 ar
    38   21   22 ar
    39   21   53 1
    40   22   23 ar
    41   22   54 1
    42   23   24 ar
    43   23   55 1
    44   24   25 ar
    45   24   56 1
    46   25   26 1
    47   27   28 2
    48   27   57 1
    49   28   34 1
    50   28   29 1
    51   29   30 2
    52   29   31 am
    53   31   32 1
    54   31   35 1
    55   32   33 2
    56   32   34 1
    57   35   36 1
    58   35   58 1
    59   35   59 1
    60   36   37 1
    61   36   60 1
    62   36   61 1
    63   37   38 2
    64   37   39 2
    65   37   40 1
@<TRIPOS>MOLECULE
ZINC01856315
   29    30     0     0     0
SMALL
USER_CHARGES

@<TRIPOS>ATOM
      1 C1          3.6926    6.1204   -0.2436 C.3       1 <0>        -0.1268
      2 C2          2.3978    5.3607   -0.1117 C.2       1 <0>        -0.0560
      3 C3          1.2372    6.0492    0.0190 C.2       1 <0>        -0.1600
      4 C4         -0.0554    5.3293    0.1520 C.2       1 <0>         0.4267
      5 O1         -1.0951    5.9449    0.2700 O.2       1 <0>        -0.4084
      6 C5         -0.0549    3.8504    0.1389 C.ar      1 <0>        -0.1207
      7 C6         -1.2378    3.1314    0.2606 C.ar      1 <0>        -0.0642
      8 C7         -1.2043    1.7460    0.2400 C.ar      1 <0>        -0.0962
      9 C8         -0.0018    1.0777    0.1107 C.ar      1 <0>        -0.0970
     10 C9          1.1858    1.7825   -0.0116 C.ar      1 <0>        -0.0639
     11 C10         1.1690    3.1709    0.0015 C.ar      1 <0>        -0.1273
     12 C11         2.4226    3.9470   -0.1269 C.2       1 <0>         0.4219
     13 O2          3.4839    3.3634   -0.2460 O.2       1 <0>        -0.4097
     14 S1          1.2623    7.8110    0.0319 S.3       1 <0>        -0.0725
     15 C12         0.3658    8.1493   -1.5037 C.3       1 <0>        -0.1168
     16 C13         0.3708    9.6548   -1.7761 C.3       1 <0>         0.0936
     17 O3         -0.3370    9.9219   -2.9884 O.3       1 <0>        -0.5690
     18 H1          4.5266    5.4186   -0.2501 H         1 <0>         0.0870
     19 H2          3.6878    6.6876   -1.1744 H         1 <0>         0.0956
     20 H3          3.7999    6.8045    0.5982 H         1 <0>         0.0912
     21 H4         -2.1793    3.6498    0.3663 H         1 <0>         0.1450
     22 H5         -2.1231    1.1855    0.3296 H         1 <0>         0.1409
     23 H6          0.0125   -0.0021    0.1003 H         1 <0>         0.1406
     24 H7          2.1213    1.2532   -0.1164 H         1 <0>         0.1455
     25 H8          0.8506    7.6289   -2.3297 H         1 <0>         0.0949
     26 H9         -0.6626    7.8008   -1.4083 H         1 <0>         0.1003
     27 H10        -0.1140   10.1751   -0.9501 H         1 <0>         0.0581
     28 H11         1.3992   10.0033   -1.8715 H         1 <0>         0.0588
     29 H12        -0.3740   10.8590   -3.2240 H         1 <0>         0.3880
@<TRIPOS>BOND
     1    1    2 1
     2    1   18 1
     3    1   19 1
     4    1   20 1
     5    2   12 1
     6    2    3 2
     7    3    4 1
     8    3   14 1
     9    4    5 2
    10    4    6 1
    11    6   11 ar
    12    6    7 ar
    13    7    8 ar
    14    7   21 1
    15    8    9 ar
    16    8   22 1
    17    9   10 ar
    18    9   23 1
    19   10   11 ar
    20   10   24 1
    21   11   12 1
    22   12   13 2
    23   14   15 1
    24   15   16 1
    25   15   25 1
    26   15   26 1
    27   16   17 1
    28   16   27 1
    29   16   28 1
    30   17   29 1
