@<TRIPOS>MOLECULE
ZINC03869768
   31    33     0     0     0
SMALL
USER_CHARGES

@<TRIPOS>ATOM
      1 C1          0.9745   -0.2752   -0.9649 C.ar      1 <0>        -0.0474
      2 C2          2.1550    0.4346   -0.9693 C.ar      1 <0>        -0.1488
      3 C3          2.3800    1.4188   -0.0145 C.ar      1 <0>         0.1280
      4 C4          1.4162    1.6917    0.9485 C.ar      1 <0>        -0.1504
      5 C5          0.2327    0.9869    0.9606 C.ar      1 <0>        -0.0665
      6 C6          0.0021   -0.0041    0.0020 C.ar      1 <0>        -0.0625
      7 C7         -1.2634   -0.7608    0.0105 C.2       1 <0>         0.1356
      8 C8         -1.2167   -2.1184   -0.0957 C.2       1 <0>        -0.0454
      9 C9         -2.4259   -2.8610   -0.0886 C.2       1 <0>         0.4007
     10 O1         -2.4232   -4.0781   -0.1814 O.2       1 <0>        -0.4492
     11 C10        -3.6832   -2.1065    0.0355 C.ar      1 <0>        -0.2689
     12 C11        -4.9234   -2.7585    0.0517 C.ar      1 <0>         0.2243
     13 C12        -6.0821   -2.0144    0.1703 C.ar      1 <0>        -0.2086
     14 C13        -6.0155   -0.6287    0.2722 C.ar      1 <0>         0.1994
     15 C14        -4.7926    0.0230    0.2564 C.ar      1 <0>        -0.1859
     16 C15        -3.6188   -0.7060    0.1392 C.ar      1 <0>         0.1873
     17 O2         -2.4200   -0.0864    0.1283 O.3       1 <0>        -0.1981
     18 O3         -7.1599    0.0925    0.3877 O.3       1 <0>        -0.4869
     19 O4         -4.9864   -4.1104   -0.0487 O.3       1 <0>        -0.4727
     20 O5         -0.0202   -2.7570   -0.2082 O.3       1 <0>        -0.4492
     21 O6          3.5454    2.1157   -0.0224 O.3       1 <0>        -0.4978
     22 H1          0.7987   -1.0369   -1.7101 H         1 <0>         0.1366
     23 H2          2.9071    0.2256   -1.7157 H         1 <0>         0.1375
     24 H3          1.5954    2.4572    1.6889 H         1 <0>         0.1366
     25 H4         -0.5157    1.1995    1.7097 H         1 <0>         0.1340
     26 H5         -7.0416   -2.5100    0.1835 H         1 <0>         0.1512
     27 H6         -4.7536    1.0994    0.3359 H         1 <0>         0.1553
     28 H7         -7.4448    0.2345    1.3008 H         1 <0>         0.4049
     29 H8         -4.9577   -4.5698    0.8018 H         1 <0>         0.4037
     30 H9         -0.0926   -3.7187   -0.2778 H         1 <0>         0.4073
     31 H10         3.5195    2.9194   -0.5594 H         1 <0>         0.3958
@<TRIPOS>BOND
     1    1    6 ar
     2    1    2 ar
     3    1   22 1
     4    2    3 ar
     5    2   23 1
     6    3    4 ar
     7    3   21 1
     8    4    5 ar
     9    4   24 1
    10    5    6 ar
    11    5   25 1
    12    6    7 1
    13    7   17 1
    14    7    8 2
    15    8    9 1
    16    8   20 1
    17    9   10 2
    18    9   11 1
    19   11   16 ar
    20   11   12 ar
    21   12   13 ar
    22   12   19 1
    23   13   14 ar
    24   13   26 1
    25   14   15 ar
    26   14   18 1
    27   15   16 ar
    28   15   27 1
    29   16   17 1
    30   18   28 1
    31   19   29 1
    32   20   30 1
    33   21   31 1
@<TRIPOS>MOLECULE
ZINC03869768
   30    32     0     0     0
SMALL
USER_CHARGES

@<TRIPOS>ATOM
      1 C1          0.1387    1.1253   -0.8121 C.ar      1 <0>        -0.0723
      2 C2          1.3222    1.8291   -0.8163 C.ar      1 <0>        -0.1492
      3 C3          2.3802    1.4188   -0.0136 C.ar      1 <0>         0.1107
      4 C4          2.2493    0.2973    0.7970 C.ar      1 <0>        -0.1487
      5 C5          1.0698   -0.4131    0.8081 C.ar      1 <0>        -0.0549
      6 C6          0.0021   -0.0041    0.0020 C.ar      1 <0>        -0.0373
      7 C7         -1.2618   -0.7600    0.0105 C.2       1 <0>         0.1024
      8 C8         -1.2272   -2.1382   -0.0967 C.2       1 <0>        -0.0073
      9 C9         -2.4246   -2.8649   -0.0894 C.2       1 <0>         0.3353
     10 C10        -3.6396   -2.1555    0.0286 C.2       1 <0>        -0.3335
     11 C11        -4.8747   -2.8371    0.0419 C.2       1 <0>         0.2665
     12 C12        -6.0380   -2.1324    0.1573 C.2       1 <0>        -0.3754
     13 C13        -6.0102   -0.7324    0.2627 C.2       1 <0>         0.3645
     14 O1         -7.1532   -0.0530    0.3751 O.2       1 <0>        -0.6613
     15 C14        -4.7917   -0.0455    0.2513 C.2       1 <0>        -0.3154
     16 C15        -3.6071   -0.7470    0.1346 C.2       1 <0>         0.2120
     17 O2         -2.4247   -0.0966    0.1278 O.3       1 <0>        -0.2026
     18 O3         -4.9062   -4.1898   -0.0602 O.3       1 <0>        -0.4482
     19 O4         -2.4171   -4.2129   -0.1933 O.3       1 <0>        -0.5752
     20 O5         -0.0356   -2.7853   -0.2091 O.3       1 <0>        -0.4646
     21 O6          3.5454    2.1154   -0.0218 O.3       1 <0>        -0.5000
     22 H1         -0.6842    1.4472   -1.4330 H         1 <0>         0.1347
     23 H2          1.4286    2.7011   -1.4445 H         1 <0>         0.1321
     24 H3          3.0741   -0.0177    1.4190 H         1 <0>         0.1323
     25 H4          0.9692   -1.2847    1.4377 H         1 <0>         0.1358
     26 H5         -6.9838   -2.6538    0.1671 H         1 <0>         0.1177
     27 H6         -4.7769    1.0313    0.3327 H         1 <0>         0.1225
     28 H7         -5.7973   -4.5650   -0.0417 H         1 <0>         0.3845
     29 H8         -0.1151   -3.7466   -0.2784 H         1 <0>         0.4051
     30 H9          3.5829    2.8269    0.6320 H         1 <0>         0.3897
@<TRIPOS>BOND
     1    1    6 ar
     2    1    2 ar
     3    1   22 1
     4    2    3 ar
     5    2   23 1
     6    3    4 ar
     7    3   21 1
     8    4    5 ar
     9    4   24 1
    10    5    6 ar
    11    5   25 1
    12    6    7 1
    13    7   17 1
    14    7    8 2
    15    8    9 1
    16    8   20 1
    17    9   10 2
    18    9   19 1
    19   10   16 1
    20   10   11 1
    21   11   12 2
    22   11   18 1
    23   12   13 1
    24   12   26 1
    25   13   14 2
    26   13   15 1
    27   15   16 2
    28   15   27 1
    29   16   17 1
    30   18   28 1
    31   20   29 1
    32   21   30 1
@<TRIPOS>MOLECULE
ZINC03784127
   60    62     0     0     0
SMALL
USER_CHARGES

@<TRIPOS>ATOM
      1 C1          0.7509    0.7586   -1.0380 C.3       1 <0>         0.0892
      2 N1          0.5869   -0.6809   -0.8211 N.am      1 <0>        -0.6261
      3 C2          1.7646   -1.5488   -0.7433 C.3       1 <0>         0.0758
      4 C3         -0.6474   -1.2068   -0.6931 C.2       1 <0>         0.5160
      5 O1         -1.6223   -0.4884   -0.7574 O.2       1 <0>        -0.5274
      6 C4         -0.8160   -2.6877   -0.4699 C.3       1 <0>        -0.1200
      7 C5         -2.3053   -3.0204   -0.3595 C.3       1 <0>        -0.0838
      8 S1         -2.5083   -4.8029   -0.0909 S.3       1 <0>        -0.1857
      9 C6         -4.2919   -5.0071    0.1696 C.3       1 <0>         0.0133
     10 H1         -4.6198   -4.3464    0.9721 H         1 <0>         0.1078
     11 C7         -4.5842   -6.4370    0.5452 C.ar      1 <0>        -0.0678
     12 C8         -4.2478   -7.4613   -0.3228 C.ar      1 <0>        -0.0703
     13 C9         -4.5123   -8.7771    0.0134 C.ar      1 <0>        -0.1220
     14 C10        -5.1140   -9.0773    1.2177 C.ar      1 <0>        -0.0967
     15 C11        -5.4561   -8.0486    2.0994 C.ar      1 <0>        -0.0738
     16 C12        -5.1810   -6.7220    1.7551 C.ar      1 <0>        -0.0739
     17 C13        -6.0995   -8.3610    3.3876 C.2       1 <0>        -0.0304
     18 C14        -6.3586   -9.6377    3.7171 C.2       1 <0>        -0.1480
     19 C15        -7.0014   -9.9498    5.0040 C.ar      1 <0>         0.2071
     20 C16        -7.2608  -11.2925    5.3366 C.ar      1 <0>        -0.1580
     21 C17        -7.8550  -11.5933    6.5245 C.ar      1 <0>        -0.0548
     22 C18        -8.1937  -10.5338    7.3909 C.ar      1 <0>        -0.1124
     23 C19        -8.8074  -10.7759    8.6296 C.ar      1 <0>        -0.0772
     24 C20        -9.1211   -9.7294    9.4427 C.ar      1 <0>        -0.1175
     25 C21        -8.8409   -8.4178    9.0609 C.ar      1 <0>        -0.0151
     26 C22        -8.2465   -8.1465    7.8658 C.ar      1 <0>        -0.0841
     27 C23        -7.9070   -9.2016    6.9999 C.ar      1 <0>         0.1484
     28 N2         -7.3179   -8.9628    5.8255 N.ar      1 <0>        -0.4738
     29 Cl1        -9.2567   -7.1106   10.1250 Cl        1 <0>        -0.0619
     30 S2         -5.1777   -4.5898   -1.3574 S.3       1 <0>        -0.2600
     31 C24        -6.8978   -4.3762   -0.8224 C.3       1 <0>        -0.0425
     32 C25        -7.7432   -3.8952   -2.0035 C.3       1 <0>        -0.1675
     33 C26        -9.1722   -3.7177   -1.5591 C.2       1 <0>         0.4988
     34 O2         -9.4855   -3.9541   -0.4047 O.co2     1 <0>        -0.6949
     35 O3        -10.0151   -3.3379   -2.3539 O.co2     1 <0>        -0.6977
     36 H2          1.8119    0.9957   -1.1166 H         1 <0>         0.0742
     37 H3          0.2448    1.0472   -1.9593 H         1 <0>         0.0616
     38 H4          0.3179    1.3041   -0.1994 H         1 <0>         0.0610
     39 H5          2.0989   -1.6157    0.2921 H         1 <0>         0.0582
     40 H6          1.5075   -2.5436   -1.1071 H         1 <0>         0.0749
     41 H7          2.5637   -1.1327   -1.3569 H         1 <0>         0.0731
     42 H8         -0.3830   -3.2331   -1.3084 H         1 <0>         0.1030
     43 H9         -0.3100   -2.9762    0.4514 H         1 <0>         0.1016
     44 H10        -2.7383   -2.4750    0.4790 H         1 <0>         0.0903
     45 H11        -2.8113   -2.7318   -1.2808 H         1 <0>         0.1034
     46 H12        -3.7768   -7.2322   -1.2673 H         1 <0>         0.1327
     47 H13        -4.2473   -9.5711   -0.6691 H         1 <0>         0.1274
     48 H14        -5.3204  -10.1048    1.4784 H         1 <0>         0.1266
     49 H15        -5.4389   -5.9221    2.4333 H         1 <0>         0.1274
     50 H16        -6.3628   -7.5638    4.0670 H         1 <0>         0.1359
     51 H17        -6.0953  -10.4348    3.0376 H         1 <0>         0.1348
     52 H18        -6.9897  -12.0822    4.6514 H         1 <0>         0.1421
     53 H19        -8.0619  -12.6180    6.7960 H         1 <0>         0.1424
     54 H20        -9.0302  -11.7872    8.9363 H         1 <0>         0.1391
     55 H21        -9.5933   -9.9179   10.3956 H         1 <0>         0.1375
     56 H22        -8.0367   -7.1252    7.5841 H         1 <0>         0.1475
     57 H23        -7.2868   -5.3281   -0.4610 H         1 <0>         0.0814
     58 H24        -6.9402   -3.6385   -0.0210 H         1 <0>         0.0783
     59 H25        -7.3543   -2.9433   -2.3649 H         1 <0>         0.0662
     60 H26        -7.7009   -4.6328   -2.8048 H         1 <0>         0.0659
@<TRIPOS>BOND
     1    1    2 1
     2    1   36 1
     3    1   37 1
     4    1   38 1
     5    2    3 1
     6    2    4 am
     7    3   39 1
     8    3   40 1
     9    3   41 1
    10    4    5 2
    11    4    6 1
    12    6    7 1
    13    6   42 1
    14    6   43 1
    15    7    8 1
    16    7   44 1
    17    7   45 1
    18    8    9 1
    19    9   10 1
    20    9   11 1
    21    9   30 1
    22   11   16 ar
    23   11   12 ar
    24   12   13 ar
    25   12   46 1
    26   13   14 ar
    27   13   47 1
    28   14   15 ar
    29   14   48 1
    30   15   16 ar
    31   15   17 1
    32   16   49 1
    33   17   18 2
    34   17   50 1
    35   18   19 1
    36   18   51 1
    37   19   28 ar
    38   19   20 ar
    39   20   21 ar
    40   20   52 1
    41   21   22 ar
    42   21   53 1
    43   22   27 ar
    44   22   23 ar
    45   23   24 ar
    46   23   54 1
    47   24   25 ar
    48   24   55 1
    49   25   26 ar
    50   25   29 1
    51   26   27 ar
    52   26   56 1
    53   27   28 ar
    54   30   31 1
    55   31   32 1
    56   31   57 1
    57   31   58 1
    58   32   33 1
    59   32   59 1
    60   32   60 1
    61   33   34 2
    62   33   35 1
@<TRIPOS>MOLECULE
ZINC03784397
   60    62     0     0     0
SMALL
USER_CHARGES

@<TRIPOS>ATOM
      1 C1          1.4566   -4.9960   -5.1642 C.3       1 <0>         0.0897
      2 N1          1.0509   -4.6152   -3.8090 N.am      1 <0>        -0.6251
      3 C2          2.0019   -3.9406   -2.9220 C.3       1 <0>         0.0745
      4 C3         -0.1973   -4.8855   -3.3782 C.2       1 <0>         0.5181
      5 O1         -0.9846   -5.4439   -4.1125 O.2       1 <0>        -0.5352
      6 C4         -0.6146   -4.4937   -1.9842 C.3       1 <0>        -0.1215
      7 C5         -2.0678   -4.9116   -1.7504 C.3       1 <0>        -0.0793
      8 S1         -2.5701   -4.4401   -0.0724 S.3       1 <0>        -0.2274
      9 C6         -4.3340   -4.8587   -0.0084 C.3       1 <0>         0.0119
     10 H1         -4.8205   -4.5233   -0.9244 H         1 <0>         0.1077
     11 C7         -4.4915   -6.3513    0.1265 C.ar      1 <0>        -0.0655
     12 C8         -3.9564   -7.0057    1.2225 C.ar      1 <0>        -0.0693
     13 C9         -4.0960   -8.3759    1.3549 C.ar      1 <0>        -0.1215
     14 C10        -4.7704   -9.1000    0.3940 C.ar      1 <0>        -0.0985
     15 C11        -5.3138   -8.4462   -0.7151 C.ar      1 <0>        -0.0753
     16 C12        -5.1733   -7.0610   -0.8394 C.ar      1 <0>        -0.0776
     17 C13        -6.0353   -9.2127   -1.7461 C.2       1 <0>        -0.0319
     18 C14        -6.1721  -10.5436   -1.6212 C.2       1 <0>        -0.1474
     19 C15        -6.8929  -11.3093   -2.6513 C.ar      1 <0>         0.2061
     20 C16        -7.0323  -12.7019   -2.5027 C.ar      1 <0>        -0.1584
     21 C17        -7.6972  -13.4207   -3.4492 C.ar      1 <0>        -0.0542
     22 C18        -8.2296  -12.7343   -4.5598 C.ar      1 <0>        -0.1122
     23 C19        -8.9259  -13.4158   -5.5699 C.ar      1 <0>        -0.0770
     24 C20        -9.4278  -12.7222   -6.6290 C.ar      1 <0>        -0.1170
     25 C21        -9.2588  -11.3412   -6.7245 C.ar      1 <0>        -0.0147
     26 C22        -8.5881  -10.6481   -5.7627 C.ar      1 <0>        -0.0851
     27 C23        -8.0565  -11.3302   -4.6535 C.ar      1 <0>         0.1480
     28 N2         -7.4003  -10.6732   -3.6939 N.ar      1 <0>        -0.4745
     29 Cl1        -9.9127  -10.4926   -8.0905 Cl        1 <0>        -0.0609
     30 S2         -5.0988   -4.0386    1.4175 S.3       1 <0>        -0.2031
     31 C24        -4.9800   -2.2719    1.0235 C.3       1 <0>        -0.0511
     32 C25        -5.7074   -1.4599    2.0970 C.3       1 <0>        -0.1689
     33 C26        -5.6087    0.0078    1.7696 C.2       1 <0>         0.4998
     34 O2         -5.0119    0.3707    0.7703 O.co2     1 <0>        -0.6935
     35 O3         -6.1257    0.8323    2.5041 O.co2     1 <0>        -0.6972
     36 H2          2.4918   -4.6983   -5.3307 H         1 <0>         0.0745
     37 H3          1.3659   -6.0760   -5.2807 H         1 <0>         0.0598
     38 H4          0.8139   -4.4971   -5.8896 H         1 <0>         0.0608
     39 H5          1.9190   -2.8618   -3.0536 H         1 <0>         0.0608
     40 H6          1.7789   -4.1986   -1.8867 H         1 <0>         0.0758
     41 H7          3.0152   -4.2597   -3.1658 H         1 <0>         0.0730
     42 H8          0.0281   -4.9926   -1.2588 H         1 <0>         0.1020
     43 H9         -0.5239   -3.4138   -1.8677 H         1 <0>         0.1054
     44 H10        -2.7105   -4.4127   -2.4758 H         1 <0>         0.0873
     45 H11        -2.1585   -5.9916   -1.8669 H         1 <0>         0.0874
     46 H12        -3.4270   -6.4440    1.9779 H         1 <0>         0.1341
     47 H13        -3.6755   -8.8797    2.2127 H         1 <0>         0.1276
     48 H14        -4.8780  -10.1695    0.4984 H         1 <0>         0.1260
     49 H15        -5.5941   -6.5485   -1.6918 H         1 <0>         0.1264
     50 H16        -6.4543   -8.7047   -2.6022 H         1 <0>         0.1351
     51 H17        -5.7532  -11.0515   -0.7651 H         1 <0>         0.1348
     52 H18        -6.6129  -13.1992   -1.6406 H         1 <0>         0.1421
     53 H19        -7.8135  -14.4900   -3.3518 H         1 <0>         0.1427
     54 H20        -9.0628  -14.4853   -5.5078 H         1 <0>         0.1395
     55 H21        -9.9633  -13.2485   -7.4052 H         1 <0>         0.1380
     56 H22        -8.4649   -9.5788   -5.8514 H         1 <0>         0.1472
     57 H23        -3.9313   -1.9763    0.9926 H         1 <0>         0.0930
     58 H24        -5.4391   -2.0845    0.0528 H         1 <0>         0.0808
     59 H25        -6.7561   -1.7556    2.1279 H         1 <0>         0.0662
     60 H26        -5.2483   -1.6474    3.0677 H         1 <0>         0.0670
@<TRIPOS>BOND
     1    1    2 1
     2    1   36 1
     3    1   37 1
     4    1   38 1
     5    2    3 1
     6    2    4 am
     7    3   39 1
     8    3   40 1
     9    3   41 1
    10    4    5 2
    11    4    6 1
    12    6    7 1
    13    6   42 1
    14    6   43 1
    15    7    8 1
    16    7   44 1
    17    7   45 1
    18    8    9 1
    19    9   10 1
    20    9   11 1
    21    9   30 1
    22   11   16 ar
    23   11   12 ar
    24   12   13 ar
    25   12   46 1
    26   13   14 ar
    27   13   47 1
    28   14   15 ar
    29   14   48 1
    30   15   16 ar
    31   15   17 1
    32   16   49 1
    33   17   18 2
    34   17   50 1
    35   18   19 1
    36   18   51 1
    37   19   28 ar
    38   19   20 ar
    39   20   21 ar
    40   20   52 1
    41   21   22 ar
    42   21   53 1
    43   22   27 ar
    44   22   23 ar
    45   23   24 ar
    46   23   54 1
    47   24   25 ar
    48   24   55 1
    49   25   26 ar
    50   25   29 1
    51   26   27 ar
    52   26   56 1
    53   27   28 ar
    54   30   31 1
    55   31   32 1
    56   31   57 1
    57   31   58 1
    58   32   33 1
    59   32   59 1
    60   32   60 1
    61   33   34 2
    62   33   35 1
@<TRIPOS>MOLECULE
ZINC03874317
   33    35     0     0     0
SMALL
USER_CHARGES

@<TRIPOS>ATOM
      1 C1          2.0732    1.4062   -0.8308 C.ar      1 <0>        -0.0859
      2 C2          1.1849    2.0922    0.0020 C.ar      1 <0>        -0.0258
      3 C3          0.3126    1.3779    0.8279 C.ar      1 <0>        -0.1033
      4 C4          0.3308   -0.0046    0.8189 C.ar      1 <0>         0.0938
      5 C5          1.2167   -0.6850   -0.0116 C.ar      1 <0>         0.0764
      6 C6          2.0867    0.0236   -0.8354 C.ar      1 <0>         0.0966
      7 O1          2.9505   -0.6446   -1.6458 O.3       1 <0>        -0.4863
      8 O2          1.2322   -2.0446   -0.0183 O.3       1 <0>        -0.4787
      9 O3         -0.5174   -0.7003    1.6227 O.3       1 <0>        -0.4812
     10 C7          1.1683    3.5667    0.0096 C.2       1 <0>         0.1312
     11 C8          2.3519    4.2356    0.1004 C.2       1 <0>        -0.0374
     12 C9          2.3527    5.6546    0.1089 C.2       1 <0>         0.4012
     13 O4          3.3933    6.2877    0.1887 O.2       1 <0>        -0.4464
     14 C10         1.0501    6.3331    0.0174 C.ar      1 <0>        -0.2690
     15 C11         0.9572    7.7312    0.0184 C.ar      1 <0>         0.2250
     16 C12        -0.2849    8.3310   -0.0697 C.ar      1 <0>        -0.2079
     17 C13        -1.4331    7.5508   -0.1581 C.ar      1 <0>         0.2004
     18 C14        -1.3490    6.1675   -0.1597 C.ar      1 <0>        -0.1855
     19 C15        -0.1119    5.5470   -0.0726 C.ar      1 <0>         0.1879
     20 O5         -0.0133    4.2011   -0.0789 O.3       1 <0>        -0.1974
     21 O6         -2.6481    8.1504   -0.2432 O.3       1 <0>        -0.4866
     22 O7          2.0786    8.4907    0.1056 O.3       1 <0>        -0.4725
     23 O8          3.5237    3.5485    0.1828 O.3       1 <0>        -0.4491
     24 H1          2.7453    1.9555   -1.4734 H         1 <0>         0.1463
     25 H2         -0.3747    1.9053    1.4728 H         1 <0>         0.1442
     26 H3          3.8063   -0.8341   -1.2374 H         1 <0>         0.3987
     27 H4          0.6310   -2.4417   -0.6632 H         1 <0>         0.3936
     28 H5         -1.3687   -0.9054    1.2124 H         1 <0>         0.3924
     29 H6         -0.3642    9.4081   -0.0694 H         1 <0>         0.1517
     30 H7         -2.2476    5.5724   -0.2288 H         1 <0>         0.1557
     31 H8         -2.9359    8.3293   -1.1489 H         1 <0>         0.4053
     32 H9          2.4687    8.7158   -0.7501 H         1 <0>         0.4040
     33 H10         4.3069    4.1124    0.2436 H         1 <0>         0.4089
@<TRIPOS>BOND
     1    1    6 ar
     2    1    2 ar
     3    1   24 1
     4    2    3 ar
     5    2   10 1
     6    3    4 ar
     7    3   25 1
     8    4    5 ar
     9    4    9 1
    10    5    6 ar
    11    5    8 1
    12    6    7 1
    13    7   26 1
    14    8   27 1
    15    9   28 1
    16   10   20 1
    17   10   11 2
    18   11   12 1
    19   11   23 1
    20   12   13 2
    21   12   14 1
    22   14   19 ar
    23   14   15 ar
    24   15   16 ar
    25   15   22 1
    26   16   17 ar
    27   16   29 1
    28   17   18 ar
    29   17   21 1
    30   18   19 ar
    31   18   30 1
    32   19   20 1
    33   21   31 1
    34   22   32 1
    35   23   33 1
@<TRIPOS>MOLECULE
ZINC03874317
   32    34     0     0     0
SMALL
USER_CHARGES

@<TRIPOS>ATOM
      1 C1          2.0771    1.4053   -0.8287 C.ar      1 <0>        -0.0905
      2 C2          1.1858    2.0921    0.0020 C.ar      1 <0>        -0.0015
      3 C3          0.3103    1.3773    0.8258 C.ar      1 <0>        -0.1070
      4 C4          0.3284   -0.0047    0.8166 C.ar      1 <0>         0.0918
      5 C5          1.2173   -0.6854   -0.0113 C.ar      1 <0>         0.0627
      6 C6          2.0900    0.0232   -0.8331 C.ar      1 <0>         0.0937
      7 O1          2.9560   -0.6454   -1.6409 O.3       1 <0>        -0.4882
      8 O2          1.2332   -2.0446   -0.0173 O.3       1 <0>        -0.4810
      9 O3         -0.5225   -0.7004    1.6174 O.3       1 <0>        -0.4835
     10 C7          1.1696    3.5647    0.0095 C.2       1 <0>         0.0969
     11 C8          2.3645    4.2546    0.1013 C.2       1 <0>         0.0017
     12 C9          2.3581    5.6552    0.1091 C.2       1 <0>         0.3347
     13 C10         1.1162    6.3213    0.0219 C.2       1 <0>        -0.3328
     14 C11         1.0516    7.7306    0.0250 C.2       1 <0>         0.2668
     15 C12        -0.1591    8.3550   -0.0605 C.2       1 <0>        -0.3747
     16 C13        -1.3400    7.6005   -0.1516 C.2       1 <0>         0.3649
     17 O4         -2.5185    8.2209   -0.2352 O.2       1 <0>        -0.6597
     18 C14        -1.2886    6.2026   -0.1556 C.2       1 <0>        -0.3140
     19 C15        -0.0694    5.5584   -0.0695 C.2       1 <0>         0.2123
     20 O5         -0.0059    4.2104   -0.0783 O.3       1 <0>        -0.2019
     21 O6          2.1901    8.4635    0.1132 O.3       1 <0>        -0.4481
     22 O7          3.5130    6.3524    0.1984 O.3       1 <0>        -0.5726
     23 O8          3.5409    3.5760    0.1840 O.3       1 <0>        -0.4646
     24 H1          2.7513    1.9542   -1.4694 H         1 <0>         0.1458
     25 H2         -0.3788    1.9047    1.4687 H         1 <0>         0.1447
     26 H3          3.8105   -0.8352   -1.2299 H         1 <0>         0.3943
     27 H4          0.6340   -2.4421   -0.6639 H         1 <0>         0.3880
     28 H5         -1.3725   -0.9053    1.2042 H         1 <0>         0.3891
     29 H6         -0.2092    9.4338   -0.0579 H         1 <0>         0.1182
     30 H7         -2.2003    5.6280   -0.2254 H         1 <0>         0.1230
     31 H8          2.0440    9.4194    0.1078 H         1 <0>         0.3850
     32 H9          4.3201    4.1455    0.2445 H         1 <0>         0.4068
@<TRIPOS>BOND
     1    1    6 ar
     2    1    2 ar
     3    1   24 1
     4    2    3 ar
     5    2   10 1
     6    3    4 ar
     7    3   25 1
     8    4    5 ar
     9    4    9 1
    10    5    6 ar
    11    5    8 1
    12    6    7 1
    13    7   26 1
    14    8   27 1
    15    9   28 1
    16   10   20 1
    17   10   11 2
    18   11   12 1
    19   11   23 1
    20   12   13 2
    21   12   22 1
    22   13   19 1
    23   13   14 1
    24   14   15 2
    25   14   21 1
    26   15   16 1
    27   15   29 1
    28   16   17 2
    29   16   18 1
    30   18   19 2
    31   18   30 1
    32   19   20 1
    33   21   31 1
    34   23   32 1
@<TRIPOS>MOLECULE
ZINC04098600
   32    34     0     0     0
SMALL
USER_CHARGES

@<TRIPOS>ATOM
      1 C1          0.0035    1.4143    0.3090 C.ar      1 <0>        -0.1753
      2 C2          1.1546    2.0982    0.0380 C.ar      1 <0>        -0.0066
      3 C3          2.3728    1.4186    0.0060 C.ar      1 <0>        -0.2364
      4 C4          2.4188    0.0351    0.2513 C.ar      1 <0>         0.1715
      5 C5          1.2411   -0.6453    0.5256 C.ar      1 <0>        -0.1742
      6 C6          0.0397    0.0435    0.5533 C.ar      1 <0>         0.1827
      7 O1         -1.1122   -0.6230    0.8218 O.3       1 <0>        -0.4901
      8 O2          3.6005   -0.6147    0.2177 O.3       1 <0>        -0.1992
      9 C7          4.7589    0.0138   -0.0453 C.2       1 <0>         0.1338
     10 C8          4.8242    1.3523   -0.2962 C.2       1 <0>        -0.0396
     11 C9          3.6345    2.1235   -0.2835 C.2       1 <0>         0.4005
     12 O3          3.6543    3.3238   -0.5035 O.2       1 <0>        -0.4599
     13 O4          6.0219    1.9435   -0.5570 O.3       1 <0>        -0.4480
     14 C10         6.0055   -0.7732   -0.0625 C.ar      1 <0>        -0.0250
     15 C11         7.1319   -0.3160    0.6273 C.ar      1 <0>        -0.0860
     16 C12         8.2993   -1.0565    0.6097 C.ar      1 <0>         0.0962
     17 C13         8.3537   -2.2563   -0.0941 C.ar      1 <0>         0.0757
     18 C14         7.2335   -2.7143   -0.7820 C.ar      1 <0>         0.0946
     19 C15         6.0616   -1.9809   -0.7638 C.ar      1 <0>        -0.1045
     20 O5          7.2905   -3.8868   -1.4688 O.3       1 <0>        -0.4806
     21 O6          9.5033   -2.9822   -0.1099 O.3       1 <0>        -0.4736
     22 O7          9.3959   -0.6120    1.2802 O.3       1 <0>        -0.4791
     23 H1         -0.9393    1.9402    0.3384 H         1 <0>         0.1456
     24 H2          1.1218    3.1610   -0.1511 H         1 <0>         0.1493
     25 H3          1.2610   -1.7082    0.7157 H         1 <0>         0.1532
     26 H4         -1.5562   -0.9727    0.0372 H         1 <0>         0.4040
     27 H5          5.9634    2.8945   -0.7218 H         1 <0>         0.4090
     28 H6          7.0905    0.6150    1.1732 H         1 <0>         0.1468
     29 H7          5.1915   -2.3390   -1.2940 H         1 <0>         0.1440
     30 H8          7.0420   -4.6614   -0.9460 H         1 <0>         0.3916
     31 H9          9.5710   -3.6274    0.6071 H         1 <0>         0.3882
     32 H10         9.4480   -0.9185    2.1959 H         1 <0>         0.3914
@<TRIPOS>BOND
     1    1    6 ar
     2    1    2 ar
     3    1   23 1
     4    2    3 ar
     5    2   24 1
     6    3   11 1
     7    3    4 ar
     8    4    5 ar
     9    4    8 1
    10    5    6 ar
    11    5   25 1
    12    6    7 1
    13    7   26 1
    14    8    9 1
    15    9   10 2
    16    9   14 1
    17   10   11 1
    18   10   13 1
    19   11   12 2
    20   13   27 1
    21   14   19 ar
    22   14   15 ar
    23   15   16 ar
    24   15   28 1
    25   16   17 ar
    26   16   22 1
    27   17   18 ar
    28   17   21 1
    29   18   19 ar
    30   18   20 1
    31   19   29 1
    32   20   30 1
    33   21   31 1
    34   22   32 1
@<TRIPOS>MOLECULE
ZINC03812888
   72    73     0     0     0
SMALL
USER_CHARGES

@<TRIPOS>ATOM
      1 C1          0.4643    1.3329   -0.2411 C.3       1 <0>        -0.1747
      2 C2          0.0733   -0.1223    0.0241 C.3       1 <0>        -0.0830
      3 C3          0.8761   -0.6579    1.2114 C.3       1 <0>        -0.1834
      4 C4         -1.4212   -0.1988    0.3430 C.3       1 <0>         0.1004
      5 C5         -2.2237    0.3455   -0.8405 C.3       1 <0>        -0.1048
      6 C6         -1.9247   -0.4899   -2.0868 C.3       1 <0>        -0.1606
      7 C7         -2.7272    0.0544   -3.2703 C.3       1 <0>        -0.0091
      8 N1         -2.4402   -0.7477   -4.4670 N.4       1 <0>        -0.3873
      9 C8         -1.0302   -0.5789   -4.8430 C.3       1 <0>        -0.0587
     10 C9         -3.2986   -0.3021   -5.5727 C.3       1 <0>        -0.0075
     11 C10        -3.0896   -1.2169   -6.7811 C.3       1 <0>        -0.0949
     12 C11        -3.9702   -0.7598   -7.9154 C.ar      1 <0>        -0.1088
     13 C12        -5.2517   -1.2635   -8.0399 C.ar      1 <0>        -0.1027
     14 C13        -6.0634   -0.8473   -9.0787 C.ar      1 <0>        -0.1717
     15 C14        -5.5933    0.0770   -9.9977 C.ar      1 <0>         0.1180
     16 C15        -4.3036    0.5843   -9.8722 C.ar      1 <0>         0.1059
     17 C16        -3.4969    0.1666   -8.8259 C.ar      1 <0>        -0.1655
     18 O1         -3.8377    1.4917  -10.7717 O.3       1 <0>        -0.3008
     19 C17        -2.5044    1.9690  -10.5804 C.3       1 <0>         0.0253
     20 O2         -6.3903    0.4871  -11.0204 O.3       1 <0>        -0.3014
     21 C18        -7.7019   -0.0764  -11.0869 C.3       1 <0>         0.0227
     22 C19        -1.7993   -1.6000    0.5892 C.1       1 <0>         0.2041
     23 N2         -2.0910   -2.6813    0.7792 N.1       1 <0>        -0.4101
     24 C20        -1.7157    0.6241    1.5707 C.ar      1 <0>        -0.0960
     25 C21        -0.6924    1.2978    2.2112 C.ar      1 <0>        -0.1135
     26 C22        -0.9573    2.0540    3.3377 C.ar      1 <0>        -0.1756
     27 C23        -2.2510    2.1383    3.8270 C.ar      1 <0>         0.1175
     28 C24        -3.2811    1.4605    3.1820 C.ar      1 <0>         0.1030
     29 C25        -3.0094    0.7082    2.0505 C.ar      1 <0>        -0.1606
     30 O3         -4.5524    1.5402    3.6584 O.3       1 <0>        -0.3010
     31 C26        -5.5587    0.8184    2.9454 C.3       1 <0>         0.0257
     32 O4         -2.5133    2.8814    4.9353 O.3       1 <0>        -0.3026
     33 C27        -1.4070    3.5493    5.5454 C.3       1 <0>         0.0232
     34 H1          1.5417    1.4471   -0.1220 H         1 <0>         0.0714
     35 H2          0.1801    1.6060   -1.2573 H         1 <0>         0.0573
     36 H3         -0.0504    1.9823    0.4671 H         1 <0>         0.0866
     37 H4          0.2874   -0.7230   -0.8599 H         1 <0>         0.0818
     38 H5          1.8959   -0.2762    1.1621 H         1 <0>         0.0724
     39 H6          0.4106   -0.3318    2.1415 H         1 <0>         0.0837
     40 H7          0.8938   -1.7472    1.1763 H         1 <0>         0.0565
     41 H8         -3.2884    0.2910   -0.6133 H         1 <0>         0.0854
     42 H9         -1.9437    1.3831   -1.0228 H         1 <0>         0.1040
     43 H10        -0.8600   -0.4354   -2.3140 H         1 <0>         0.0984
     44 H11        -2.2047   -1.5275   -1.9045 H         1 <0>         0.0867
     45 H12        -3.7919   -0.0001   -3.0431 H         1 <0>         0.1322
     46 H13        -2.4473    1.0920   -3.4526 H         1 <0>         0.1347
     47 H14        -0.8339    0.4722   -5.0545 H         1 <0>         0.1249
     48 H15        -0.3932   -0.9095   -4.0226 H         1 <0>         0.1255
     49 H16        -0.8172   -1.1741   -5.7310 H         1 <0>         0.1260
     50 H17        -4.3424   -0.3437   -5.2617 H         1 <0>         0.1327
     51 H18        -3.0405    0.7218   -5.8431 H         1 <0>         0.1319
     52 H19        -2.0457   -1.1754   -7.0921 H         1 <0>         0.0944
     53 H20        -3.3477   -2.2408   -6.5107 H         1 <0>         0.0957
     54 H21        -5.6193   -1.9840   -7.3242 H         1 <0>         0.1290
     55 H22        -7.0638   -1.2429   -9.1741 H         1 <0>         0.1420
     56 H23        -2.4969    0.5616   -8.7240 H         1 <0>         0.1364
     57 H24        -2.2588    2.6850  -11.3647 H         1 <0>         0.1070
     58 H25        -2.4286    2.4553   -9.6078 H         1 <0>         0.0539
     59 H26        -1.8088    1.1309  -10.6227 H         1 <0>         0.0563
     60 H27        -7.6275   -1.1590  -11.1896 H         1 <0>         0.0592
     61 H28        -8.2478    0.1654  -10.1750 H         1 <0>         0.0584
     62 H29        -8.2308    0.3347  -11.9468 H         1 <0>         0.1080
     63 H30         0.3164    1.2329    1.8308 H         1 <0>         0.1604
     64 H31        -0.1560    2.5788    3.8366 H         1 <0>         0.1426
     65 H32        -3.8077    0.1843    1.5459 H         1 <0>         0.1325
     66 H33        -6.5240    0.9669    3.4294 H         1 <0>         0.1055
     67 H34        -5.6074    1.1811    1.9187 H         1 <0>         0.0536
     68 H35        -5.3123   -0.2434    2.9444 H         1 <0>         0.0538
     69 H36        -0.6644    2.8139    5.8548 H         1 <0>         0.0583
     70 H37        -0.9593    4.2388    4.8297 H         1 <0>         0.0585
     71 H38        -1.7536    4.1046    6.4169 H         1 <0>         0.1058
     72 H39        -2.6218   -1.7207   -4.2712 H         1 <0>         0.4250
@<TRIPOS>BOND
     1    1    2 1
     2    1   34 1
     3    1   35 1
     4    1   36 1
     5    2    3 1
     6    2    4 1
     7    2   37 1
     8    3   38 1
     9    3   39 1
    10    3   40 1
    11    4    5 1
    12    4   22 1
    13    4   24 1
    14    5    6 1
    15    5   41 1
    16    5   42 1
    17    6    7 1
    18    6   43 1
    19    6   44 1
    20    7    8 1
    21    7   45 1
    22    7   46 1
    23    8    9 1
    24    8   10 1
    25    8   72 1
    26    9   47 1
    27    9   48 1
    28    9   49 1
    29   10   11 1
    30   10   50 1
    31   10   51 1
    32   11   12 1
    33   11   52 1
    34   11   53 1
    35   12   17 ar
    36   12   13 ar
    37   13   14 ar
    38   13   54 1
    39   14   15 ar
    40   14   55 1
    41   15   16 ar
    42   15   20 1
    43   16   17 ar
    44   16   18 1
    45   17   56 1
    46   18   19 1
    47   19   57 1
    48   19   58 1
    49   19   59 1
    50   20   21 1
    51   21   60 1
    52   21   61 1
    53   21   62 1
    54   22   23 3
    55   24   29 ar
    56   24   25 ar
    57   25   26 ar
    58   25   63 1
    59   26   27 ar
    60   26   64 1
    61   27   28 ar
    62   27   32 1
    63   28   29 ar
    64   28   30 1
    65   29   65 1
    66   30   31 1
    67   31   66 1
    68   31   67 1
    69   31   68 1
    70   32   33 1
    71   33   69 1
    72   33   70 1
    73   33   71 1
@<TRIPOS>MOLECULE
ZINC00519621
   34    36     0     0     0
SMALL
USER_CHARGES

@<TRIPOS>ATOM
      1 C1         -0.0173    1.4248    0.0099 C.3       1 <0>         0.0215
      2 O1          0.0021   -0.0041    0.0020 O.3       1 <0>        -0.3033
      3 C2         -1.2011   -0.6379    0.0101 C.ar      1 <0>         0.1011
      4 C3         -2.3699    0.0987    0.0194 C.ar      1 <0>        -0.1581
      5 C4         -3.6047   -0.5560    0.0273 C.ar      1 <0>        -0.0428
      6 C5         -3.6513   -1.9527    0.0256 C.ar      1 <0>        -0.0984
      7 C6         -2.4814   -2.6811    0.0163 C.ar      1 <0>        -0.1078
      8 C7         -1.2552   -2.0307    0.0031 C.ar      1 <0>         0.1046
      9 O2         -0.1050   -2.7534   -0.0113 O.3       1 <0>        -0.4830
     10 C8         -4.8557    0.2255    0.0378 C.2       1 <0>         0.2049
     11 C9         -6.0423   -0.4395    0.0508 C.2       1 <0>        -0.3041
     12 C10        -7.2526    0.2935    0.0610 C.2       1 <0>         0.4222
     13 O3         -8.3351   -0.2701    0.0731 O.2       1 <0>        -0.4515
     14 C11        -7.1551    1.7630    0.0568 C.ar      1 <0>        -0.2659
     15 C12        -8.3014    2.5678    0.0668 C.ar      1 <0>         0.2200
     16 C13        -8.1672    3.9438    0.0629 C.ar      1 <0>        -0.2048
     17 C14        -6.9026    4.5224    0.0488 C.ar      1 <0>         0.1928
     18 C15        -5.7640    3.7318    0.0385 C.ar      1 <0>        -0.1837
     19 C16        -5.8784    2.3502    0.0431 C.ar      1 <0>         0.1830
     20 O4         -4.7797    1.5659    0.0396 O.3       1 <0>        -0.2192
     21 O5         -6.7820    5.8745    0.0447 O.3       1 <0>        -0.4871
     22 O6         -9.5345    2.0012    0.0796 O.3       1 <0>        -0.4719
     23 H1          1.0053    1.8021    0.0021 H         1 <0>         0.1060
     24 H2         -0.5445    1.7859   -0.8732 H         1 <0>         0.0588
     25 H3         -0.5275    1.7763    0.9067 H         1 <0>         0.0581
     26 H4         -2.3295    1.1780    0.0211 H         1 <0>         0.1453
     27 H5         -4.6041   -2.4612    0.0320 H         1 <0>         0.1440
     28 H6         -2.5188   -3.7604    0.0154 H         1 <0>         0.1496
     29 H7          0.2362   -2.9674    0.8679 H         1 <0>         0.3939
     30 H8         -6.0605   -1.5193    0.0529 H         1 <0>         0.1658
     31 H9         -9.0465    4.5708    0.0705 H         1 <0>         0.1505
     32 H10        -4.7872    4.1924    0.0272 H         1 <0>         0.1526
     33 H11        -6.7381    6.2682    0.9269 H         1 <0>         0.4038
     34 H12        -9.8833    1.8383    0.9667 H         1 <0>         0.4033
@<TRIPOS>BOND
     1    1    2 1
     2    1   23 1
     3    1   24 1
     4    1   25 1
     5    2    3 1
     6    3    8 ar
     7    3    4 ar
     8    4    5 ar
     9    4   26 1
    10    5    6 ar
    11    5   10 1
    12    6    7 ar
    13    6   27 1
    14    7    8 ar
    15    7   28 1
    16    8    9 1
    17    9   29 1
    18   10   20 1
    19   10   11 2
    20   11   12 1
    21   11   30 1
    22   12   13 2
    23   12   14 1
    24   14   19 ar
    25   14   15 ar
    26   15   16 ar
    27   15   22 1
    28   16   17 ar
    29   16   31 1
    30   17   18 ar
    31   17   21 1
    32   18   19 ar
    33   18   32 1
    34   19   20 1
    35   21   33 1
    36   22   34 1
@<TRIPOS>MOLECULE
ZINC03871576
   30    32     0     0     0
SMALL
USER_CHARGES

@<TRIPOS>ATOM
      1 C1         -0.0169    1.3935    0.0097 C.ar      1 <0>        -0.0604
      2 C2          1.1676    2.0963    0.0022 C.ar      1 <0>        -0.1497
      3 C3          2.3803    1.4179   -0.0135 C.ar      1 <0>         0.1360
      4 C4          2.4038    0.0284   -0.0212 C.ar      1 <0>        -0.1474
      5 C5          1.2241   -0.6823   -0.0133 C.ar      1 <0>        -0.0612
      6 C6          0.0021   -0.0041    0.0020 C.ar      1 <0>        -0.0853
      7 C7         -1.2639   -0.7610    0.0105 C.2       1 <0>         0.2092
      8 C8         -1.2134   -2.1203    0.0083 C.2       1 <0>        -0.3116
      9 C9         -2.4177   -2.8631    0.0169 C.2       1 <0>         0.4226
     10 O1         -2.4099   -4.0836    0.0156 O.2       1 <0>        -0.4538
     11 C10        -3.6809   -2.1061    0.0279 C.ar      1 <0>        -0.2659
     12 C11        -4.9199   -2.7591    0.0374 C.ar      1 <0>         0.2192
     13 C12        -6.0832   -2.0121    0.0480 C.ar      1 <0>        -0.2049
     14 C13        -6.0212   -0.6227    0.0493 C.ar      1 <0>         0.1922
     15 C14        -4.7984    0.0300    0.0400 C.ar      1 <0>        -0.1830
     16 C15        -3.6212   -0.7020    0.0293 C.ar      1 <0>         0.1830
     17 O2         -2.4220   -0.0821    0.0257 O.3       1 <0>        -0.2182
     18 O3         -7.1695    0.1013    0.0593 O.3       1 <0>        -0.4872
     19 O4         -4.9782   -4.1150    0.0356 O.3       1 <0>        -0.4722
     20 O5          3.5455    2.1145   -0.0218 O.3       1 <0>        -0.4965
     21 H1         -0.9589    1.9215    0.0260 H         1 <0>         0.1404
     22 H2          1.1538    3.1762    0.0081 H         1 <0>         0.1393
     23 H3          3.3485   -0.4949   -0.0338 H         1 <0>         0.1414
     24 H4          1.2432   -1.7622   -0.0196 H         1 <0>         0.1415
     25 H5         -0.2608   -2.6290   -0.0002 H         1 <0>         0.1637
     26 H6         -7.0423   -2.5086    0.0550 H         1 <0>         0.1502
     27 H7         -4.7627    1.1094    0.0411 H         1 <0>         0.1534
     28 H8         -7.4952    0.3100    0.9456 H         1 <0>         0.4037
     29 H9         -4.9875   -4.5094    0.9185 H         1 <0>         0.4031
     30 H10         3.8920    2.3119    0.8591 H         1 <0>         0.3984
@<TRIPOS>BOND
     1    1    6 ar
     2    1    2 ar
     3    1   21 1
     4    2    3 ar
     5    2   22 1
     6    3    4 ar
     7    3   20 1
     8    4    5 ar
     9    4   23 1
    10    5    6 ar
    11    5   24 1
    12    6    7 1
    13    7   17 1
    14    7    8 2
    15    8    9 1
    16    8   25 1
    17    9   10 2
    18    9   11 1
    19   11   16 ar
    20   11   12 ar
    21   12   13 ar
    22   12   19 1
    23   13   14 ar
    24   13   26 1
    25   14   15 ar
    26   14   18 1
    27   15   16 ar
    28   15   27 1
    29   16   17 1
    30   18   28 1
    31   19   29 1
    32   20   30 1
@<TRIPOS>MOLECULE
ZINC03871576
   29    31     0     0     0
SMALL
USER_CHARGES

@<TRIPOS>ATOM
      1 C1         -0.0169    1.3945    0.0097 C.ar      1 <0>        -0.0666
      2 C2          1.1672    2.0969    0.0022 C.ar      1 <0>        -0.1480
      3 C3          2.3804    1.4183   -0.0135 C.ar      1 <0>         0.1175
      4 C4          2.4042    0.0284   -0.0212 C.ar      1 <0>        -0.1471
      5 C5          1.2251   -0.6825   -0.0138 C.ar      1 <0>        -0.0696
      6 C6          0.0021   -0.0041    0.0020 C.ar      1 <0>        -0.0607
      7 C7         -1.2623   -0.7603    0.0105 C.2       1 <0>         0.1733
      8 C8         -1.2238   -2.1392    0.0085 C.2       1 <0>        -0.2675
      9 C9         -2.4161   -2.8666    0.0170 C.2       1 <0>         0.3649
     10 C10        -3.6370   -2.1554    0.0275 C.2       1 <0>        -0.3407
     11 C11        -4.8707   -2.8387    0.0369 C.2       1 <0>         0.2653
     12 C12        -6.0384   -2.1317    0.0475 C.2       1 <0>        -0.3780
     13 C13        -6.0158   -0.7277    0.0485 C.2       1 <0>         0.3615
     14 O1         -7.1627   -0.0461    0.0589 O.2       1 <0>        -0.6669
     15 C14        -4.7977   -0.0391    0.0393 C.2       1 <0>        -0.3147
     16 C15        -3.6098   -0.7430    0.0291 C.2       1 <0>         0.2111
     17 O2         -2.4272   -0.0920    0.0257 O.3       1 <0>        -0.2196
     18 O3         -4.8969   -4.1953    0.0351 O.3       1 <0>        -0.4477
     19 O4         -2.4024   -4.2178    0.0147 O.3       1 <0>        -0.5784
     20 O5          3.5452    2.1149   -0.0218 O.3       1 <0>        -0.4988
     21 H1         -0.9589    1.9225    0.0260 H         1 <0>         0.1416
     22 H2          1.1536    3.1768    0.0081 H         1 <0>         0.1349
     23 H3          3.3490   -0.4946   -0.0334 H         1 <0>         0.1360
     24 H4          1.2446   -1.7623   -0.0201 H         1 <0>         0.1407
     25 H5         -0.2747   -2.6546   -0.0001 H         1 <0>         0.1464
     26 H6         -6.9835   -2.6543    0.0547 H         1 <0>         0.1160
     27 H7         -4.7867    1.0408    0.0398 H         1 <0>         0.1203
     28 H8         -5.7877   -4.5715    0.0420 H         1 <0>         0.3828
     29 H9          3.8917    2.3124    0.8591 H         1 <0>         0.3921
@<TRIPOS>BOND
     1    1    6 ar
     2    1    2 ar
     3    1   21 1
     4    2    3 ar
     5    2   22 1
     6    3    4 ar
     7    3   20 1
     8    4    5 ar
     9    4   23 1
    10    5    6 ar
    11    5   24 1
    12    6    7 1
    13    7   17 1
    14    7    8 2
    15    8    9 1
    16    8   25 1
    17    9   10 2
    18    9   19 1
    19   10   16 1
    20   10   11 1
    21   11   12 2
    22   11   18 1
    23   12   13 1
    24   12   26 1
    25   13   14 2
    26   13   15 1
    27   15   16 2
    28   15   27 1
    29   16   17 1
    30   18   28 1
    31   20   29 1
@<TRIPOS>MOLECULE
ZINC00755203
   42    45     0     0     0
SMALL
USER_CHARGES
(4-chlorophenyl)methylsulfanylBLAHcarbonitrile
@<TRIPOS>ATOM
      1 C1          5.6561   -5.4340    1.5627 C.ar      1 <0>        -0.0876
      2 C2          6.8703   -5.6464    2.1880 C.ar      1 <0>        -0.1090
      3 C3          6.9288   -5.7549    3.5660 C.ar      1 <0>        -0.0275
      4 C4          5.7725   -5.6450    4.3177 C.ar      1 <0>        -0.1091
      5 C5          4.5597   -5.4270    3.6917 C.ar      1 <0>        -0.0877
      6 C6          4.5019   -5.3186    2.3147 C.ar      1 <0>        -0.0810
      7 C7          3.1792   -5.0809    1.6328 C.3       1 <0>        -0.0648
      8 S1          2.8894   -3.3006    1.4823 S.3       1 <0>        -0.0386
      9 C8          1.3233   -3.3127    0.6750 C.ar      1 <0>         0.1835
     10 C9          0.6799   -2.1137    0.3426 C.ar      1 <0>         0.0017
     11 C10        -0.5644   -2.1869   -0.2979 C.ar      1 <0>         0.1856
     12 C11        -0.9865   -0.7970   -0.5117 C.2       1 <0>        -0.1257
     13 C12         0.0021   -0.0041    0.0020 C.2       1 <0>         0.2030
     14 N1          0.9981   -0.7793    0.5016 N.pl3     1 <0>        -0.4401
     15 C13         2.2392   -0.2827    1.1123 C.3       1 <0>         0.0964
     16 C14         1.9153    0.8129    2.1284 C.3       1 <0>        -0.1391
     17 C15         1.9171    2.1739    1.4348 C.3       1 <0>        -0.1269
     18 C16         1.4164    2.0353   -0.0005 C.3       1 <0>        -0.1324
     19 C17        -0.0184    1.5059    0.0103 C.3       1 <0>        -0.0727
     20 C18        -2.1976   -0.3573   -1.1366 C.1       1 <0>         0.2912
     21 N2         -3.1584   -0.0085   -1.6324 N.1       1 <0>        -0.4177
     22 N3         -1.0888   -3.3824   -0.5698 N.ar      1 <0>        -0.4879
     23 C19        -0.4474   -4.4826   -0.2387 C.ar      1 <0>         0.3031
     24 N4          0.7259   -4.4607    0.3672 N.ar      1 <0>        -0.5139
     25 Cl1         8.4525   -6.0282    4.3516 Cl        1 <0>        -0.0642
     26 H1          5.6097   -5.3536    0.4867 H         1 <0>         0.1360
     27 H2          7.7726   -5.7321    1.6006 H         1 <0>         0.1377
     28 H3          5.8176   -5.7293    5.3934 H         1 <0>         0.1376
     29 H4          3.6571   -5.3409    4.2784 H         1 <0>         0.1359
     30 H5          2.3804   -5.5305    2.2225 H         1 <0>         0.1096
     31 H6          3.1959   -5.5314    0.6404 H         1 <0>         0.1096
     32 H7          2.7493   -1.1041    1.6155 H         1 <0>         0.1029
     33 H8          2.8876    0.1235    0.3359 H         1 <0>         0.1006
     34 H9          0.9321    0.6274    2.5609 H         1 <0>         0.0781
     35 H10         2.6656    0.8076    2.9191 H         1 <0>         0.0925
     36 H11         1.2664    2.8578    1.9798 H         1 <0>         0.0759
     37 H12         2.9312    2.5736    1.4264 H         1 <0>         0.0743
     38 H13         2.0564    1.3397   -0.5432 H         1 <0>         0.0728
     39 H14         1.4408    3.0091   -0.4896 H         1 <0>         0.0851
     40 H15        -0.5456    1.8670   -0.8727 H         1 <0>         0.1025
     41 H16        -0.5286    1.8574    0.9071 H         1 <0>         0.1045
     42 H17        -0.8964   -5.4371   -0.4702 H         1 <0>         0.2059
@<TRIPOS>BOND
     1    1    6 ar
     2    1    2 ar
     3    1   26 1
     4    2    3 ar
     5    2   27 1
     6    3    4 ar
     7    3   25 1
     8    4    5 ar
     9    4   28 1
    10    5    6 ar
    11    5   29 1
    12    6    7 1
    13    7    8 1
    14    7   30 1
    15    7   31 1
    16    8    9 1
    17    9   24 ar
    18    9   10 ar
    19   10   14 1
    20   10   11 ar
    21   11   12 1
    22   11   22 ar
    23   12   13 2
    24   12   20 1
    25   13   19 1
    26   13   14 1
    27   14   15 1
    28   15   16 1
    29   15   32 1
    30   15   33 1
    31   16   17 1
    32   16   34 1
    33   16   35 1
    34   17   18 1
    35   17   36 1
    36   17   37 1
    37   18   19 1
    38   18   38 1
    39   18   39 1
    40   19   40 1
    41   19   41 1
    42   20   21 3
    43   22   23 ar
    44   23   24 ar
    45   23   42 1
@<TRIPOS>MOLECULE
ZINC00602632
   43    45     0     0     0
SMALL
USER_CHARGES
4-[6-amino-5-bromo-2-(4-cyanophenyl)amino-pyrimidin-4-yl]oxy-3,5-dimethyl-benzonitrile
@<TRIPOS>ATOM
      1 C1          2.3134    5.1441   -2.3257 C.3       1 <0>        -0.1194
      2 C2          2.1650    6.0648   -1.1419 C.ar      1 <0>        -0.0679
      3 C3          2.0573    7.4240   -1.3372 C.ar      1 <0>        -0.0684
      4 C4          1.9246    8.2774   -0.2384 C.ar      1 <0>        -0.0083
      5 C5          1.8968    7.7467    1.0542 C.ar      1 <0>        -0.0683
      6 C6          2.0002    6.3859    1.2402 C.ar      1 <0>        -0.0685
      7 C7          2.1316    5.5409    0.1448 C.ar      1 <0>         0.1103
      8 O1          2.2333    4.2001    0.3326 O.3       1 <0>        -0.2193
      9 C8          1.0899    3.4720    0.3545 C.ar      1 <0>         0.4551
     10 C9          1.1354    2.0957    0.5433 C.ar      1 <0>        -0.3292
     11 C10        -0.0649    1.3883    0.5582 C.ar      1 <0>         0.5268
     12 N1         -1.2073    2.0489    0.3872 N.ar      1 <0>        -0.6132
     13 C11        -1.2114    3.3619    0.2149 C.ar      1 <0>         0.6407
     14 N2         -0.0892    4.0653    0.1953 N.ar      1 <0>        -0.6238
     15 N3         -2.4211    4.0165    0.0458 N.pl3     1 <0>        -0.6282
     16 C12        -3.6023    3.2835   -0.0520 C.ar      1 <0>         0.1955
     17 C13        -3.5968    2.0375   -0.6717 C.ar      1 <0>        -0.1163
     18 C14        -4.7608    1.3086   -0.7658 C.ar      1 <0>        -0.0484
     19 C15        -5.9514    1.8260   -0.2470 C.ar      1 <0>        -0.0482
     20 C16        -5.9544    3.0804    0.3702 C.ar      1 <0>        -0.0454
     21 C17        -4.7857    3.8017    0.4651 C.ar      1 <0>        -0.1478
     22 C18        -7.1653    1.0730   -0.3480 C.1       1 <0>         0.2530
     23 N4         -8.1282    0.4756   -0.4280 N.1       1 <0>        -0.4174
     24 N5         -0.0686    0.0142    0.7430 N.pl3     1 <0>        -0.8164
     25 Br1         2.7871    1.2043    0.7739 Br        1 <0>        -0.0126
     26 C19         1.9704    5.8126    2.6336 C.3       1 <0>        -0.1138
     27 C20         1.8169    9.6915   -0.4365 C.1       1 <0>         0.2500
     28 N6          1.7314   10.8133   -0.5936 N.1       1 <0>        -0.4050
     29 H1          1.3270    4.8363   -2.6725 H         1 <0>         0.0752
     30 H2          2.8345    5.6656   -3.1285 H         1 <0>         0.0777
     31 H3          2.8861    4.2643   -2.0321 H         1 <0>         0.0754
     32 H4          2.0796    7.8301   -2.3377 H         1 <0>         0.1414
     33 H5          1.7940    8.4027    1.9060 H         1 <0>         0.1415
     34 H6         -2.4456    4.9849   -0.0044 H         1 <0>         0.4302
     35 H7         -2.6774    1.6403   -1.0759 H         1 <0>         0.1454
     36 H8         -4.7549    0.3397   -1.2429 H         1 <0>         0.1357
     37 H9         -6.8724    3.4832    0.7717 H         1 <0>         0.1377
     38 H10        -4.7872    4.7708    0.9417 H         1 <0>         0.1376
     39 H11         0.7683   -0.4613    0.8630 H         1 <0>         0.4184
     40 H12        -0.9081   -0.4717    0.7522 H         1 <0>         0.4158
     41 H13         2.9857    5.7595    3.0264 H         1 <0>         0.0828
     42 H14         1.3649    6.4515    3.2765 H         1 <0>         0.0752
     43 H15         1.5388    4.8120    2.6055 H         1 <0>         0.0644
@<TRIPOS>BOND
     1    1    2 1
     2    1   29 1
     3    1   30 1
     4    1   31 1
     5    2    7 ar
     6    2    3 ar
     7    3    4 ar
     8    3   32 1
     9    4    5 ar
    10    4   27 1
    11    5    6 ar
    12    5   33 1
    13    6    7 ar
    14    6   26 1
    15    7    8 1
    16    8    9 1
    17    9   14 ar
    18    9   10 ar
    19   10   11 ar
    20   10   25 1
    21   11   12 ar
    22   11   24 1
    23   12   13 ar
    24   13   14 ar
    25   13   15 1
    26   15   16 1
    27   15   34 1
    28   16   21 ar
    29   16   17 ar
    30   17   18 ar
    31   17   35 1
    32   18   19 ar
    33   18   36 1
    34   19   20 ar
    35   19   22 1
    36   20   21 ar
    37   20   37 1
    38   21   38 1
    39   22   23 3
    40   24   39 1
    41   24   40 1
    42   26   41 1
    43   26   42 1
    44   26   43 1
    45   27   28 3
@<TRIPOS>MOLECULE
ZINC03871832
   72    73     0     0     0
SMALL
USER_CHARGES

@<TRIPOS>ATOM
      1 C1          0.9796   -0.7261   -0.7860 C.3       1 <0>        -0.1860
      2 C2         -0.0152    0.0025    0.1197 C.3       1 <0>        -0.0821
      3 C3          0.1403    1.5135   -0.0635 C.3       1 <0>        -0.1739
      4 C4         -1.4406   -0.4121   -0.2508 C.3       1 <0>         0.0999
      5 C5         -2.4297    0.2428    0.7155 C.3       1 <0>        -0.1058
      6 C6         -2.1497   -0.2432    2.1390 C.3       1 <0>        -0.1601
      7 C7         -3.2174    0.3089    3.0856 C.3       1 <0>        -0.0092
      8 N1         -2.9486   -0.1577    4.4523 N.4       1 <0>        -0.3875
      9 C8         -1.6792    0.4121    4.9235 C.3       1 <0>        -0.0584
     10 C9         -4.0376    0.2722    5.3396 C.3       1 <0>        -0.0075
     11 C10        -3.8220   -0.3181    6.7346 C.3       1 <0>        -0.0949
     12 C11        -4.9392    0.1229    7.6448 C.ar      1 <0>        -0.1087
     13 C12        -4.8176    1.2949    8.3681 C.ar      1 <0>        -0.1027
     14 C13        -5.8396    1.7037    9.2044 C.ar      1 <0>        -0.1718
     15 C14        -6.9892    0.9387    9.3188 C.ar      1 <0>         0.1178
     16 C15        -7.1118   -0.2407    8.5904 C.ar      1 <0>         0.1063
     17 C16        -6.0857   -0.6423    7.7503 C.ar      1 <0>        -0.1660
     18 O1         -8.2381   -0.9950    8.6993 O.3       1 <0>        -0.3007
     19 C17        -8.2944   -2.1928    7.9221 C.3       1 <0>         0.0251
     20 O2         -7.9954    1.3392   10.1414 O.3       1 <0>        -0.3014
     21 C18        -7.8001    2.5598   10.8584 C.3       1 <0>         0.0228
     22 C19        -1.5644   -1.8762   -0.1622 C.1       1 <0>         0.2049
     23 N2         -1.6600   -3.0061   -0.0938 N.1       1 <0>        -0.4110
     24 C20        -1.7435    0.0334   -1.6582 C.ar      1 <0>        -0.0959
     25 C21        -0.7344    0.5473   -2.4513 C.ar      1 <0>        -0.1155
     26 C22        -1.0072    0.9574   -3.7430 C.ar      1 <0>        -0.1754
     27 C23        -2.2943    0.8533   -4.2457 C.ar      1 <0>         0.1177
     28 C24        -3.3099    0.3356   -3.4476 C.ar      1 <0>         0.1024
     29 C25        -3.0286   -0.0780   -2.1554 C.ar      1 <0>        -0.1606
     30 O3         -4.5746    0.2315   -3.9364 O.3       1 <0>        -0.3010
     31 C26        -5.5661   -0.3091   -3.0608 C.3       1 <0>         0.0257
     32 O4         -2.5644    1.2567   -5.5160 O.3       1 <0>        -0.3026
     33 C27        -1.4731    1.7782   -6.2770 C.3       1 <0>         0.0230
     34 H1          1.9192   -0.1742   -0.8118 H         1 <0>         0.0735
     35 H2          1.1578   -1.7288   -0.3974 H         1 <0>         0.0573
     36 H3          0.5706   -0.7945   -1.7940 H         1 <0>         0.0847
     37 H4          0.1807   -0.2595    1.1595 H         1 <0>         0.0819
     38 H5          1.1980    1.7758   -0.0365 H         1 <0>         0.0699
     39 H6         -0.2827    1.8085   -1.0238 H         1 <0>         0.0860
     40 H7         -0.3834    2.0327    0.7392 H         1 <0>         0.0583
     41 H8         -2.3165    1.3261    0.6725 H         1 <0>         0.1048
     42 H9         -3.4470   -0.0277    0.4327 H         1 <0>         0.0851
     43 H10        -2.1722   -1.3327    2.1619 H         1 <0>         0.0863
     44 H11        -1.1672    0.1067    2.4557 H         1 <0>         0.0987
     45 H12        -3.1950    1.3985    3.0627 H         1 <0>         0.1352
     46 H13        -4.1999   -0.0410    2.7689 H         1 <0>         0.1315
     47 H14        -1.7449    1.5001    4.9174 H         1 <0>         0.1255
     48 H15        -1.4798    0.0659    5.9377 H         1 <0>         0.1262
     49 H16        -0.8712    0.0931    4.2652 H         1 <0>         0.1253
     50 H17        -4.0466    1.3603    5.4029 H         1 <0>         0.1334
     51 H18        -4.9902   -0.0764    4.9408 H         1 <0>         0.1311
     52 H19        -3.8131   -1.4062    6.6713 H         1 <0>         0.0933
     53 H20        -2.8694    0.0305    7.1334 H         1 <0>         0.0969
     54 H21        -3.9221    1.8921    8.2799 H         1 <0>         0.1289
     55 H22        -5.7419    2.6193    9.7689 H         1 <0>         0.1421
     56 H23        -6.1798   -1.5552    7.1810 H         1 <0>         0.1365
     57 H24        -9.2433   -2.6982    8.1016 H         1 <0>         0.1072
     58 H25        -8.2097   -1.9439    6.8643 H         1 <0>         0.0540
     59 H26        -7.4730   -2.8501    8.2075 H         1 <0>         0.0565
     60 H27        -6.9196    2.4706   11.4946 H         1 <0>         0.0592
     61 H28        -7.6565    3.3773   10.1518 H         1 <0>         0.0584
     62 H29        -8.6753    2.7626   11.4756 H         1 <0>         0.1079
     63 H30         0.2692    0.6290   -2.0607 H         1 <0>         0.1622
     64 H31        -0.2172    1.3591   -4.3602 H         1 <0>         0.1426
     65 H32        -3.8143   -0.4836   -1.5352 H         1 <0>         0.1332
     66 H33        -6.5276   -0.3368   -3.5736 H         1 <0>         0.1053
     67 H34        -5.2809   -1.3198   -2.7688 H         1 <0>         0.0536
     68 H35        -5.6462    0.3169   -2.1721 H         1 <0>         0.0535
     69 H36        -1.0639    2.6536   -5.7725 H         1 <0>         0.0586
     70 H37        -0.6983    1.0171   -6.3698 H         1 <0>         0.0583
     71 H38        -1.8246    2.0618   -7.2690 H         1 <0>         0.1059
     72 H39        -2.8878   -1.1648    4.4580 H         1 <0>         0.4246
@<TRIPOS>BOND
     1    1    2 1
     2    1   34 1
     3    1   35 1
     4    1   36 1
     5    2    3 1
     6    2    4 1
     7    2   37 1
     8    3   38 1
     9    3   39 1
    10    3   40 1
    11    4    5 1
    12    4   22 1
    13    4   24 1
    14    5    6 1
    15    5   41 1
    16    5   42 1
    17    6    7 1
    18    6   43 1
    19    6   44 1
    20    7    8 1
    21    7   45 1
    22    7   46 1
    23    8    9 1
    24    8   10 1
    25    8   72 1
    26    9   47 1
    27    9   48 1
    28    9   49 1
    29   10   11 1
    30   10   50 1
    31   10   51 1
    32   11   12 1
    33   11   52 1
    34   11   53 1
    35   12   17 ar
    36   12   13 ar
    37   13   14 ar
    38   13   54 1
    39   14   15 ar
    40   14   55 1
    41   15   16 ar
    42   15   20 1
    43   16   17 ar
    44   16   18 1
    45   17   56 1
    46   18   19 1
    47   19   57 1
    48   19   58 1
    49   19   59 1
    50   20   21 1
    51   21   60 1
    52   21   61 1
    53   21   62 1
    54   22   23 3
    55   24   29 ar
    56   24   25 ar
    57   25   26 ar
    58   25   63 1
    59   26   27 ar
    60   26   64 1
    61   27   28 ar
    62   27   32 1
    63   28   29 ar
    64   28   30 1
    65   29   65 1
    66   30   31 1
    67   31   66 1
    68   31   67 1
    69   31   68 1
    70   32   33 1
    71   33   69 1
    72   33   70 1
    73   33   71 1
@<TRIPOS>MOLECULE
ZINC00608205
   33    35     0     0     0
SMALL
USER_CHARGES

@<TRIPOS>ATOM
      1 C1          0.0013    1.5540    0.0149 C.3       1 <0>        -0.1498
      2 C2          0.0087    0.0240    0.0139 C.3       1 <0>        -0.0544
      3 C3          0.7037   -0.4743   -1.2269 C.2       1 <0>         0.0747
      4 C4          2.0374   -0.7340   -1.3268 C.2       1 <0>        -0.2231
      5 C5          2.2519   -1.1942   -2.7135 C.ar      1 <0>        -0.0957
      6 C6          3.3654   -1.6063   -3.4381 C.ar      1 <0>        -0.0678
      7 C7          3.2197   -1.9832   -4.7561 C.ar      1 <0>        -0.1331
      8 C8          1.9701   -1.9517   -5.3565 C.ar      1 <0>        -0.0979
      9 C9          0.8599   -1.5449   -4.6477 C.ar      1 <0>        -0.1064
     10 C10         0.9871   -1.1613   -3.3181 C.ar      1 <0>         0.0500
     11 O1          0.1025   -0.7332   -2.3937 O.3       1 <0>        -0.1854
     12 C11         3.0520   -0.5864   -0.2735 C.2       1 <0>         0.4838
     13 O2          3.7030    0.4388   -0.1950 O.2       1 <0>        -0.4766
     14 C12         3.2812   -1.6817    0.6893 C.ar      1 <0>        -0.3045
     15 C13         2.6215   -2.9037    0.5304 C.ar      1 <0>         0.0258
     16 C14         2.8384   -3.9238    1.4308 C.ar      1 <0>        -0.2251
     17 C15         3.7123   -3.7389    2.4965 C.ar      1 <0>         0.3304
     18 C16         4.3701   -2.5244    2.6583 C.ar      1 <0>        -0.2272
     19 C17         4.1628   -1.5015    1.7588 C.ar      1 <0>         0.0328
     20 Br1         5.5567   -2.2793    4.1101 Br        1 <0>        -0.0777
     21 O3          3.9234   -4.7462    3.3815 O.3       1 <0>        -0.6374
     22 Br2         1.9461   -5.5773    1.2173 Br        1 <0>        -0.0788
     23 H1          1.0271    1.9222    0.0003 H         1 <0>         0.0645
     24 H2         -0.5270    1.9153   -0.8674 H         1 <0>         0.0583
     25 H3         -0.5014    1.9144    0.9124 H         1 <0>         0.0696
     26 H4          0.5370   -0.3373    0.8962 H         1 <0>         0.1036
     27 H5         -1.0171   -0.3443    0.0285 H         1 <0>         0.0898
     28 H6          4.3388   -1.6306   -2.9708 H         1 <0>         0.1283
     29 H7          4.0814   -2.3036   -5.3229 H         1 <0>         0.1300
     30 H8          1.8656   -2.2484   -6.3896 H         1 <0>         0.1338
     31 H9         -0.1084   -1.5240   -5.1257 H         1 <0>         0.1308
     32 H10         1.9424   -3.0479   -0.2969 H         1 <0>         0.1136
     33 H11         4.6777   -0.5602    1.8823 H         1 <0>         0.1213
@<TRIPOS>BOND
     1    1    2 1
     2    1   23 1
     3    1   24 1
     4    1   25 1
     5    2    3 1
     6    2   26 1
     7    2   27 1
     8    3   11 1
     9    3    4 2
    10    4    5 1
    11    4   12 1
    12    5   10 ar
    13    5    6 ar
    14    6    7 ar
    15    6   28 1
    16    7    8 ar
    17    7   29 1
    18    8    9 ar
    19    8   30 1
    20    9   10 ar
    21    9   31 1
    22   10   11 1
    23   12   13 2
    24   12   14 1
    25   14   19 ar
    26   14   15 ar
    27   15   16 ar
    28   15   32 1
    29   16   17 ar
    30   16   22 1
    31   17   18 ar
    32   17   21 1
    33   18   19 ar
    34   18   20 1
    35   19   33 1
@<TRIPOS>MOLECULE
ZINC00608205
   34    36     0     0     0
SMALL
USER_CHARGES

@<TRIPOS>ATOM
      1 C1         -0.0255    1.5538   -0.0092 C.3       1 <0>        -0.1535
      2 C2          0.0084    0.0241   -0.0098 C.3       1 <0>        -0.0596
      3 C3         -1.4008   -0.5096    0.0105 C.2       1 <0>         0.0993
      4 C4         -2.1472   -0.7920   -1.0938 C.2       1 <0>        -0.2565
      5 C5         -3.4435   -1.2831   -0.5846 C.ar      1 <0>        -0.0966
      6 C6         -4.6170   -1.7270   -1.1853 C.ar      1 <0>        -0.0761
      7 C7         -5.6759   -2.1278   -0.3988 C.ar      1 <0>        -0.1238
      8 C8         -5.5720   -2.0888    0.9835 C.ar      1 <0>        -0.0916
      9 C9         -4.4137   -1.6507    1.5892 C.ar      1 <0>        -0.0999
     10 C10        -3.3358   -1.2427    0.8129 C.ar      1 <0>         0.0522
     11 O1         -2.1041   -0.7825    1.1153 O.3       1 <0>        -0.1780
     12 C11        -1.7459   -0.6392   -2.4996 C.2       1 <0>         0.4828
     13 O2         -2.0291    0.3771   -3.1061 O.2       1 <0>        -0.4225
     14 C12        -0.9994   -1.7185   -3.1756 C.ar      1 <0>        -0.1641
     15 C13        -0.7767   -2.9330   -2.5206 C.ar      1 <0>        -0.0068
     16 C14        -0.0799   -3.9382   -3.1550 C.ar      1 <0>        -0.1316
     17 C15         0.4016   -3.7456   -4.4453 C.ar      1 <0>         0.1999
     18 C16         0.1824   -2.5386   -5.1001 C.ar      1 <0>        -0.1315
     19 C17        -0.5185   -1.5307   -4.4744 C.ar      1 <0>        -0.0027
     20 Br1         0.8403   -2.2829   -6.8544 Br        1 <0>        -0.0091
     21 O3          1.0876   -4.7382   -5.0670 O.3       1 <0>        -0.4704
     22 Br2         0.2227   -5.5815   -2.2697 Br        1 <0>        -0.0103
     23 H1          0.9937    1.9398   -0.0238 H         1 <0>         0.0749
     24 H2         -0.5600    1.9056   -0.8916 H         1 <0>         0.0641
     25 H3         -0.5345    1.9056    0.8882 H         1 <0>         0.0646
     26 H4          0.5173   -0.3277   -0.9071 H         1 <0>         0.0979
     27 H5          0.5429   -0.3277    0.8726 H         1 <0>         0.0974
     28 H6         -4.6982   -1.7571   -2.2618 H         1 <0>         0.1271
     29 H7         -6.5892   -2.4729   -0.8606 H         1 <0>         0.1343
     30 H8         -6.4069   -2.4045    1.5915 H         1 <0>         0.1396
     31 H9         -4.3442   -1.6243    2.6666 H         1 <0>         0.1364
     32 H10        -1.1499   -3.0832   -1.5183 H         1 <0>         0.1510
     33 H11        -0.6925   -0.5953   -4.9854 H         1 <0>         0.1572
     34 H12         0.5302   -5.3422   -5.5766 H         1 <0>         0.4058
@<TRIPOS>BOND
     1    1    2 1
     2    1   23 1
     3    1   24 1
     4    1   25 1
     5    2    3 1
     6    2   26 1
     7    2   27 1
     8    3   11 1
     9    3    4 2
    10    4    5 1
    11    4   12 1
    12    5   10 ar
    13    5    6 ar
    14    6    7 ar
    15    6   28 1
    16    7    8 ar
    17    7   29 1
    18    8    9 ar
    19    8   30 1
    20    9   10 ar
    21    9   31 1
    22   10   11 1
    23   12   13 2
    24   12   14 1
    25   14   19 ar
    26   14   15 ar
    27   15   16 ar
    28   15   32 1
    29   16   17 ar
    30   16   22 1
    31   17   18 ar
    32   17   21 1
    33   18   19 ar
    34   18   20 1
    35   19   33 1
    36   21   34 1
@<TRIPOS>MOLECULE
ZINC03869685
   32    34     0     0     0
SMALL
USER_CHARGES

@<TRIPOS>ATOM
      1 C1          0.9741   -0.2755   -0.9644 C.ar      1 <0>        -0.0748
      2 C2          2.1569    0.4329   -0.9701 C.ar      1 <0>        -0.1346
      3 C3          2.3856    1.4156   -0.0177 C.ar      1 <0>         0.1032
      4 C4          1.4203    1.6918    0.9495 C.ar      1 <0>         0.0788
      5 C5          0.2328    0.9863    0.9617 C.ar      1 <0>        -0.0762
      6 C6          0.0021   -0.0041    0.0020 C.ar      1 <0>        -0.0447
      7 C7         -1.2637   -0.7605    0.0100 C.2       1 <0>         0.1350
      8 C8         -2.4363   -0.0759    0.1235 C.2       1 <0>        -0.0429
      9 C9         -3.6628   -0.7894    0.1327 C.2       1 <0>         0.4011
     10 O1         -4.7327   -0.2102    0.2323 O.2       1 <0>        -0.4484
     11 C10        -3.5946   -2.2549    0.0170 C.ar      1 <0>        -0.2690
     12 C11        -4.7561   -3.0387    0.0170 C.ar      1 <0>         0.2244
     13 C12        -4.6504   -4.4123   -0.0941 C.ar      1 <0>        -0.2081
     14 C13        -3.3994   -5.0103   -0.2044 C.ar      1 <0>         0.2000
     15 C14        -2.2463   -4.2416   -0.2047 C.ar      1 <0>        -0.1854
     16 C15        -2.3316   -2.8618   -0.0952 C.ar      1 <0>         0.1876
     17 O2         -1.2182   -2.0992   -0.1003 O.3       1 <0>        -0.1970
     18 O3         -3.3070   -6.3605   -0.3125 O.3       1 <0>        -0.4866
     19 O4         -5.9758   -2.4535    0.1257 O.3       1 <0>        -0.4726
     20 O5         -2.4312    1.2810    0.2275 O.3       1 <0>        -0.4502
     21 O6          1.6480    2.6557    1.8815 O.3       1 <0>        -0.4836
     22 O7          3.5534    2.1101   -0.0273 O.3       1 <0>        -0.4861
     23 H1          0.7971   -1.0371   -1.7094 H         1 <0>         0.1379
     24 H2          2.9075    0.2221   -1.7176 H         1 <0>         0.1421
     25 H3         -0.5155    1.1988    1.7108 H         1 <0>         0.1429
     26 H4         -5.5413   -5.0229   -0.0948 H         1 <0>         0.1515
     27 H5         -1.2805   -4.7174   -0.2903 H         1 <0>         0.1559
     28 H6         -3.3257   -6.6843   -1.2235 H         1 <0>         0.4050
     29 H7         -6.3751   -2.2160   -0.7224 H         1 <0>         0.4036
     30 H8         -3.3120    1.6729    0.3033 H         1 <0>         0.4079
     31 H9          1.3508    3.5370    1.6166 H         1 <0>         0.3905
     32 H10         3.5287    2.9137   -0.5647 H         1 <0>         0.3924
@<TRIPOS>BOND
     1    1    6 ar
     2    1    2 ar
     3    1   23 1
     4    2    3 ar
     5    2   24 1
     6    3    4 ar
     7    3   22 1
     8    4    5 ar
     9    4   21 1
    10    5    6 ar
    11    5   25 1
    12    6    7 1
    13    7   17 1
    14    7    8 2
    15    8    9 1
    16    8   20 1
    17    9   10 2
    18    9   11 1
    19   11   16 ar
    20   11   12 ar
    21   12   13 ar
    22   12   19 1
    23   13   14 ar
    24   13   26 1
    25   14   15 ar
    26   14   18 1
    27   15   16 ar
    28   15   27 1
    29   16   17 1
    30   18   28 1
    31   19   29 1
    32   20   30 1
    33   21   31 1
    34   22   32 1
@<TRIPOS>MOLECULE
ZINC03869685
   31    33     0     0     0
SMALL
USER_CHARGES

@<TRIPOS>ATOM
      1 C1          0.1390    1.1246   -0.8120 C.ar      1 <0>        -0.0626
      2 C2          1.3229    1.8301   -0.8179 C.ar      1 <0>        -0.1333
      3 C3          2.3812    1.4233   -0.0172 C.ar      1 <0>         0.0878
      4 C4          2.2522    0.2984    0.7970 C.ar      1 <0>         0.0757
      5 C5          1.0694   -0.4139    0.8086 C.ar      1 <0>        -0.0997
      6 C6          0.0021   -0.0041    0.0020 C.ar      1 <0>        -0.0194
      7 C7         -1.2620   -0.7597    0.0100 C.2       1 <0>         0.1007
      8 C8         -2.4587   -0.0763    0.1245 C.2       1 <0>        -0.0038
      9 C9         -3.6655   -0.7872    0.1324 C.2       1 <0>         0.3349
     10 C10        -3.6167   -2.1939    0.0219 C.2       1 <0>        -0.3331
     11 C11        -4.8018   -2.9593    0.0240 C.2       1 <0>         0.2664
     12 C12        -4.7326   -4.3182   -0.0844 C.2       1 <0>        -0.3749
     13 C13        -3.4871   -4.9570   -0.1979 C.2       1 <0>         0.3648
     14 O1         -3.4307   -6.2860   -0.3033 O.2       1 <0>        -0.6598
     15 C14        -2.3054   -4.2086   -0.2016 C.2       1 <0>        -0.3143
     16 C15        -2.3616   -2.8325   -0.0921 C.2       1 <0>         0.2118
     17 O2         -1.2290   -2.0988   -0.0996 O.3       1 <0>        -0.2018
     18 O3         -6.0073   -2.3463    0.1339 O.3       1 <0>        -0.4482
     19 O4         -4.8484   -0.1420    0.2437 O.3       1 <0>        -0.5747
     20 O5         -2.4638    1.2803    0.2294 O.3       1 <0>        -0.4649
     21 O6          3.2919   -0.0973    1.5794 O.3       1 <0>        -0.4856
     22 O7          3.5458    2.1225   -0.0269 O.3       1 <0>        -0.4881
     23 H1         -0.6843    1.4460   -1.4327 H         1 <0>         0.1397
     24 H2          1.4276    2.7014   -1.4473 H         1 <0>         0.1381
     25 H3          0.9685   -1.2854    1.4384 H         1 <0>         0.1410
     26 H4         -5.6395   -4.9047   -0.0825 H         1 <0>         0.1180
     27 H5         -1.3506   -4.7057   -0.2895 H         1 <0>         0.1230
     28 H6         -6.7597   -2.9537    0.1258 H         1 <0>         0.3847
     29 H7         -3.3475    1.6656    0.3047 H         1 <0>         0.4058
     30 H8          3.2925    0.2977    2.4620 H         1 <0>         0.3855
     31 H9          3.5825    2.8346    0.6263 H         1 <0>         0.3863
@<TRIPOS>BOND
     1    1    6 ar
     2    1    2 ar
     3    1   23 1
     4    2    3 ar
     5    2   24 1
     6    3    4 ar
     7    3   22 1
     8    4    5 ar
     9    4   21 1
    10    5    6 ar
    11    5   25 1
    12    6    7 1
    13    7   17 1
    14    7    8 2
    15    8    9 1
    16    8   20 1
    17    9   10 2
    18    9   19 1
    19   10   16 1
    20   10   11 1
    21   11   12 2
    22   11   18 1
    23   12   13 1
    24   12   26 1
    25   13   14 2
    26   13   15 1
    27   15   16 2
    28   15   27 1
    29   16   17 1
    30   18   28 1
    31   20   29 1
    32   21   30 1
    33   22   31 1
@<TRIPOS>MOLECULE
ZINC40524285
   38    39     0     0     0
SMALL
USER_CHARGES

@<TRIPOS>ATOM
      1 C1          0.0083    1.3771    0.8549 C.3       1 <0>        -0.1690
      2 C2          0.0155    0.0690    0.0613 C.3       1 <0>         0.0971
      3 N1          0.6219   -0.9903    0.8715 N.am      1 <0>        -0.6267
      4 C3         -0.2159   -1.8124    1.7481 C.3       1 <0>         0.1306
      5 C4         -0.7115   -3.0379    0.9776 C.3       1 <0>        -0.1689
      6 C5          1.9504   -1.2086    0.8103 C.2       1 <0>         0.6999
      7 O1          2.4536   -2.0878    1.4826 O.2       1 <0>        -0.5877
      8 N2          2.7212   -0.4523    0.0038 N.am      1 <0>        -0.6591
      9 C6          4.1075   -0.5949    0.0302 C.ar      1 <0>         0.2109
     10 C7          4.7177   -1.0609    1.1591 C.ar      1 <0>        -0.1617
     11 C8          6.1139   -1.2072    1.1933 C.ar      1 <0>        -0.0252
     12 C9          6.7630   -1.6853    2.3453 C.ar      1 <0>        -0.1095
     13 C10         8.1174   -1.8177    2.3509 C.ar      1 <0>        -0.1235
     14 C11         8.8765   -1.4863    1.2295 C.ar      1 <0>        -0.1426
     15 C12         8.2851   -1.0201    0.0964 C.ar      1 <0>        -0.0915
     16 C13         6.8866   -0.8698    0.0514 C.ar      1 <0>        -0.0814
     17 C14         6.2483   -0.3930   -1.1016 C.ar      1 <0>        -0.0565
     18 C15         4.8673   -0.2613   -1.1138 C.ar      1 <0>        -0.1612
     19 C16         4.1900    0.2336   -2.3234 C.2       1 <0>         0.5299
     20 O2          4.8327    0.4378   -3.3441 O.co2     1 <0>        -0.6739
     21 O3          2.9843    0.4407   -2.3080 O.co2     1 <0>        -0.6883
     22 H1          1.0317    1.6541    1.1082 H         1 <0>         0.0580
     23 H2         -0.4428    2.1653    0.2522 H         1 <0>         0.0677
     24 H3         -0.5690    1.2438    1.7698 H         1 <0>         0.0545
     25 H4         -1.0078   -0.2079   -0.1919 H         1 <0>         0.0785
     26 H5          0.5929    0.2023   -0.8536 H         1 <0>         0.0911
     27 H6          0.3681   -2.1365    2.6095 H         1 <0>         0.0820
     28 H7         -1.0703   -1.2269    2.0879 H         1 <0>         0.0725
     29 H8         -1.3348   -3.6495    1.6299 H         1 <0>         0.0616
     30 H9         -1.2955   -2.7138    0.1163 H         1 <0>         0.0537
     31 H10         0.1429   -3.6233    0.6379 H         1 <0>         0.0603
     32 H11         2.3111    0.1912   -0.5951 H         1 <0>         0.4267
     33 H12         4.1266   -1.3165    2.0261 H         1 <0>         0.1464
     34 H13         6.1890   -1.9460    3.2222 H         1 <0>         0.1197
     35 H14         8.6120   -2.1850    3.2380 H         1 <0>         0.1138
     36 H15         9.9499   -1.6009    1.2609 H         1 <0>         0.1141
     37 H16         8.8860   -0.7667   -0.7645 H         1 <0>         0.1219
     38 H17         6.8271   -0.1335   -1.9757 H         1 <0>         0.1361
@<TRIPOS>BOND
     1    1    2 1
     2    1   22 1
     3    1   23 1
     4    1   24 1
     5    2    3 1
     6    2   25 1
     7    2   26 1
     8    3    4 1
     9    3    6 am
    10    4    5 1
    11    4   27 1
    12    4   28 1
    13    5   29 1
    14    5   30 1
    15    5   31 1
    16    6    7 2
    17    6    8 am
    18    8    9 1
    19    8   32 1
    20    9   18 ar
    21    9   10 ar
    22   10   11 ar
    23   10   33 1
    24   11   16 ar
    25   11   12 ar
    26   12   13 ar
    27   12   34 1
    28   13   14 ar
    29   13   35 1
    30   14   15 ar
    31   14   36 1
    32   15   16 ar
    33   15   37 1
    34   16   17 ar
    35   17   18 ar
    36   17   38 1
    37   18   19 1
    38   19   20 2
    39   19   21 1
@<TRIPOS>MOLECULE
ZINC43074932
   29    29     0     0     0
SMALL
USER_CHARGES

@<TRIPOS>ATOM
      1 C1         -0.0968    1.5203    0.0572 C.3       1 <0>        -0.1702
      2 C2         -0.0080   -0.0064    0.0082 C.3       1 <0>         0.1014
      3 N1          0.6913   -0.4159   -1.2123 N.am      1 <0>        -0.6265
      4 C3          2.1475   -0.5762   -1.2034 C.3       1 <0>         0.1296
      5 C4          2.4998   -2.0160   -0.8245 C.3       1 <0>        -0.1683
      6 C5         -0.0051   -0.6452   -2.3432 C.2       1 <0>         0.7040
      7 O1          0.5752   -0.9851   -3.3560 O.2       1 <0>        -0.5822
      8 N2         -1.3447   -0.4978   -2.3513 N.am      1 <0>        -0.6456
      9 C6         -2.0533   -0.6326   -3.5436 C.2       1 <0>         0.1697
     10 C7         -1.4597   -1.0729   -4.7088 C.2       1 <0>        -0.2064
     11 C8         -2.2103   -1.1797   -5.8309 C.2       1 <0>        -0.2559
     12 S1         -3.7453   -0.6901   -5.3565 S.3       1 <0>         0.2000
     13 C9         -3.4159   -0.3367   -3.6406 C.2       1 <0>        -0.2280
     14 C10        -4.2988    0.1231   -2.6427 C.2       1 <0>         0.5065
     15 O2         -3.8538    0.3315   -1.4042 O.co2     1 <0>        -0.7010
     16 O3         -5.5782    0.3493   -2.9378 O.co2     1 <0>        -0.6937
     17 H1          0.9079    1.9429    0.0549 H         1 <0>         0.0544
     18 H2         -0.6445    1.8805   -0.8136 H         1 <0>         0.0628
     19 H3         -0.6170    1.8250    0.9653 H         1 <0>         0.0697
     20 H4          0.5398   -0.3666    0.8790 H         1 <0>         0.0806
     21 H5         -1.0127   -0.4290    0.0105 H         1 <0>         0.0816
     22 H6          2.5435   -0.3540   -2.1943 H         1 <0>         0.0832
     23 H7          2.5839    0.1081   -0.4759 H         1 <0>         0.0745
     24 H8          2.1038   -2.2382    0.1664 H         1 <0>         0.0536
     25 H9          2.0633   -2.7004   -1.5520 H         1 <0>         0.0598
     26 H10         3.5832   -2.1353   -0.8179 H         1 <0>         0.0630
     27 H11        -1.8156   -0.2978   -1.5272 H         1 <0>         0.4276
     28 H12        -0.4106   -1.3286   -4.7258 H         1 <0>         0.1781
     29 H13        -1.8933   -1.5061   -6.8103 H         1 <0>         0.1780
@<TRIPOS>BOND
     1    1    2 1
     2    1   17 1
     3    1   18 1
     4    1   19 1
     5    2    3 1
     6    2   20 1
     7    2   21 1
     8    3    4 1
     9    3    6 am
    10    4    5 1
    11    4   22 1
    12    4   23 1
    13    5   24 1
    14    5   25 1
    15    5   26 1
    16    6    7 2
    17    6    8 am
    18    8    9 1
    19    8   27 1
    20    9   13 2
    21    9   10 1
    22   10   11 2
    23   10   28 1
    24   11   12 1
    25   11   29 1
    26   12   13 1
    27   13   14 1
    28   14   15 2
    29   14   16 1
@<TRIPOS>MOLECULE
ZINC34401307
   39    40     0     0     0
SMALL
USER_CHARGES

@<TRIPOS>ATOM
      1 C1         -0.0187    1.5258    0.0104 C.3       1 <0>        -0.1686
      2 C2          0.0021   -0.0041    0.0020 C.3       1 <0>         0.1302
      3 N1          0.6878   -0.4765   -1.2033 N.am      1 <0>        -0.6234
      4 C3          2.1353   -0.7012   -1.1821 C.3       1 <0>         0.0997
      5 C4          2.4212   -2.1448   -0.7635 C.3       1 <0>        -0.1711
      6 C5         -0.0130   -0.7045   -2.3317 C.2       1 <0>         0.6942
      7 O1         -1.2143   -0.5180   -2.3494 O.2       1 <0>        -0.5717
      8 N2          0.6178   -1.1391   -3.4406 N.am      1 <0>        -0.6134
      9 C6         -0.1022   -1.3733   -4.5998 C.2       1 <0>         0.0662
     10 C7          0.3737   -1.8242   -5.8248 C.2       1 <0>        -0.2460
     11 C8         -0.5992   -1.9894   -6.8930 C.2       1 <0>        -0.0338
     12 C9         -1.8634   -1.6747   -6.5424 C.2       1 <0>        -0.2706
     13 S1         -1.7524   -1.1847   -4.8464 S.3       1 <0>         0.2049
     14 C10        -3.0806   -1.7375   -7.4129 C.3       1 <0>        -0.0201
     15 C11        -2.6230   -1.8529   -8.8743 C.3       1 <0>        -0.1123
     16 C12        -1.5529   -2.9439   -8.9738 C.3       1 <0>        -0.1207
     17 C13        -0.2643   -2.4723   -8.2966 C.3       1 <0>        -0.0469
     18 C14         1.7475   -2.1102   -6.0248 C.2       1 <0>         0.5392
     19 O2          2.5442   -1.9616   -5.1061 O.co2     1 <0>        -0.7116
     20 O3          2.1382   -2.5060   -7.1164 O.co2     1 <0>        -0.6860
     21 H1          1.0039    1.9031    0.0027 H         1 <0>         0.0536
     22 H2         -0.5459    1.8868   -0.8726 H         1 <0>         0.0607
     23 H3         -0.5289    1.8773    0.9072 H         1 <0>         0.0638
     24 H4          0.5293   -0.3651    0.8851 H         1 <0>         0.0752
     25 H5         -1.0205   -0.3814    0.0098 H         1 <0>         0.0844
     26 H6          2.5453   -0.5232   -2.1762 H         1 <0>         0.0829
     27 H7          2.5986   -0.0180   -0.4703 H         1 <0>         0.0824
     28 H8          2.0113   -2.3228    0.2307 H         1 <0>         0.0561
     29 H9          1.9579   -2.8280   -1.4752 H         1 <0>         0.0612
     30 H10         3.4982   -2.3119   -0.7477 H         1 <0>         0.0703
     31 H11         1.5762   -1.2879   -3.4265 H         1 <0>         0.4311
     32 H12        -3.6790   -2.6084   -7.1454 H         1 <0>         0.0680
     33 H13        -3.6719   -0.8311   -7.2836 H         1 <0>         0.0674
     34 H14        -3.4732   -2.1170   -9.5033 H         1 <0>         0.0613
     35 H15        -2.2055   -0.9010   -9.2025 H         1 <0>         0.0631
     36 H16        -1.9108   -3.8481   -8.4813 H         1 <0>         0.0584
     37 H17        -1.3524   -3.1599  -10.0232 H         1 <0>         0.0595
     38 H18         0.1720   -1.6545   -8.8702 H         1 <0>         0.0684
     39 H19         0.4429   -3.2998   -8.2395 H         1 <0>         0.0940
@<TRIPOS>BOND
     1    1    2 1
     2    1   21 1
     3    1   22 1
     4    1   23 1
     5    2    3 1
     6    2   24 1
     7    2   25 1
     8    3    4 1
     9    3    6 am
    10    4    5 1
    11    4   26 1
    12    4   27 1
    13    5   28 1
    14    5   29 1
    15    5   30 1
    16    6    7 2
    17    6    8 am
    18    8    9 1
    19    8   31 1
    20    9   13 1
    21    9   10 2
    22   10   11 1
    23   10   18 1
    24   11   17 1
    25   11   12 2
    26   12   13 1
    27   12   14 1
    28   14   15 1
    29   14   32 1
    30   14   33 1
    31   15   16 1
    32   15   34 1
    33   15   35 1
    34   16   17 1
    35   16   36 1
    36   16   37 1
    37   17   38 1
    38   17   39 1
    39   18   19 2
    40   18   20 1
@<TRIPOS>MOLECULE
ZINC05733652
   34    36     0     0     0
SMALL
USER_CHARGES

@<TRIPOS>ATOM
      1 C1         -0.0173    1.4248    0.0099 C.3       1 <0>         0.0204
      2 O1          0.0021   -0.0041    0.0020 O.3       1 <0>        -0.3009
      3 C2         -1.1998   -0.6372    0.0101 C.ar      1 <0>         0.1329
      4 C3         -2.3731    0.1045    0.0195 C.ar      1 <0>        -0.1985
      5 C4         -3.5950   -0.5328    0.0272 C.ar      1 <0>        -0.0427
      6 C5         -3.6547   -1.9290    0.0257 C.ar      1 <0>        -0.0986
      7 C6         -2.4733   -2.6757    0.0162 C.ar      1 <0>        -0.0652
      8 C7         -1.2520   -2.0301    0.0031 C.ar      1 <0>         0.0727
      9 O2         -0.1005   -2.7536   -0.0113 O.3       1 <0>        -0.4813
     10 C8         -4.9616   -2.6131    0.0345 C.2       1 <0>         0.2155
     11 C9         -6.0942   -1.8598    0.0384 C.2       1 <0>        -0.3157
     12 C10        -7.3568   -2.4986    0.0463 C.2       1 <0>         0.4232
     13 O3         -8.3933   -1.8543    0.0497 O.2       1 <0>        -0.4551
     14 C11        -7.3713   -3.9712    0.0499 C.ar      1 <0>        -0.2658
     15 C12        -8.5754   -4.6866    0.0567 C.ar      1 <0>         0.2189
     16 C13        -8.5462   -6.0688    0.0589 C.ar      1 <0>        -0.2050
     17 C14        -7.3292   -6.7419    0.0543 C.ar      1 <0>         0.1921
     18 C15        -6.1338   -6.0401    0.0481 C.ar      1 <0>        -0.1829
     19 C16        -6.1428   -4.6539    0.0453 C.ar      1 <0>         0.1832
     20 O4         -4.9878   -3.9553    0.0327 O.3       1 <0>        -0.2184
     21 O5         -7.3118   -8.0993    0.0565 O.3       1 <0>        -0.4873
     22 O6         -9.7619   -4.0278    0.0616 O.3       1 <0>        -0.4723
     23 H1          1.0053    1.8021    0.0021 H         1 <0>         0.1065
     24 H2         -0.5445    1.7859   -0.8732 H         1 <0>         0.0609
     25 H3         -0.5275    1.7763    0.9067 H         1 <0>         0.0606
     26 H4         -2.3283    1.1836    0.0211 H         1 <0>         0.1454
     27 H5         -4.5063    0.0467    0.0349 H         1 <0>         0.1434
     28 H6         -2.5151   -3.7549    0.0149 H         1 <0>         0.1495
     29 H7          0.2406   -2.9675    0.8679 H         1 <0>         0.3912
     30 H8         -6.0303   -0.7817    0.0359 H         1 <0>         0.1630
     31 H9         -9.4707   -6.6271    0.0645 H         1 <0>         0.1500
     32 H10        -5.1948   -6.5737    0.0450 H         1 <0>         0.1535
     33 H11        -7.3109   -8.4940   -0.8262 H         1 <0>         0.4037
     34 H12       -10.1101   -3.8381   -0.8204 H         1 <0>         0.4030
@<TRIPOS>BOND
     1    1    2 1
     2    1   23 1
     3    1   24 1
     4    1   25 1
     5    2    3 1
     6    3    8 ar
     7    3    4 ar
     8    4    5 ar
     9    4   26 1
    10    5    6 ar
    11    5   27 1
    12    6    7 ar
    13    6   10 1
    14    7    8 ar
    15    7   28 1
    16    8    9 1
    17    9   29 1
    18   10   20 1
    19   10   11 2
    20   11   12 1
    21   11   30 1
    22   12   13 2
    23   12   14 1
    24   14   19 ar
    25   14   15 ar
    26   15   16 ar
    27   15   22 1
    28   16   17 ar
    29   16   31 1
    30   17   18 ar
    31   17   21 1
    32   18   19 ar
    33   18   32 1
    34   19   20 1
    35   21   33 1
    36   22   34 1
@<TRIPOS>MOLECULE
ZINC00156701
   32    34     0     0     0
SMALL
USER_CHARGES

@<TRIPOS>ATOM
      1 C1         -0.0167    1.3784    0.0096 C.ar      1 <0>        -0.0844
      2 C2          1.1695    2.0865    0.0021 C.ar      1 <0>        -0.1442
      3 C3          2.3802    1.4093   -0.0131 C.ar      1 <0>         0.1167
      4 C4          2.3963    0.0221   -0.0206 C.ar      1 <0>        -0.1455
      5 C5          1.2074   -0.6814   -0.0130 C.ar      1 <0>        -0.0729
      6 C6          0.0021   -0.0041    0.0020 C.ar      1 <0>        -0.1034
      7 C7         -1.2934   -0.7740    0.0107 C.3       1 <0>         0.1470
      8 H1         -2.0861   -0.1570   -0.4124 H         1 <0>         0.0915
      9 C8         -1.6545   -1.1532    1.4543 C.3       1 <0>        -0.1930
     10 C9         -2.9435   -1.9533    1.3996 C.2       1 <0>         0.4032
     11 O1         -3.8237   -1.8020    2.2216 O.2       1 <0>        -0.4317
     12 C10        -3.0712   -2.9182    0.3020 C.ar      1 <0>        -0.2944
     13 C11        -4.0969   -3.8768    0.3066 C.ar      1 <0>         0.2227
     14 C12        -4.2019   -4.7673   -0.7467 C.ar      1 <0>        -0.2202
     15 C13        -3.2954   -4.7115   -1.7985 C.ar      1 <0>         0.1984
     16 C14        -2.2752   -3.7691   -1.8056 C.ar      1 <0>        -0.2010
     17 C15        -2.1504   -2.8702   -0.7610 C.ar      1 <0>         0.2145
     18 O2         -1.1470   -1.9614   -0.7679 O.3       1 <0>        -0.2972
     19 O3         -3.4079   -5.5870   -2.8289 O.3       1 <0>        -0.4900
     20 O4         -4.9779   -3.9296    1.3362 O.3       1 <0>        -0.4788
     21 O5          3.5484    2.1036   -0.0209 O.3       1 <0>        -0.4989
     22 H2         -0.9594    1.9052    0.0259 H         1 <0>         0.1316
     23 H3          1.1543    3.1664    0.0076 H         1 <0>         0.1345
     24 H4          3.3375   -0.5074   -0.0328 H         1 <0>         0.1334
     25 H5          1.2194   -1.7613   -0.0189 H         1 <0>         0.1340
     26 H6         -0.8595   -1.7595    1.8887 H         1 <0>         0.1164
     27 H7         -1.8021   -0.2518    2.0490 H         1 <0>         0.1158
     28 H8         -4.9890   -5.5069   -0.7515 H         1 <0>         0.1463
     29 H9         -1.5768   -3.7380   -2.6289 H         1 <0>         0.1490
     30 H10        -3.9680   -5.2733   -3.5521 H         1 <0>         0.4030
     31 H11        -5.7634   -3.3798    1.2103 H         1 <0>         0.4035
     32 H12         3.8951    2.3001    0.8601 H         1 <0>         0.3945
@<TRIPOS>BOND
     1    1    6 ar
     2    1    2 ar
     3    1   22 1
     4    2    3 ar
     5    2   23 1
     6    3    4 ar
     7    3   21 1
     8    4    5 ar
     9    4   24 1
    10    5    6 ar
    11    5   25 1
    12    6    7 1
    13    7    8 1
    14    7   18 1
    15    7    9 1
    16    9   10 1
    17    9   26 1
    18    9   27 1
    19   10   11 2
    20   10   12 1
    21   12   17 ar
    22   12   13 ar
    23   13   14 ar
    24   13   20 1
    25   14   15 ar
    26   14   28 1
    27   15   16 ar
    28   15   19 1
    29   16   17 ar
    30   16   29 1
    31   17   18 1
    32   19   30 1
    33   20   31 1
    34   21   32 1
