@<TRIPOS>MOLECULE
ZINC03948213
   83    86     0     0     0
SMALL
USER_CHARGES
(2S)-2-amino-N-[(1R)-2-(4-butanoyl-4-phenyl-1-piperidyl)-1-[(4-methoxyphenyl)methyl]-2-oxo-ethyl]-3-(3-methylimidazol-4-yl)propanamide
@<TRIPOS>ATOM
      1 C1          0.6649    2.7158  -12.8525 C.3       1 <0>        -0.1553
      2 C2          1.3190    3.1385  -11.5356 C.3       1 <0>        -0.1170
      3 C3          1.8369    1.8995  -10.8025 C.3       1 <0>        -0.1718
      4 C4          2.4812    2.3159   -9.5054 C.2       1 <0>         0.3685
      5 O1          2.5220    3.4833   -9.1989 O.2       1 <0>        -0.4353
      6 C5          3.0746    1.2756   -8.5907 C.3       1 <0>        -0.0593
      7 C6          3.6597    1.9592   -7.3528 C.3       1 <0>        -0.1164
      8 C7          2.5546    2.7415   -6.6362 C.3       1 <0>         0.1000
      9 N1          1.4384    1.8296   -6.3511 N.am      1 <0>        -0.6023
     10 C8          0.8638    1.0494   -7.4556 C.3       1 <0>         0.0931
     11 C9          1.9842    0.2902   -8.1640 C.3       1 <0>        -0.1195
     12 C10         0.9544    1.7070   -5.0992 C.2       1 <0>         0.5075
     13 O2          1.4407    2.3528   -4.1951 O.2       1 <0>        -0.5170
     14 C11        -0.1910    0.7674   -4.8228 C.3       1 <0>         0.1376
     15 H1         -0.9151    0.8285   -5.6352 H         1 <0>         0.1220
     16 C12         0.3379   -0.6644   -4.7176 C.3       1 <0>        -0.0899
     17 C13        -0.8193   -1.6174   -4.5639 C.ar      1 <0>        -0.1258
     18 C14        -1.2796   -1.9463   -3.3023 C.ar      1 <0>        -0.0739
     19 C15        -2.3440   -2.8152   -3.1589 C.ar      1 <0>        -0.2092
     20 C16        -2.9437   -3.3667   -4.2817 C.ar      1 <0>         0.1358
     21 C17        -2.4764   -3.0395   -5.5463 C.ar      1 <0>        -0.1418
     22 C18        -1.4154   -2.1657   -5.6845 C.ar      1 <0>        -0.0721
     23 O3         -3.9876   -4.2258   -4.1431 O.3       1 <0>        -0.3131
     24 C19        -4.4156   -4.5171   -2.8112 C.3       1 <0>         0.0264
     25 N2         -0.8376    1.1430   -3.5630 N.am      1 <0>        -0.6909
     26 C20        -0.1304    1.1406   -2.4157 C.2       1 <0>         0.5118
     27 O4          1.0413    0.8275   -2.4262 O.2       1 <0>        -0.4833
     28 C21        -0.7955    1.5269   -1.1198 C.3       1 <0>         0.0180
     29 H2         -1.8010    1.1074   -1.0883 H         1 <0>         0.1567
     30 C22        -0.8757    3.0517   -1.0224 C.3       1 <0>        -0.0529
     31 C23        -1.6488    3.4362    0.2127 C.2       1 <0>        -0.0777
     32 C24        -1.1591    3.5560    1.4614 C.2       1 <0>        -0.0205
     33 N3         -2.1670    3.9167    2.2696 N.2       1 <0>        -0.4801
     34 C25        -3.2644    4.0167    1.5706 C.2       1 <0>         0.2159
     35 N4         -2.9850    3.7250    0.2819 N.pl3     1 <0>        -0.4494
     36 C26        -3.9347    3.7188   -0.8335 C.3       1 <0>         0.0582
     37 C27         4.1662    0.5325   -9.3169 C.ar      1 <0>        -0.0810
     38 C28         5.4597    0.5549   -8.8299 C.ar      1 <0>        -0.1124
     39 C29         6.4600   -0.1308   -9.4934 C.ar      1 <0>        -0.1140
     40 C30         6.1689   -0.8301  -10.6497 C.ar      1 <0>        -0.1136
     41 C31         4.8764   -0.8482  -11.1396 C.ar      1 <0>        -0.1139
     42 C32         3.8750   -0.1669  -10.4732 C.ar      1 <0>        -0.1221
     43 H3          1.3994    2.2054  -13.4756 H         1 <0>         0.0567
     44 H4         -0.1666    2.0421  -12.6454 H         1 <0>         0.0555
     45 H5          0.2960    3.5985  -13.3748 H         1 <0>         0.0603
     46 H6          0.5846    3.6489  -10.9125 H         1 <0>         0.0665
     47 H7          2.1506    3.8122  -11.7428 H         1 <0>         0.0688
     48 H8          2.5107    1.4313  -11.3741 H         1 <0>         0.0979
     49 H9          1.0054    1.2259  -10.5954 H         1 <0>         0.0983
     50 H10         4.4522    2.6435   -7.6555 H         1 <0>         0.0876
     51 H11         4.0674    1.2056   -6.6790 H         1 <0>         0.0781
     52 H12         2.2087    3.5539   -7.2753 H         1 <0>         0.0970
     53 H13         2.9402    3.1502   -5.7022 H         1 <0>         0.0945
     54 H14         0.1358    0.3402   -7.0619 H         1 <0>         0.0916
     55 H15         0.3772    1.7210   -8.1629 H         1 <0>         0.0759
     56 H16         1.5842   -0.2133   -9.0441 H         1 <0>         0.0920
     57 H17         2.4074   -0.4484   -7.4833 H         1 <0>         0.0862
     58 H18         0.8958   -0.9129   -5.6205 H         1 <0>         0.0934
     59 H19         0.9939   -0.7466   -3.8510 H         1 <0>         0.1009
     60 H20        -0.8095   -1.5200   -2.4284 H         1 <0>         0.1065
     61 H21        -2.7060   -3.0684   -2.1734 H         1 <0>         0.1278
     62 H22        -2.9418   -3.4673   -6.4219 H         1 <0>         0.1367
     63 H23        -1.0514   -1.9104   -6.6688 H         1 <0>         0.1322
     64 H24        -4.7276   -3.5954   -2.3200 H         1 <0>         0.0547
     65 H25        -5.2536   -5.2135   -2.8429 H         1 <0>         0.1061
     66 H26        -3.5921   -4.9647   -2.2546 H         1 <0>         0.0572
     67 H27        -1.7746    1.3933   -3.5546 H         1 <0>         0.4121
     68 H28         0.1310    3.4655   -0.9645 H         1 <0>         0.1242
     69 H29        -1.3804    3.4460   -1.9044 H         1 <0>         0.1199
     70 H30        -0.1339    3.3929    1.7594 H         1 <0>         0.1733
     71 H31        -4.2353    4.2874    1.9584 H         1 <0>         0.2167
     72 H32        -4.3751    2.7264   -0.9303 H         1 <0>         0.0858
     73 H33        -4.7219    4.4487   -0.6446 H         1 <0>         0.1015
     74 H34        -3.4138    3.9767   -1.7556 H         1 <0>         0.0894
     75 H35         0.0021   -0.0041    0.0020 H         1 <0>         0.4410
     76 H36         0.9253    1.3792    0.0006 H         1 <0>         0.4465
     77 H37         5.6880    1.1049   -7.9289 H         1 <0>         0.1268
     78 H38         7.4699   -0.1163   -9.1108 H         1 <0>         0.1256
     79 H39         6.9513   -1.3621  -11.1705 H         1 <0>         0.1255
     80 H40         4.6490   -1.3943  -12.0432 H         1 <0>         0.1266
     81 H41         2.8653   -0.1807  -10.8562 H         1 <0>         0.1285
     82 N5         -0.0252    1.0139    0.0269 N.4       1 <0>        -0.6302
     83 H42        -0.4761    1.3157    0.8986 H         1 <0>         0.4443
@<TRIPOS>BOND
     1    1    2 1
     2    1   43 1
     3    1   44 1
     4    1   45 1
     5    2    3 1
     6    2   46 1
     7    2   47 1
     8    3    4 1
     9    3   48 1
    10    3   49 1
    11    4    5 2
    12    4    6 1
    13    6   11 1
    14    6    7 1
    15    6   37 1
    16    7    8 1
    17    7   50 1
    18    7   51 1
    19    8    9 1
    20    8   52 1
    21    8   53 1
    22    9   10 1
    23    9   12 am
    24   10   11 1
    25   10   54 1
    26   10   55 1
    27   11   56 1
    28   11   57 1
    29   12   13 2
    30   12   14 1
    31   14   15 1
    32   14   16 1
    33   14   25 1
    34   16   17 1
    35   16   58 1
    36   16   59 1
    37   17   22 ar
    38   17   18 ar
    39   18   19 ar
    40   18   60 1
    41   19   20 ar
    42   19   61 1
    43   20   21 ar
    44   20   23 1
    45   21   22 ar
    46   21   62 1
    47   22   63 1
    48   23   24 1
    49   24   64 1
    50   24   65 1
    51   24   66 1
    52   25   26 am
    53   25   67 1
    54   26   27 2
    55   26   28 1
    56   28   29 1
    57   28   30 1
    58   28   82 1
    59   30   31 1
    60   30   68 1
    61   30   69 1
    62   31   35 1
    63   31   32 2
    64   32   33 1
    65   32   70 1
    66   33   34 2
    67   34   35 1
    68   34   71 1
    69   35   36 1
    70   36   72 1
    71   36   73 1
    72   36   74 1
    73   37   42 ar
    74   37   38 ar
    75   38   39 ar
    76   38   77 1
    77   39   40 ar
    78   39   78 1
    79   40   41 ar
    80   40   79 1
    81   41   42 ar
    82   41   80 1
    83   42   81 1
    84   75   82 1
    85   76   82 1
    86   82   83 1
@<TRIPOS>MOLECULE
ZINC03948213
   84    87     0     0     0
SMALL
USER_CHARGES
(2S)-2-amino-N-[(1R)-2-(4-butanoyl-4-phenyl-1-piperidyl)-1-[(4-methoxyphenyl)methyl]-2-oxo-ethyl]-3-(3-methylimidazol-4-yl)propanamide
@<TRIPOS>ATOM
      1 C1          0.6649    2.7158  -12.8525 C.3       1 <0>        -0.1562
      2 C2          1.3190    3.1385  -11.5356 C.3       1 <0>        -0.1164
      3 C3          1.8369    1.8995  -10.8025 C.3       1 <0>        -0.1721
      4 C4          2.4812    2.3159   -9.5054 C.2       1 <0>         0.3689
      5 O1          2.5220    3.4833   -9.1989 O.2       1 <0>        -0.4367
      6 C5          3.0746    1.2756   -8.5907 C.3       1 <0>        -0.0585
      7 C6          3.6597    1.9592   -7.3528 C.3       1 <0>        -0.1169
      8 C7          2.5546    2.7415   -6.6362 C.3       1 <0>         0.0998
      9 N1          1.4384    1.8296   -6.3511 N.am      1 <0>        -0.5976
     10 C8          0.8638    1.0494   -7.4556 C.3       1 <0>         0.0915
     11 C9          1.9842    0.2902   -8.1640 C.3       1 <0>        -0.1202
     12 C10         0.9544    1.7070   -5.0992 C.2       1 <0>         0.5089
     13 O2          1.4407    2.3528   -4.1951 O.2       1 <0>        -0.5271
     14 C11        -0.1910    0.7674   -4.8228 C.3       1 <0>         0.1356
     15 H1         -0.9151    0.8285   -5.6352 H         1 <0>         0.1262
     16 C12         0.3379   -0.6644   -4.7176 C.3       1 <0>        -0.0902
     17 C13        -0.8193   -1.6174   -4.5639 C.ar      1 <0>        -0.1288
     18 C14        -1.2796   -1.9463   -3.3023 C.ar      1 <0>        -0.0772
     19 C15        -2.3440   -2.8152   -3.1589 C.ar      1 <0>        -0.2120
     20 C16        -2.9437   -3.3667   -4.2817 C.ar      1 <0>         0.1389
     21 C17        -2.4764   -3.0395   -5.5463 C.ar      1 <0>        -0.1391
     22 C18        -1.4154   -2.1657   -5.6845 C.ar      1 <0>        -0.0698
     23 O3         -3.9876   -4.2258   -4.1431 O.3       1 <0>        -0.3107
     24 C19        -4.4156   -4.5171   -2.8112 C.3       1 <0>         0.0269
     25 N2         -0.8376    1.1430   -3.5630 N.am      1 <0>        -0.6850
     26 C20        -0.1304    1.1406   -2.4157 C.2       1 <0>         0.5068
     27 O4          1.0413    0.8275   -2.4262 O.2       1 <0>        -0.4705
     28 C21        -0.7955    1.5269   -1.1198 C.3       1 <0>         0.0135
     29 H2         -1.8010    1.1074   -1.0883 H         1 <0>         0.1646
     30 C22        -0.8757    3.0517   -1.0224 C.3       1 <0>        -0.0729
     31 C23        -1.6488    3.4362    0.2127 C.2       1 <0>         0.0100
     32 C24        -1.1591    3.5560    1.4614 C.2       1 <0>         0.0003
     33 C25        -3.2644    4.0167    1.5706 C.cat     1 <0>         0.3238
     34 N3         -2.9850    3.7250    0.2819 N.pl3     1 <0>        -0.4031
     35 C26        -3.9347    3.7188   -0.8335 C.3       1 <0>         0.0416
     36 C27         4.1662    0.5325   -9.3169 C.ar      1 <0>        -0.0844
     37 C28         5.4597    0.5549   -8.8299 C.ar      1 <0>        -0.1130
     38 C29         6.4600   -0.1308   -9.4934 C.ar      1 <0>        -0.1135
     39 C30         6.1689   -0.8301  -10.6497 C.ar      1 <0>        -0.1113
     40 C31         4.8764   -0.8482  -11.1396 C.ar      1 <0>        -0.1126
     41 C32         3.8750   -0.1669  -10.4732 C.ar      1 <0>        -0.1220
     42 H3          1.3994    2.2054  -13.4756 H         1 <0>         0.0577
     43 H4         -0.1666    2.0421  -12.6454 H         1 <0>         0.0554
     44 H5          0.2960    3.5985  -13.3748 H         1 <0>         0.0612
     45 H6          0.5846    3.6489  -10.9125 H         1 <0>         0.0655
     46 H7          2.1506    3.8122  -11.7428 H         1 <0>         0.0693
     47 H8          2.5107    1.4313  -11.3741 H         1 <0>         0.0988
     48 H9          1.0054    1.2259  -10.5954 H         1 <0>         0.0982
     49 H10         4.4522    2.6435   -7.6555 H         1 <0>         0.0893
     50 H11         4.0674    1.2056   -6.6790 H         1 <0>         0.0782
     51 H12         2.2087    3.5539   -7.2753 H         1 <0>         0.0992
     52 H13         2.9402    3.1502   -5.7022 H         1 <0>         0.0940
     53 H14         0.1358    0.3402   -7.0619 H         1 <0>         0.0911
     54 H15         0.3772    1.7210   -8.1629 H         1 <0>         0.0786
     55 H16         1.5842   -0.2133   -9.0441 H         1 <0>         0.0941
     56 H17         2.4074   -0.4484   -7.4833 H         1 <0>         0.0864
     57 H18         0.8958   -0.9129   -5.6205 H         1 <0>         0.0967
     58 H19         0.9939   -0.7466   -3.8510 H         1 <0>         0.1001
     59 H20        -0.8095   -1.5200   -2.4284 H         1 <0>         0.1028
     60 H21        -2.7060   -3.0684   -2.1734 H         1 <0>         0.1268
     61 H22        -2.9418   -3.4673   -6.4219 H         1 <0>         0.1392
     62 H23        -1.0514   -1.9104   -6.6688 H         1 <0>         0.1339
     63 H24        -4.7276   -3.5954   -2.3200 H         1 <0>         0.0527
     64 H25        -5.2536   -5.2135   -2.8429 H         1 <0>         0.1081
     65 H26        -3.5921   -4.9647   -2.2546 H         1 <0>         0.0577
     66 H27        -1.7746    1.3933   -3.5546 H         1 <0>         0.4115
     67 H28         0.1310    3.4655   -0.9645 H         1 <0>         0.1489
     68 H29        -1.3804    3.4460   -1.9044 H         1 <0>         0.1454
     69 H30        -0.1339    3.3929    1.7594 H         1 <0>         0.2264
     70 H31        -4.2353    4.2874    1.9584 H         1 <0>         0.2715
     71 H32        -4.3751    2.7264   -0.9303 H         1 <0>         0.1188
     72 H33        -4.7219    4.4487   -0.6446 H         1 <0>         0.1290
     73 H34        -3.4138    3.9767   -1.7556 H         1 <0>         0.1199
     74 H35         0.0021   -0.0041    0.0020 H         1 <0>         0.4526
     75 H36         0.9253    1.3792    0.0006 H         1 <0>         0.4525
     76 H37         5.6880    1.1049   -7.9289 H         1 <0>         0.1258
     77 H38         7.4699   -0.1163   -9.1108 H         1 <0>         0.1263
     78 H39         6.9513   -1.3621  -11.1705 H         1 <0>         0.1269
     79 H40         4.6490   -1.3943  -12.0432 H         1 <0>         0.1279
     80 H41         2.8653   -0.1807  -10.8562 H         1 <0>         0.1285
     81 N4         -0.0252    1.0139    0.0269 N.4       1 <0>        -0.6338
     82 H42        -0.4761    1.3157    0.8986 H         1 <0>         0.4331
     83 N5         -2.1671    3.9165    2.2683 N.pl3     1 <0>        -0.4784
     84 H43        -2.0877    4.0870    3.2776 H         1 <0>         0.4928
@<TRIPOS>BOND
     1    1    2 1
     2    1   42 1
     3    1   43 1
     4    1   44 1
     5    2    3 1
     6    2   45 1
     7    2   46 1
     8    3    4 1
     9    3   47 1
    10    3   48 1
    11    4    5 2
    12    4    6 1
    13    6   11 1
    14    6    7 1
    15    6   36 1
    16    7    8 1
    17    7   49 1
    18    7   50 1
    19    8    9 1
    20    8   51 1
    21    8   52 1
    22    9   10 1
    23    9   12 am
    24   10   11 1
    25   10   53 1
    26   10   54 1
    27   11   55 1
    28   11   56 1
    29   12   13 2
    30   12   14 1
    31   14   15 1
    32   14   16 1
    33   14   25 1
    34   16   17 1
    35   16   57 1
    36   16   58 1
    37   17   22 ar
    38   17   18 ar
    39   18   19 ar
    40   18   59 1
    41   19   20 ar
    42   19   60 1
    43   20   21 ar
    44   20   23 1
    45   21   22 ar
    46   21   61 1
    47   22   62 1
    48   23   24 1
    49   24   63 1
    50   24   64 1
    51   24   65 1
    52   25   26 am
    53   25   66 1
    54   26   27 2
    55   26   28 1
    56   28   29 1
    57   28   30 1
    58   28   81 1
    59   30   31 1
    60   30   67 1
    61   30   68 1
    62   31   34 1
    63   31   32 2
    64   32   69 1
    65   32   83 1
    66   33   34 1
    67   33   70 1
    68   33   83 2
    69   34   35 1
    70   35   71 1
    71   35   72 1
    72   35   73 1
    73   36   41 ar
    74   36   37 ar
    75   37   38 ar
    76   37   76 1
    77   38   39 ar
    78   38   77 1
    79   39   40 ar
    80   39   78 1
    81   40   41 ar
    82   40   79 1
    83   41   80 1
    84   74   81 1
    85   75   81 1
    86   81   82 1
    87   83   84 1
@<TRIPOS>MOLECULE
ZINC36269777
   83    88     0     0     0
SMALL
USER_CHARGES

@<TRIPOS>ATOM
      1 C1          0.7340    0.6110    2.2920 C.ar      1 <0>        -0.1181
      2 C2          1.9434    1.2783    2.3544 C.ar      1 <0>        -0.1189
      3 C3          3.1170    0.5996    2.0961 C.ar      1 <0>        -0.1117
      4 C4          3.0909   -0.7499    1.7752 C.ar      1 <0>        -0.1181
      5 C5          1.8853   -1.4154    1.7166 C.ar      1 <0>        -0.0796
      6 C6          0.7064   -0.7318    1.9736 C.ar      1 <0>        -0.1155
      7 C7          1.8074   -2.8832    1.3837 C.3       1 <0>        -0.1064
      8 C8          3.1164   -3.3430    0.7413 C.3       1 <0>         0.0748
      9 H1          3.2123   -2.9016   -0.2507 H         1 <0>         0.1037
     10 N1          4.2342   -2.9001    1.5896 N.3       1 <0>        -0.6507
     11 C9          4.3973   -1.4459    1.4962 C.3       1 <0>         0.0974
     12 C10         3.1250   -4.8458    0.6296 C.2       1 <0>         0.5267
     13 O1          3.7295   -5.5110    1.4438 O.2       1 <0>        -0.5023
     14 N2          2.4609   -5.4507   -0.3752 N.am      1 <0>        -0.7185
     15 C11         2.4692   -6.9116   -0.4838 C.3       1 <0>         0.1371
     16 H2          2.4697   -7.3502    0.5141 H         1 <0>         0.1135
     17 C12         3.7225   -7.3598   -1.2384 C.3       1 <0>        -0.0856
     18 C13         4.9487   -6.9455   -0.4664 C.ar      1 <0>        -0.0648
     19 C14         5.5259   -5.7108   -0.6971 C.ar      1 <0>        -0.0936
     20 C15         6.6505   -5.3303    0.0105 C.ar      1 <0>        -0.0871
     21 C16         7.1985   -6.1854    0.9500 C.ar      1 <0>        -0.0276
     22 C17         6.6204   -7.4211    1.1804 C.ar      1 <0>        -0.1026
     23 C18         5.4925   -7.7981    0.4761 C.ar      1 <0>        -0.0922
     24 Cl1         8.6114   -5.7084    1.8388 Cl        1 <0>        -0.0782
     25 C19         1.2428   -7.3668   -1.2319 C.2       1 <0>         0.5164
     26 O2          0.6842   -6.6104   -1.9980 O.2       1 <0>        -0.5338
     27 N3          0.7666   -8.6144   -1.0498 N.am      1 <0>        -0.6055
     28 C20         1.3630   -9.5038   -0.0439 C.3       1 <0>         0.1062
     29 C21         0.2541  -10.0170    0.8801 C.3       1 <0>        -0.1347
     30 C22        -0.8453  -10.6684    0.0380 C.3       1 <0>        -0.0605
     31 C23        -1.4484   -9.6285   -0.9091 C.3       1 <0>        -0.1233
     32 C24        -0.3627   -9.1088   -1.8491 C.3       1 <0>         0.1068
     33 C25        -0.2490  -11.8165   -0.7787 C.3       1 <0>         0.1261
     34 N4          0.4502  -12.7412    0.1169 N.pl3     1 <0>        -0.3670
     35 C26         0.2458  -14.0652    0.2275 C.2       1 <0>         0.2539
     36 N5          1.0678  -14.5287    1.1337 N.2       1 <0>        -0.5400
     37 C27         1.8094  -13.5351    1.6216 C.2       1 <0>         0.1971
     38 N6          1.4717  -12.4215    1.0263 N.2       1 <0>        -0.3102
     39 C28        -1.9383  -11.2128    0.9598 C.3       1 <0>        -0.0740
     40 C29        -1.3037  -12.0905    2.0405 C.3       1 <0>        -0.1304
     41 C30        -2.3967  -12.6350    2.9623 C.3       1 <0>        -0.1189
     42 C31        -3.3854  -13.4681    2.1443 C.3       1 <0>        -0.1184
     43 C32        -4.0201  -12.5905    1.0636 C.3       1 <0>        -0.1186
     44 C33        -2.9271  -12.0460    0.1418 C.3       1 <0>        -0.1186
     45 H3         -0.1863    1.1381    2.4963 H         1 <0>         0.1231
     46 H4          1.9695    2.3286    2.6045 H         1 <0>         0.1233
     47 H5          4.0610    1.1220    2.1437 H         1 <0>         0.1241
     48 H6         -0.2383   -1.2528    1.9242 H         1 <0>         0.1211
     49 H7          1.6327   -3.4526    2.2966 H         1 <0>         0.0831
     50 H8          0.9843   -3.0536    0.6897 H         1 <0>         0.0852
     51 H9          4.0977   -3.1878    2.5470 H         1 <0>         0.3542
     52 H10         4.7376   -1.1851    0.4941 H         1 <0>         0.0888
     53 H11         5.1417   -1.1194    2.2224 H         1 <0>         0.0927
     54 H12         1.9773   -4.9187   -1.0264 H         1 <0>         0.4083
     55 H13         3.7118   -8.4441   -1.3488 H         1 <0>         0.0862
     56 H14         3.7391   -6.8944   -2.2239 H         1 <0>         0.0836
     57 H15         5.0982   -5.0435   -1.4307 H         1 <0>         0.1187
     58 H16         7.1016   -4.3657   -0.1700 H         1 <0>         0.1269
     59 H17         7.0479   -8.0892    1.9134 H         1 <0>         0.1270
     60 H18         5.0383   -8.7607    0.6593 H         1 <0>         0.1231
     61 H19         1.8440  -10.3465   -0.5405 H         1 <0>         0.0772
     62 H20         2.0996   -8.9525    0.5406 H         1 <0>         0.0875
     63 H21         0.6671  -10.7522    1.5707 H         1 <0>         0.1175
     64 H22        -0.1649   -9.1832    1.4434 H         1 <0>         0.0637
     65 H23        -2.2471  -10.0872   -1.4920 H         1 <0>         0.0836
     66 H24        -1.8514   -8.7984   -0.3289 H         1 <0>         0.0775
     67 H25        -0.7644   -8.2969   -2.4554 H         1 <0>         0.0980
     68 H26        -0.0256   -9.9185   -2.4962 H         1 <0>         0.0695
     69 H27        -1.0479  -12.3470   -1.2969 H         1 <0>         0.1064
     70 H28         0.4544  -11.4161   -1.5088 H         1 <0>         0.0916
     71 H29        -0.4723  -14.6451   -0.3334 H         1 <0>         0.2126
     72 H30         2.5694  -13.6345    2.3826 H         1 <0>         0.2143
     73 H31        -2.4648  -10.3819    1.4294 H         1 <0>         0.0739
     74 H32        -0.7772  -12.9214    1.5709 H         1 <0>         0.0755
     75 H33        -0.5993  -11.4969    2.6232 H         1 <0>         0.0627
     76 H34        -1.9445  -13.2602    3.7322 H         1 <0>         0.0590
     77 H35        -2.9231  -11.8041    3.4319 H         1 <0>         0.0576
     78 H36        -2.8589  -14.2991    1.6747 H         1 <0>         0.0595
     79 H37        -4.1641  -13.8560    2.8010 H         1 <0>         0.0602
     80 H38        -4.7245  -13.1841    0.4808 H         1 <0>         0.0623
     81 H39        -4.5466  -11.7596    1.5332 H         1 <0>         0.0614
     82 H40        -3.3792  -11.4208   -0.6281 H         1 <0>         0.0661
     83 H41        -2.4006  -12.8769   -0.3278 H         1 <0>         0.0589
@<TRIPOS>BOND
     1    1    6 ar
     2    1    2 ar
     3    1   45 1
     4    2    3 ar
     5    2   46 1
     6    3    4 ar
     7    3   47 1
     8    4   11 1
     9    4    5 ar
    10    5    6 ar
    11    5    7 1
    12    6   48 1
    13    7    8 1
    14    7   49 1
    15    7   50 1
    16    8    9 1
    17    8   10 1
    18    8   12 1
    19   10   11 1
    20   10   51 1
    21   11   52 1
    22   11   53 1
    23   12   13 2
    24   12   14 am
    25   14   15 1
    26   14   54 1
    27   15   16 1
    28   15   17 1
    29   15   25 1
    30   17   18 1
    31   17   55 1
    32   17   56 1
    33   18   23 ar
    34   18   19 ar
    35   19   20 ar
    36   19   57 1
    37   20   21 ar
    38   20   58 1
    39   21   22 ar
    40   21   24 1
    41   22   23 ar
    42   22   59 1
    43   23   60 1
    44   25   26 2
    45   25   27 am
    46   27   32 1
    47   27   28 1
    48   28   29 1
    49   28   61 1
    50   28   62 1
    51   29   30 1
    52   29   63 1
    53   29   64 1
    54   30   31 1
    55   30   33 1
    56   30   39 1
    57   31   32 1
    58   31   65 1
    59   31   66 1
    60   32   67 1
    61   32   68 1
    62   33   34 1
    63   33   69 1
    64   33   70 1
    65   34   38 1
    66   34   35 1
    67   35   36 2
    68   35   71 1
    69   36   37 1
    70   37   38 2
    71   37   72 1
    72   39   44 1
    73   39   40 1
    74   39   73 1
    75   40   41 1
    76   40   74 1
    77   40   75 1
    78   41   42 1
    79   41   76 1
    80   41   77 1
    81   42   43 1
    82   42   78 1
    83   42   79 1
    84   43   44 1
    85   43   80 1
    86   43   81 1
    87   44   82 1
    88   44   83 1
