@<TRIPOS>MOLECULE
ZINC00160011
   29    31     0     0     0
SMALL
USER_CHARGES

@<TRIPOS>ATOM
      1 C1         -0.0167    1.3782    0.0096 C.ar      1 <0>        -0.0114
      2 C2          1.1706    2.0858    0.0021 C.ar      1 <0>        -0.1370
      3 C3          2.3780    1.4104   -0.0130 C.ar      1 <0>         0.0016
      4 C4          2.3961    0.0270   -0.0206 C.ar      1 <0>        -0.1369
      5 C5          1.2082   -0.6795   -0.0130 C.ar      1 <0>        -0.0114
      6 C6          0.0021   -0.0041    0.0020 C.ar      1 <0>        -0.6087
      7 S1         -1.5119   -0.9054    0.0122 S.o2      1 <0>         2.5933
      8 O1         -1.2185   -2.1862    0.5533 O.2       1 <0>        -1.0292
      9 O2         -2.4924   -0.0460    0.5773 O.2       1 <0>        -1.0294
     10 N1         -1.9483   -1.1474   -1.5669 N.2       1 <0>        -1.0807
     11 C7         -3.1240   -1.8438   -1.8691 C.ar      1 <0>         0.2525
     12 C8         -3.9231   -2.3245   -0.8221 C.ar      1 <0>        -0.1379
     13 C9         -5.0719   -3.0049   -1.0558 C.ar      1 <0>        -0.0779
     14 C10        -5.4861   -3.2425   -2.3844 C.ar      1 <0>         0.0674
     15 C11        -4.6498   -2.7395   -3.4849 C.ar      1 <0>        -0.0928
     16 C12        -3.4677   -2.0338   -3.1737 C.ar      1 <0>        -0.1829
     17 C13        -5.2837   -3.1084   -4.6583 C.2       1 <0>         0.0713
     18 N2         -6.4015   -3.7738   -4.3307 N.pl3     1 <0>        -0.4326
     19 N3         -6.5192   -3.8523   -2.9384 N.2       1 <0>        -0.2835
     20 H1         -7.0344   -4.1455   -4.9649 H         1 <0>         0.4354
     21 Cl1        -4.7307   -2.7697   -6.2687 Cl        1 <0>        -0.0170
     22 Cl2         3.8696    2.2984   -0.0231 Cl        1 <0>        -0.0749
     23 H2         -0.9592    1.9053    0.0259 H         1 <0>         0.1471
     24 H3          1.1558    3.1656    0.0076 H         1 <0>         0.1373
     25 H4          3.3383   -0.5007   -0.0327 H         1 <0>         0.1373
     26 H5          1.2222   -1.7594   -0.0193 H         1 <0>         0.1471
     27 H6         -3.6149   -2.1483    0.1979 H         1 <0>         0.1108
     28 H7         -5.6674   -3.3638   -0.2295 H         1 <0>         0.1238
     29 H8         -2.8386   -1.6508   -3.9636 H         1 <0>         0.1194
@<TRIPOS>BOND
     1    1    6 ar
     2    1    2 ar
     3    1   23 1
     4    2    3 ar
     5    2   24 1
     6    3    4 ar
     7    3   22 1
     8    4    5 ar
     9    4   25 1
    10    5    6 ar
    11    5   26 1
    12    6    7 1
    13    7    8 2
    14    7    9 2
    15    7   10 1
    16   10   11 1
    17   11   16 ar
    18   11   12 ar
    19   12   13 ar
    20   12   27 1
    21   13   14 ar
    22   13   28 1
    23   14   15 ar
    24   14   19 2
    25   15   16 ar
    26   15   17 2
    27   16   29 1
    28   17   21 1
    29   17   18 1
    30   18   20 1
    31   18   19 1
@<TRIPOS>MOLECULE
ZINC00160011
   30    32     0     0     0
SMALL
USER_CHARGES

@<TRIPOS>ATOM
      1 C1         -2.3677   -4.2093    0.2512 C.ar      1 <0>        -0.0021
      2 C2         -3.0721   -5.3980    0.2866 C.ar      1 <0>        -0.1308
      3 C3         -4.4444   -5.3940    0.1110 C.ar      1 <0>         0.0206
      4 C4         -5.1108   -4.2001   -0.0999 C.ar      1 <0>        -0.1316
      5 C5         -4.4054   -3.0121   -0.1351 C.ar      1 <0>        -0.0047
      6 C6         -3.0341   -3.0167    0.0403 C.ar      1 <0>        -0.6772
      7 S1         -2.1355   -1.5017   -0.0041 S.o2      1 <0>         2.6903
      8 O1         -3.0229   -0.4896    0.4514 O.2       1 <0>        -0.9472
      9 O2         -0.8834   -1.7537    0.6186 O.2       1 <0>        -0.9430
     10 N1         -1.8148   -1.1692   -1.5944 N.pl3     1 <0>        -1.0564
     11 C7         -0.9832   -2.0187   -2.3330 C.ar      1 <0>         0.0872
     12 C8          0.3963   -1.9940   -2.1239 C.ar      1 <0>        -0.0489
     13 C9          1.2245   -2.8144   -2.8338 C.ar      1 <0>        -0.1277
     14 C10         0.6972   -3.6896   -3.7804 C.ar      1 <0>         0.1472
     15 C11        -0.6928   -3.7229   -3.9994 C.ar      1 <0>        -0.1622
     16 C12        -1.5322   -2.8810   -3.2608 C.ar      1 <0>        -0.0234
     17 C13        -0.9217   -4.7263   -5.0352 C.2       1 <0>         0.1444
     18 N2          0.2357   -5.2195   -5.3745 N.2       1 <0>        -0.2234
     19 N3          1.2529   -4.6127   -4.6308 N.pl3     1 <0>        -0.4904
     20 H1          2.1994   -4.8120   -4.7044 H         1 <0>         0.4503
     21 Cl1        -2.4611   -5.1815   -5.6961 Cl        1 <0>         0.0299
     22 Cl2        -5.3298   -6.8867    0.1548 Cl        1 <0>        -0.0511
     23 H2         -1.2970   -4.2118    0.3927 H         1 <0>         0.1510
     24 H3         -2.5513   -6.3297    0.4510 H         1 <0>         0.1449
     25 H4         -6.1821   -4.1964   -0.2374 H         1 <0>         0.1460
     26 H5         -4.9254   -2.0800   -0.3001 H         1 <0>         0.1501
     27 H6          0.8134   -1.3178   -1.3923 H         1 <0>         0.1486
     28 H7          2.2903   -2.7846   -2.6616 H         1 <0>         0.1417
     29 H8         -2.6004   -2.9024   -3.4187 H         1 <0>         0.1401
     30 H9         -2.2033   -0.3856   -2.0140 H         1 <0>         0.4277
@<TRIPOS>BOND
     1    1    6 ar
     2    1    2 ar
     3    1   23 1
     4    2    3 ar
     5    2   24 1
     6    3    4 ar
     7    3   22 1
     8    4    5 ar
     9    4   25 1
    10    5    6 ar
    11    5   26 1
    12    6    7 1
    13    7    8 2
    14    7    9 2
    15    7   10 1
    16   10   11 1
    17   10   30 1
    18   11   16 ar
    19   11   12 ar
    20   12   13 ar
    21   12   27 1
    22   13   14 ar
    23   13   28 1
    24   14   15 ar
    25   14   19 1
    26   15   16 ar
    27   15   17 1
    28   16   29 1
    29   17   21 1
    30   17   18 2
    31   18   19 1
    32   19   20 1
