@<TRIPOS>MOLECULE
ZINC01912926
   51    55     0     0     0
SMALL
USER_CHARGES
2-(difluoromethyl)-1-(4,6-dimorpholino-1,3,5-triazin-2-yl)-benzoimidazole
@<TRIPOS>ATOM
      1 C1         -1.0652   -2.8642    7.1437 C.ar      1 <0>        -0.1184
      2 C2         -0.7938   -1.6243    6.5830 C.ar      1 <0>        -0.0834
      3 C3          0.3973   -1.4007    5.9254 C.ar      1 <0>        -0.0999
      4 C4          1.3312   -2.4213    5.8230 C.ar      1 <0>         0.0804
      5 C5          1.0604   -3.6792    6.3862 C.ar      1 <0>         0.0472
      6 C6         -0.1533   -3.8904    7.0455 C.ar      1 <0>        -0.0510
      7 N1          2.1401   -4.4664    6.1396 N.2       1 <0>        -0.4246
      8 C7          3.0319   -3.7935    5.4746 C.2       1 <0>         0.2310
      9 N2          2.5859   -2.5235    5.2470 N.pl3     1 <0>        -0.4185
     10 C8          3.2666   -1.5193    4.5691 C.ar      1 <0>         0.6324
     11 N3          4.5397   -1.2718    4.8538 N.ar      1 <0>        -0.6068
     12 C9          5.1917   -0.3111    4.2056 C.ar      1 <0>         0.5871
     13 N4          4.5686    0.4016    3.2726 N.ar      1 <0>        -0.5717
     14 C10         3.2942    0.1533    2.9882 C.ar      1 <0>         0.5837
     15 N5          2.6421   -0.8043    3.6407 N.ar      1 <0>        -0.5997
     16 N6          2.6463    0.8931    2.0199 N.pl3     1 <0>        -0.4490
     17 C11         1.2514    0.4546    1.8673 C.3       1 <0>         0.0295
     18 C12         0.5892    1.2586    0.7452 C.3       1 <0>         0.0614
     19 O1          0.6887    2.6539    1.0428 O.3       1 <0>        -0.3792
     20 C13         2.0335    3.1152    1.1974 C.3       1 <0>         0.0635
     21 C14         2.7103    2.3300    2.3240 C.3       1 <0>         0.0291
     22 N7          6.5148   -0.0537    4.5019 N.pl3     1 <0>        -0.4489
     23 C15         7.3539   -0.1582    3.2993 C.3       1 <0>         0.0284
     24 C16         8.7998    0.1924    3.6605 C.3       1 <0>         0.0638
     25 O2          9.2467   -0.6713    4.7092 O.3       1 <0>        -0.3787
     26 C17         8.4523   -0.5946    5.8959 C.3       1 <0>         0.0613
     27 C18         7.0029   -0.9532    5.5574 C.3       1 <0>         0.0275
     28 C19         4.3630   -4.3359    5.0218 C.3       1 <0>         0.3659
     29 F1          4.2939   -5.7306    4.9373 F         1 <0>        -0.1673
     30 F2          4.6789   -3.8076    3.7655 F         1 <0>        -0.1893
     31 H1         -2.0018   -3.0270    7.6564 H         1 <0>         0.1403
     32 H2         -1.5205   -0.8292    6.6620 H         1 <0>         0.1390
     33 H3          0.6024   -0.4336    5.4908 H         1 <0>         0.1244
     34 H4         -0.3707   -4.8524    7.4855 H         1 <0>         0.1410
     35 H5          0.7134    0.6209    2.8005 H         1 <0>         0.0694
     36 H6          1.2286   -0.6061    1.6173 H         1 <0>         0.1018
     37 H7         -0.4608    0.9771    0.6666 H         1 <0>         0.1114
     38 H8          1.0934    1.0509   -0.1986 H         1 <0>         0.0657
     39 H9          2.5803    2.9614    0.2671 H         1 <0>         0.0687
     40 H10         2.0280    4.1765    1.4458 H         1 <0>         0.1120
     41 H11         2.1957    2.5263    3.2646 H         1 <0>         0.0602
     42 H12         3.7525    2.6384    2.4074 H         1 <0>         0.1110
     43 H13         7.3119   -1.1767    2.9134 H         1 <0>         0.0628
     44 H14         6.9902    0.5345    2.5404 H         1 <0>         0.1108
     45 H15         8.8503    1.2283    3.9957 H         1 <0>         0.0682
     46 H16         9.4362    0.0616    2.7853 H         1 <0>         0.1122
     47 H17         8.4927    0.4184    6.2962 H         1 <0>         0.0655
     48 H18         8.8369   -1.2951    6.6372 H         1 <0>         0.1115
     49 H19         6.3829   -0.8408    6.4468 H         1 <0>         0.1019
     50 H20         6.9552   -1.9844    5.2076 H         1 <0>         0.0691
     51 H21         5.1335   -4.0531    5.7391 H         1 <0>         0.1473
@<TRIPOS>BOND
     1    1    6 ar
     2    1    2 ar
     3    1   31 1
     4    2    3 ar
     5    2   32 1
     6    3    4 ar
     7    3   33 1
     8    4    9 1
     9    4    5 ar
    10    5    6 ar
    11    5    7 1
    12    6   34 1
    13    7    8 2
    14    8    9 1
    15    8   28 1
    16    9   10 1
    17   10   15 ar
    18   10   11 ar
    19   11   12 ar
    20   12   13 ar
    21   12   22 1
    22   13   14 ar
    23   14   15 ar
    24   14   16 1
    25   16   21 1
    26   16   17 1
    27   17   18 1
    28   17   35 1
    29   17   36 1
    30   18   19 1
    31   18   37 1
    32   18   38 1
    33   19   20 1
    34   20   21 1
    35   20   39 1
    36   20   40 1
    37   21   41 1
    38   21   42 1
    39   22   27 1
    40   22   23 1
    41   23   24 1
    42   23   43 1
    43   23   44 1
    44   24   25 1
    45   24   45 1
    46   24   46 1
    47   25   26 1
    48   26   27 1
    49   26   47 1
    50   26   48 1
    51   27   49 1
    52   27   50 1
    53   28   29 1
    54   28   30 1
    55   28   51 1
