@<TRIPOS>MOLECULE
ZINC37858692
   37    40     0     0     0
SMALL
USER_CHARGES

@<TRIPOS>ATOM
      1 C1          0.0269    1.2799   -0.9668 C.ar      1 <0>        -0.0753
      2 C2          1.2108    2.0132   -0.9686 C.ar      1 <0>        -0.0973
      3 C3          2.4101    1.4061   -0.7479 C.ar      1 <0>        -0.0938
      4 C4          2.4567    0.0226   -0.5147 C.ar      1 <0>        -0.0622
      5 C5          1.2528   -0.7240   -0.5122 C.ar      1 <0>         0.0009
      6 C6          0.0352   -0.0637   -0.7441 C.ar      1 <0>        -0.1062
      7 C7          1.2900   -2.1132   -0.2795 C.ar      1 <0>        -0.0878
      8 C8          2.4732   -2.7373   -0.0581 C.ar      1 <0>        -0.0669
      9 C9          3.6796   -2.0136   -0.0560 C.ar      1 <0>        -0.1476
     10 C10         3.6813   -0.6374   -0.2832 C.ar      1 <0>         0.1811
     11 O1          4.8431    0.0485   -0.2803 O.3       1 <0>        -0.2137
     12 C11         6.0240   -0.5614   -0.0619 C.2       1 <0>         0.5100
     13 C12         6.1020   -1.9513    0.1750 C.2       1 <0>        -0.3865
     14 C13         4.9612   -2.6969    0.1855 C.2       1 <0>         0.3406
     15 O2          5.0054   -4.0316    0.4105 O.3       1 <0>        -0.4171
     16 N1          7.1259    0.1513   -0.0699 N.pl3     1 <0>        -0.4977
     17 C14         8.4458   -0.4935    0.0163 C.3       1 <0>         0.0537
     18 C15         9.3250    0.0516   -1.1149 C.3       1 <0>         0.0434
     19 O3          9.3127    1.4806   -1.0738 O.3       1 <0>        -0.3613
     20 C16         8.0240    2.0611   -1.2883 C.3       1 <0>         0.0446
     21 C17         7.0783    1.6186   -0.1716 C.3       1 <0>         0.0409
     22 H1         -0.9120    1.7848   -1.1402 H         1 <0>         0.1433
     23 H2          1.1777    3.0778   -1.1478 H         1 <0>         0.1419
     24 H3          3.3209    1.9864   -0.7527 H         1 <0>         0.1366
     25 H4         -0.8909   -0.6193   -0.7460 H         1 <0>         0.1493
     26 H5          0.3725   -2.6829   -0.2771 H         1 <0>         0.1562
     27 H6          2.4896   -3.8025    0.1192 H         1 <0>         0.1571
     28 H7          7.0594   -2.4202    0.3478 H         1 <0>         0.1882
     29 H8          8.9033   -0.2659    0.9791 H         1 <0>         0.1238
     30 H9          8.3350   -1.5724   -0.0922 H         1 <0>         0.1220
     31 H10        10.3463   -0.3075   -0.9875 H         1 <0>         0.1344
     32 H11         8.9358   -0.2884   -2.0746 H         1 <0>         0.0713
     33 H12         8.1092    3.1478   -1.2856 H         1 <0>         0.1323
     34 H13         7.6300    1.7284   -2.2486 H         1 <0>         0.0698
     35 H14         6.0623    1.9376   -0.4045 H         1 <0>         0.1192
     36 H15         7.3958    2.0624    0.7719 H         1 <0>         0.1209
     37 H16         5.8969   -4.3765    0.5569 H         1 <0>         0.4319
@<TRIPOS>BOND
     1    1    6 ar
     2    1    2 ar
     3    1   22 1
     4    2    3 ar
     5    2   23 1
     6    3    4 ar
     7    3   24 1
     8    4   10 ar
     9    4    5 ar
    10    5    6 ar
    11    5    7 ar
    12    6   25 1
    13    7    8 ar
    14    7   26 1
    15    8    9 ar
    16    8   27 1
    17    9   14 1
    18    9   10 ar
    19   10   11 1
    20   11   12 1
    21   12   13 1
    22   12   16 2
    23   13   14 2
    24   13   28 1
    25   14   15 1
    26   15   37 1
    27   16   21 1
    28   16   17 1
    29   17   18 1
    30   17   29 1
    31   17   30 1
    32   18   19 1
    33   18   31 1
    34   18   32 1
    35   19   20 1
    36   20   21 1
    37   20   33 1
    38   20   34 1
    39   21   35 1
    40   21   36 1
@<TRIPOS>MOLECULE
ZINC37858692
   36    39     0     0     0
SMALL
USER_CHARGES

@<TRIPOS>ATOM
      1 C1         -0.0027    1.3314   -0.5809 C.ar      1 <0>        -0.0957
      2 C2          1.1814    2.0639   -0.5824 C.ar      1 <0>        -0.1189
      3 C3          2.3878    1.4437   -0.4550 C.ar      1 <0>        -0.0885
      4 C4          2.4414    0.0480   -0.3203 C.ar      1 <0>        -0.0638
      5 C5          1.2377   -0.6980   -0.3186 C.ar      1 <0>        -0.0077
      6 C6          0.0127   -0.0245   -0.4520 C.ar      1 <0>        -0.1117
      7 C7          1.2810   -2.1004   -0.1848 C.ar      1 <0>        -0.1294
      8 C8          2.4713   -2.7380   -0.0577 C.ar      1 <0>        -0.0442
      9 C9          3.6757   -2.0151   -0.0567 C.ar      1 <0>        -0.2125
     10 C10         3.6738   -0.6264   -0.1867 C.ar      1 <0>         0.1717
     11 O1          4.8376    0.0519   -0.1847 O.3       1 <0>        -0.2410
     12 C11         6.0234   -0.5588   -0.0603 C.2       1 <0>         0.4275
     13 C12         6.1365   -1.9100    0.0731 C.2       1 <0>        -0.3910
     14 C13         4.9739   -2.7047    0.0820 C.2       1 <0>         0.4293
     15 O2          5.0371   -3.9184    0.1993 O.2       1 <0>        -0.4888
     16 N1          7.1643    0.2032   -0.0680 N.pl3     1 <0>        -0.6067
     17 C14         8.4220   -0.3216   -0.6231 C.3       1 <0>         0.0934
     18 C15         8.9802    0.7073   -1.6128 C.3       1 <0>         0.0439
     19 O3          9.0521    1.9841   -0.9739 O.3       1 <0>        -0.3748
     20 C16         7.7856    2.5064   -0.5653 C.3       1 <0>         0.0447
     21 C17         7.1648    1.5716    0.4730 C.3       1 <0>         0.0804
     22 H1         -0.9471    1.8460   -0.6788 H         1 <0>         0.1304
     23 H2          1.1431    3.1382   -0.6864 H         1 <0>         0.1299
     24 H3          3.2989    2.0237   -0.4581 H         1 <0>         0.1312
     25 H4         -0.9138   -0.5795   -0.4529 H         1 <0>         0.1369
     26 H5          0.3631   -2.6694   -0.1831 H         1 <0>         0.1399
     27 H6          2.4933   -3.8129    0.0443 H         1 <0>         0.1431
     28 H7          7.1097   -2.3679    0.1714 H         1 <0>         0.1553
     29 H8          9.1391   -0.4835    0.1817 H         1 <0>         0.0892
     30 H9          8.2310   -1.2621   -1.1399 H         1 <0>         0.1019
     31 H10         9.9772    0.4027   -1.9311 H         1 <0>         0.1148
     32 H11         8.3238    0.7710   -2.4807 H         1 <0>         0.0592
     33 H12         7.9232    3.4961   -0.1299 H         1 <0>         0.1116
     34 H13         7.1249    2.5766   -1.4294 H         1 <0>         0.0585
     35 H14         6.1417    1.8843    0.6816 H         1 <0>         0.0958
     36 H15         7.7532    1.6036    1.3900 H         1 <0>         0.0861
@<TRIPOS>BOND
     1    1    6 ar
     2    1    2 ar
     3    1   22 1
     4    2    3 ar
     5    2   23 1
     6    3    4 ar
     7    3   24 1
     8    4   10 ar
     9    4    5 ar
    10    5    6 ar
    11    5    7 ar
    12    6   25 1
    13    7    8 ar
    14    7   26 1
    15    8    9 ar
    16    8   27 1
    17    9   14 1
    18    9   10 ar
    19   10   11 1
    20   11   12 1
    21   12   13 2
    22   12   16 1
    23   13   14 1
    24   13   28 1
    25   14   15 2
    26   16   21 1
    27   16   17 1
    28   17   18 1
    29   17   29 1
    30   17   30 1
    31   18   19 1
    32   18   31 1
    33   18   32 1
    34   19   20 1
    35   20   21 1
    36   20   33 1
    37   20   34 1
    38   21   35 1
    39   21   36 1
@<TRIPOS>MOLECULE
ZINC49019448
   65    69     0     0     0
SMALL
USER_CHARGES

@<TRIPOS>ATOM
      1 C1          0.1623    1.4933   -0.2484 C.3       1 <0>        -0.1432
      2 C2          0.1615   -0.0367   -0.2501 C.3       1 <0>         0.0756
      3 H1          0.5907   -0.3999   -1.1839 H         1 <0>         0.0618
      4 C3         -1.2773   -0.5481   -0.1148 C.3       1 <0>         0.0965
      5 N1         -1.2358   -2.0074    0.0693 N.pl3     1 <0>        -0.5805
      6 C4         -0.3436   -2.5486    1.1069 C.3       1 <0>         0.0980
      7 C5          1.0497   -1.9397    0.9120 C.3       1 <0>         0.0755
      8 H2          1.4824   -2.3106   -0.0171 H         1 <0>         0.0607
      9 O1          0.9378   -0.5159    0.8506 O.3       1 <0>        -0.3742
     10 C6          1.9479   -2.3326    2.0867 C.3       1 <0>        -0.1429
     11 C7         -2.0120   -2.8449   -0.7089 C.ar      1 <0>         0.6064
     12 N2         -2.7920   -2.3090   -1.6293 N.ar      1 <0>        -0.5680
     13 C8         -3.5614   -3.0851   -2.4062 C.ar      1 <0>         0.4064
     14 C9         -3.5168   -4.4889   -2.2154 C.ar      1 <0>        -0.2695
     15 C10        -4.3133   -5.3196   -3.0162 C.ar      1 <0>         0.0126
     16 C11        -5.1105   -4.7348   -3.9600 C.ar      1 <0>        -0.2071
     17 C12        -5.1126   -3.3409   -4.1024 C.ar      1 <0>         0.2688
     18 N3         -4.3566   -2.5668   -3.3411 N.ar      1 <0>        -0.4825
     19 C13        -5.9812   -2.7195   -5.1293 C.ar      1 <0>        -0.1083
     20 C14        -6.7897   -3.5190   -5.9377 C.ar      1 <0>        -0.0469
     21 C15        -7.5970   -2.9379   -6.8916 C.ar      1 <0>        -0.2142
     22 C16        -7.6062   -1.5577   -7.0486 C.ar      1 <0>         0.1537
     23 C17        -6.8026   -0.7591   -6.2455 C.ar      1 <0>        -0.1340
     24 C18        -5.9968   -1.3337   -5.2859 C.ar      1 <0>        -0.0043
     25 C19        -6.8158    0.7378   -6.4193 C.3       1 <0>         0.1288
     26 O2         -5.9133    1.3338   -5.4854 O.3       1 <0>        -0.5679
     27 O3         -8.4025   -0.9882   -7.9899 O.3       1 <0>        -0.3133
     28 C20        -9.2029   -1.8684   -8.7815 C.3       1 <0>         0.0246
     29 C21        -2.6622   -5.0083   -1.2138 C.ar      1 <0>         0.5311
     30 N4         -1.9371   -4.1560   -0.5020 N.ar      1 <0>        -0.5803
     31 N5         -2.5818   -6.3652   -0.9874 N.pl3     1 <0>        -0.6668
     32 C22        -1.6006   -7.1958   -1.7035 C.3       1 <0>         0.1132
     33 C23        -0.8360   -8.0363   -0.6745 C.3       1 <0>         0.0467
     34 O4         -1.7711   -8.7308    0.1544 O.3       1 <0>        -0.3774
     35 C24        -2.6183   -7.8751    0.9250 C.3       1 <0>         0.0466
     36 C25        -3.4705   -7.0254   -0.0180 C.3       1 <0>         0.1133
     37 H3          1.1858    1.8562   -0.3428 H         1 <0>         0.0686
     38 H4         -0.4312    1.8579   -1.0867 H         1 <0>         0.0768
     39 H5         -0.2670    1.8558    0.6856 H         1 <0>         0.0670
     40 H6         -1.7527   -0.0825    0.7485 H         1 <0>         0.0761
     41 H7         -1.8387   -0.3078   -1.0177 H         1 <0>         0.1127
     42 H8         -0.7250   -2.2845    2.0932 H         1 <0>         0.0754
     43 H9         -0.2867   -3.6330    1.0130 H         1 <0>         0.1061
     44 H10         2.0297   -3.4184    2.1343 H         1 <0>         0.0743
     45 H11         2.9383   -1.8993    1.9475 H         1 <0>         0.0693
     46 H12         1.5155   -1.9598    3.0152 H         1 <0>         0.0672
     47 H13        -4.2971   -6.3922   -2.8909 H         1 <0>         0.1435
     48 H14        -5.7365   -5.3452   -4.5941 H         1 <0>         0.1440
     49 H15        -6.7827   -4.5922   -5.8164 H         1 <0>         0.1339
     50 H16        -8.2228   -3.5563   -7.5180 H         1 <0>         0.1371
     51 H17        -5.3754   -0.7118   -4.6586 H         1 <0>         0.1571
     52 H18        -6.5065    0.9885   -7.4340 H         1 <0>         0.0606
     53 H19        -7.8230    1.1152   -6.2428 H         1 <0>         0.0605
     54 H20        -5.8703    2.2983   -5.5405 H         1 <0>         0.3848
     55 H21        -9.8734   -2.4320   -8.1327 H         1 <0>         0.0588
     56 H22        -9.7894   -1.2860   -9.4921 H         1 <0>         0.1032
     57 H23        -8.5565   -2.5587   -9.3235 H         1 <0>         0.0588
     58 H24        -2.1170   -7.8529   -2.4033 H         1 <0>         0.0723
     59 H25        -0.9041   -6.5561   -2.2455 H         1 <0>         0.0792
     60 H26        -0.2025   -8.7570   -1.1915 H         1 <0>         0.1039
     61 H27        -0.2179   -7.3834   -0.0582 H         1 <0>         0.0569
     62 H28        -3.2671   -8.4798    1.5587 H         1 <0>         0.1043
     63 H29        -2.0067   -7.2216    1.5471 H         1 <0>         0.0567
     64 H30        -4.0116   -6.2729    0.5557 H         1 <0>         0.0795
     65 H31        -4.1783   -7.6650   -0.5452 H         1 <0>         0.0720
@<TRIPOS>BOND
     1    1    2 1
     2    1   37 1
     3    1   38 1
     4    1   39 1
     5    2    3 1
     6    2    9 1
     7    2    4 1
     8    4    5 1
     9    4   40 1
    10    4   41 1
    11    5    6 1
    12    5   11 1
    13    6    7 1
    14    6   42 1
    15    6   43 1
    16    7    8 1
    17    7    9 1
    18    7   10 1
    19   10   44 1
    20   10   45 1
    21   10   46 1
    22   11   30 ar
    23   11   12 ar
    24   12   13 ar
    25   13   18 ar
    26   13   14 ar
    27   14   15 ar
    28   14   29 ar
    29   15   16 ar
    30   15   47 1
    31   16   17 ar
    32   16   48 1
    33   17   18 ar
    34   17   19 1
    35   19   24 ar
    36   19   20 ar
    37   20   21 ar
    38   20   49 1
    39   21   22 ar
    40   21   50 1
    41   22   23 ar
    42   22   27 1
    43   23   24 ar
    44   23   25 1
    45   24   51 1
    46   25   26 1
    47   25   52 1
    48   25   53 1
    49   26   54 1
    50   27   28 1
    51   28   55 1
    52   28   56 1
    53   28   57 1
    54   29   30 ar
    55   29   31 1
    56   31   36 1
    57   31   32 1
    58   32   33 1
    59   32   58 1
    60   32   59 1
    61   33   34 1
    62   33   60 1
    63   33   61 1
    64   34   35 1
    65   35   36 1
    66   35   62 1
    67   35   63 1
    68   36   64 1
    69   36   65 1
@<TRIPOS>MOLECULE
ZINC20148984
   41    45     0     0     0
SMALL
USER_CHARGES
1-cyclopentyl-3-(1H-pyrrolo[3,2-e]pyridin-5-yl)pyrazolo[4,5-e]pyrimidin-4-amine
@<TRIPOS>ATOM
      1 C1          4.4845    4.9055    2.0125 C.2       1 <0>        -0.1900
      2 C2          5.5992    4.3307    1.5348 C.2       1 <0>         0.0669
      3 N1          5.2848    3.4893    0.5015 N.pl3     1 <0>        -0.5784
      4 H1          5.9256    2.9627   -0.0014 H         1 <0>         0.4233
      5 C3          3.9281    3.5001    0.2812 C.ar      1 <0>         0.2921
      6 C4          3.3669    4.3889    1.2195 C.ar      1 <0>        -0.1505
      7 C5          1.9890    4.6049    1.2249 C.ar      1 <0>         0.0123
      8 C6          1.2154    3.9130    0.2940 C.ar      1 <0>        -0.1086
      9 C7          1.8449    3.0477   -0.6050 C.ar      1 <0>         0.1517
     10 N2          3.1471    2.8701   -0.5872 N.ar      1 <0>        -0.4865
     11 C8         -0.2553    4.0974    0.2542 C.2       1 <0>         0.1769
     12 C9         -1.2579    3.0400    0.1283 C.ar      1 <0>        -0.3246
     13 C10        -1.2161    1.6416    0.0009 C.ar      1 <0>         0.5185
     14 N3         -2.3661    0.9828   -0.1017 N.ar      1 <0>        -0.6042
     15 C11        -3.5224    1.6223   -0.0898 C.ar      1 <0>         0.3863
     16 N4         -3.6100    2.9293    0.0228 N.ar      1 <0>        -0.5738
     17 C12        -2.5123    3.6779    0.1313 C.ar      1 <0>         0.3755
     18 N5         -2.2765    5.0144    0.2581 N.pl3     1 <0>        -0.3684
     19 N6         -0.8976    5.2388    0.3304 N.2       1 <0>        -0.2292
     20 C13        -3.3071    6.0542    0.3110 C.3       1 <0>         0.1632
     21 C14        -3.0862    7.0753   -0.8240 C.3       1 <0>        -0.1330
     22 C15        -3.4640    8.4369   -0.1879 C.3       1 <0>        -0.1220
     23 C16        -2.9184    8.3038    1.2556 C.3       1 <0>        -0.1210
     24 C17        -3.2009    6.8348    1.6328 C.3       1 <0>        -0.1322
     25 N7         -0.0104    0.9674   -0.0117 N.pl3     1 <0>        -0.8291
     26 H2          4.4234    5.6137    2.8256 H         1 <0>         0.1556
     27 H3          6.5967    4.5059    1.9100 H         1 <0>         0.1829
     28 H4          1.5348    5.2845    1.9308 H         1 <0>         0.1424
     29 H5          1.2485    2.5132   -1.3297 H         1 <0>         0.1671
     30 H6         -4.4328    1.0478   -0.1756 H         1 <0>         0.2050
     31 H7         -4.2959    5.6044    0.2215 H         1 <0>         0.1144
     32 H8         -2.0422    7.0775   -1.1374 H         1 <0>         0.0814
     33 H9         -3.7386    6.8539   -1.6687 H         1 <0>         0.0742
     34 H10        -4.5455    8.5726   -0.1810 H         1 <0>         0.0720
     35 H11        -2.9740    9.2575   -0.7119 H         1 <0>         0.0733
     36 H12        -3.4484    8.9788    1.9276 H         1 <0>         0.0704
     37 H13        -1.8473    8.5043    1.2786 H         1 <0>         0.0705
     38 H14        -4.1384    6.7646    2.1843 H         1 <0>         0.0772
     39 H15        -2.3825    6.4400    2.2349 H         1 <0>         0.0748
     40 H16         0.0305    0.0526   -0.3317 H         1 <0>         0.4120
     41 H17         0.7961    1.4102    0.2956 H         1 <0>         0.4116
@<TRIPOS>BOND
     1    1    6 1
     2    1    2 2
     3    1   26 1
     4    2    3 1
     5    2   27 1
     6    3    4 1
     7    3    5 1
     8    5   10 ar
     9    5    6 ar
    10    6    7 ar
    11    7    8 ar
    12    7   28 1
    13    8    9 ar
    14    8   11 1
    15    9   10 ar
    16    9   29 1
    17   11   19 2
    18   11   12 1
    19   12   17 ar
    20   12   13 ar
    21   13   14 ar
    22   13   25 1
    23   14   15 ar
    24   15   16 ar
    25   15   30 1
    26   16   17 ar
    27   17   18 1
    28   18   19 1
    29   18   20 1
    30   20   24 1
    31   20   21 1
    32   20   31 1
    33   21   22 1
    34   21   32 1
    35   21   33 1
    36   22   23 1
    37   22   34 1
    38   22   35 1
    39   23   24 1
    40   23   36 1
    41   23   37 1
    42   24   38 1
    43   24   39 1
    44   25   40 1
    45   25   41 1
@<TRIPOS>MOLECULE
ZINC43202843
   62    66     0     0     0
SMALL
USER_CHARGES

@<TRIPOS>ATOM
      1 C1          0.0663    1.5038    0.0112 C.3       1 <0>        -0.1003
      2 C2          0.0824   -0.0031    0.0029 C.2       1 <0>        -0.1188
      3 C3          0.1212   -0.6676   -1.1675 C.2       1 <0>        -0.0899
      4 S1          0.1260   -2.3778   -0.6558 S.3       1 <0>         0.1038
      5 C4          0.0759   -2.1184    1.0972 C.ar      1 <0>        -0.3084
      6 C5          0.0627   -0.7114    1.2178 C.ar      1 <0>         0.2180
      7 N1          0.0284   -0.2311    2.4843 N.ar      1 <0>        -0.5330
      8 C6          0.0134   -1.0391    3.5231 C.ar      1 <0>         0.4334
      9 N2          0.0307   -2.3645    3.4179 N.ar      1 <0>        -0.5664
     10 C7          0.0546   -2.9360    2.2150 C.ar      1 <0>         0.5100
     11 N3          0.0727   -4.3152    2.0853 N.pl3     1 <0>        -0.5948
     12 C8          0.1949   -5.1855    3.2656 C.3       1 <0>         0.0867
     13 C9         -0.9159   -6.2403    3.2056 C.3       1 <0>         0.0450
     14 O1         -0.8807   -6.8890    1.9321 O.3       1 <0>        -0.3749
     15 C10        -1.1300   -6.0193    0.8251 C.3       1 <0>         0.0494
     16 C11        -0.0359   -4.9533    0.7637 C.3       1 <0>         0.0888
     17 C12        -0.0242   -0.4414    4.8790 C.ar      1 <0>        -0.2179
     18 C13        -0.0357   -1.2505    6.0189 C.ar      1 <0>         0.2462
     19 N4         -0.0694   -0.6801    7.2097 N.ar      1 <0>        -0.5746
     20 C14        -0.0922    0.6398    7.3314 C.ar      1 <0>         0.5760
     21 N5         -0.0823    1.4402    6.2746 N.ar      1 <0>        -0.5738
     22 C15        -0.0432    0.9459    5.0504 C.ar      1 <0>         0.2480
     23 N6         -0.1278    1.1973    8.5958 N.pl3     1 <0>        -0.8132
     24 C16         0.1522   -0.1059   -2.5656 C.3       1 <0>         0.1316
     25 N7          1.5466    0.0925   -2.9829 N.3       1 <0>        -0.5299
     26 C17         2.1978    1.1271   -2.1683 C.3       1 <0>         0.0340
     27 C18         3.6909    1.1766   -2.5096 C.3       1 <0>         0.1221
     28 N8          3.8323    1.3491   -3.9634 N.pl3     1 <0>        -1.0029
     29 C19         3.0971    0.4323   -4.8477 C.3       1 <0>         0.1225
     30 C20         1.6274    0.4121   -4.4144 C.3       1 <0>         0.0445
     31 S2          4.7944    2.5435   -4.5879 S.o2      1 <0>         2.6089
     32 O2          4.2447    2.8191   -5.8690 O.2       1 <0>        -0.9540
     33 O3          4.8259    3.5468   -3.5821 O.2       1 <0>        -0.9534
     34 C21         6.4312    1.7809   -4.7612 C.3       1 <0>        -0.6726
     35 H1          1.0897    1.8780    0.0366 H         1 <0>         0.0749
     36 H2         -0.4310    1.8668   -0.8883 H         1 <0>         0.0654
     37 H3         -0.4715    1.8565    0.8912 H         1 <0>         0.0774
     38 H4          1.1680   -5.6765    3.2605 H         1 <0>         0.0789
     39 H5          0.0878   -4.5909    4.1728 H         1 <0>         0.1103
     40 H6         -0.7613   -6.9771    3.9938 H         1 <0>         0.1116
     41 H7         -1.8838   -5.7579    3.3418 H         1 <0>         0.0584
     42 H8         -1.1294   -6.5970   -0.0991 H         1 <0>         0.1139
     43 H9         -2.0987   -5.5361    0.9527 H         1 <0>         0.0589
     44 H10        -0.2957   -4.2049    0.0150 H         1 <0>         0.0896
     45 H11         0.9136   -5.4204    0.5025 H         1 <0>         0.0879
     46 H12        -0.0176   -2.3264    5.9272 H         1 <0>         0.1785
     47 H13        -0.0306    1.6039    4.1940 H         1 <0>         0.1811
     48 H14        -0.1357    0.6242    9.3784 H         1 <0>         0.4169
     49 H15        -0.1448    2.1615    8.7005 H         1 <0>         0.4172
     50 H16        -0.3357   -0.8021   -3.2478 H         1 <0>         0.0990
     51 H17        -0.3723    0.8495   -2.5849 H         1 <0>         0.0678
     52 H18         1.7441    2.0954   -2.3795 H         1 <0>         0.0474
     53 H19         2.0739    0.8896   -1.1117 H         1 <0>         0.0961
     54 H20         4.1566    2.0165   -1.9942 H         1 <0>         0.0994
     55 H21         4.1676    0.2454   -2.2033 H         1 <0>         0.0774
     56 H22         3.1702    0.7802   -5.8781 H         1 <0>         0.1006
     57 H23         3.5167   -0.5704   -4.7662 H         1 <0>         0.0789
     58 H24         1.0897   -0.3439   -4.9867 H         1 <0>         0.0923
     59 H25         1.1816    1.3904   -4.5943 H         1 <0>         0.0468
     60 H26         6.3639    0.9250   -5.4327 H         1 <0>         0.1277
     61 H27         7.1302    2.5100   -5.1709 H         1 <0>         0.1283
     62 H28         6.7829    1.4495   -3.7842 H         1 <0>         0.1275
@<TRIPOS>BOND
     1    1    2 1
     2    1   35 1
     3    1   36 1
     4    1   37 1
     5    2    6 1
     6    2    3 2
     7    3    4 1
     8    3   24 1
     9    4    5 1
    10    5   10 ar
    11    5    6 ar
    12    6    7 ar
    13    7    8 ar
    14    8    9 ar
    15    8   17 1
    16    9   10 ar
    17   10   11 1
    18   11   16 1
    19   11   12 1
    20   12   13 1
    21   12   38 1
    22   12   39 1
    23   13   14 1
    24   13   40 1
    25   13   41 1
    26   14   15 1
    27   15   16 1
    28   15   42 1
    29   15   43 1
    30   16   44 1
    31   16   45 1
    32   17   22 ar
    33   17   18 ar
    34   18   19 ar
    35   18   46 1
    36   19   20 ar
    37   20   21 ar
    38   20   23 1
    39   21   22 ar
    40   22   47 1
    41   23   48 1
    42   23   49 1
    43   24   25 1
    44   24   50 1
    45   24   51 1
    46   25   30 1
    47   25   26 1
    48   26   27 1
    49   26   52 1
    50   26   53 1
    51   27   28 1
    52   27   54 1
    53   27   55 1
    54   28   29 1
    55   28   31 1
    56   29   30 1
    57   29   56 1
    58   29   57 1
    59   30   58 1
    60   30   59 1
    61   31   32 2
    62   31   33 2
    63   31   34 1
    64   34   60 1
    65   34   61 1
    66   34   62 1
@<TRIPOS>MOLECULE
ZINC43202843
   63    67     0     0     0
SMALL
USER_CHARGES

@<TRIPOS>ATOM
      1 C1          0.0663    1.5038    0.0112 C.3       1 <0>        -0.1242
      2 C2          0.0824   -0.0031    0.0029 C.2       1 <0>        -0.0388
      3 C3          0.1212   -0.6676   -1.1675 C.2       1 <0>        -0.2275
      4 S1          0.1260   -2.3778   -0.6558 S.3       1 <0>         0.1269
      5 C4          0.0759   -2.1184    1.0972 C.ar      1 <0>        -0.2903
      6 C5          0.0627   -0.7114    1.2178 C.ar      1 <0>         0.1970
      7 N1          0.0284   -0.2311    2.4843 N.ar      1 <0>        -0.5281
      8 C6          0.0134   -1.0391    3.5231 C.ar      1 <0>         0.4529
      9 N2          0.0307   -2.3645    3.4179 N.ar      1 <0>        -0.5514
     10 C7          0.0546   -2.9360    2.2150 C.ar      1 <0>         0.5109
     11 N3          0.0727   -4.3152    2.0853 N.pl3     1 <0>        -0.5893
     12 C8          0.1949   -5.1855    3.2656 C.3       1 <0>         0.0831
     13 C9         -0.9159   -6.2403    3.2056 C.3       1 <0>         0.0435
     14 O1         -0.8807   -6.8890    1.9321 O.3       1 <0>        -0.3700
     15 C10        -1.1300   -6.0193    0.8251 C.3       1 <0>         0.0481
     16 C11        -0.0359   -4.9533    0.7637 C.3       1 <0>         0.0915
     17 C12        -0.0242   -0.4414    4.8790 C.ar      1 <0>        -0.2377
     18 C13        -0.0357   -1.2505    6.0189 C.ar      1 <0>         0.2547
     19 N4         -0.0694   -0.6801    7.2097 N.ar      1 <0>        -0.5723
     20 C14        -0.0922    0.6398    7.3314 C.ar      1 <0>         0.5850
     21 N5         -0.0823    1.4402    6.2746 N.ar      1 <0>        -0.5733
     22 C15        -0.0432    0.9459    5.0504 C.ar      1 <0>         0.2547
     23 N6         -0.1278    1.1973    8.5958 N.pl3     1 <0>        -0.8063
     24 C16         0.1522   -0.1059   -2.5656 C.3       1 <0>         0.0916
     25 N7          1.5466    0.0925   -2.9829 N.4       1 <0>        -0.3826
     26 C17         2.1706    1.1118   -2.1298 C.3       1 <0>        -0.0315
     27 C18         3.6551    1.2374   -2.4883 C.3       1 <0>         0.0947
     28 N8          3.7655    1.5025   -3.9311 N.pl3     1 <0>        -1.0164
     29 C19         3.0341    0.6225   -4.8557 C.3       1 <0>         0.0931
     30 C20         1.5790    0.5260   -4.3854 C.3       1 <0>        -0.0189
     31 S2          4.6867    2.7563   -4.4984 S.o2      1 <0>         2.6061
     32 O2          4.1063    3.0952   -5.7503 O.2       1 <0>        -0.9392
     33 O3          4.7135    3.6971   -3.4338 O.2       1 <0>        -0.9389
     34 C21         6.3376    2.0467   -4.7468 C.3       1 <0>        -0.6665
     35 H1          1.0897    1.8780    0.0366 H         1 <0>         0.0853
     36 H2         -0.4310    1.8668   -0.8883 H         1 <0>         0.0739
     37 H3         -0.4715    1.8565    0.8912 H         1 <0>         0.0967
     38 H4          1.1680   -5.6765    3.2605 H         1 <0>         0.0853
     39 H5          0.0878   -4.5909    4.1728 H         1 <0>         0.1137
     40 H6         -0.7613   -6.9771    3.9938 H         1 <0>         0.1174
     41 H7         -1.8838   -5.7579    3.3418 H         1 <0>         0.0612
     42 H8         -1.1294   -6.5970   -0.0991 H         1 <0>         0.1165
     43 H9         -2.0987   -5.5361    0.9527 H         1 <0>         0.0609
     44 H10        -0.2957   -4.2049    0.0150 H         1 <0>         0.0810
     45 H11         0.9136   -5.4204    0.5025 H         1 <0>         0.0928
     46 H12        -0.0176   -2.3264    5.9272 H         1 <0>         0.1791
     47 H13        -0.0306    1.6039    4.1940 H         1 <0>         0.1798
     48 H14        -0.1357    0.6242    9.3784 H         1 <0>         0.4202
     49 H15        -0.1448    2.1615    8.7005 H         1 <0>         0.4199
     50 H16        -0.3357   -0.8021   -3.2478 H         1 <0>         0.1511
     51 H17        -0.3723    0.8495   -2.5849 H         1 <0>         0.1515
     52 H18         1.6762    2.0703   -2.2879 H         1 <0>         0.1415
     53 H19         2.0727    0.8202   -1.0841 H         1 <0>         0.1454
     54 H20         4.0984    2.0615   -1.9295 H         1 <0>         0.1409
     55 H21         4.1702    0.3078   -2.2462 H         1 <0>         0.0984
     56 H22         3.0669    1.0402   -5.8619 H         1 <0>         0.1422
     57 H23         3.4866   -0.3691   -4.8526 H         1 <0>         0.0994
     58 H24         1.0451   -0.1973   -5.0018 H         1 <0>         0.1485
     59 H25         1.1025    1.5022   -4.4752 H         1 <0>         0.1402
     60 H26         6.2780    1.2316   -5.4680 H         1 <0>         0.1318
     61 H27         7.0111    2.8165   -5.1234 H         1 <0>         0.1387
     62 H28         6.7157    1.6655   -3.7982 H         1 <0>         0.1315
     63 H29         2.0513   -0.7762   -2.8889 H         1 <0>         0.4243
@<TRIPOS>BOND
     1    1    2 1
     2    1   35 1
     3    1   36 1
     4    1   37 1
     5    2    6 1
     6    2    3 2
     7    3    4 1
     8    3   24 1
     9    4    5 1
    10    5   10 ar
    11    5    6 ar
    12    6    7 ar
    13    7    8 ar
    14    8    9 ar
    15    8   17 1
    16    9   10 ar
    17   10   11 1
    18   11   16 1
    19   11   12 1
    20   12   13 1
    21   12   38 1
    22   12   39 1
    23   13   14 1
    24   13   40 1
    25   13   41 1
    26   14   15 1
    27   15   16 1
    28   15   42 1
    29   15   43 1
    30   16   44 1
    31   16   45 1
    32   17   22 ar
    33   17   18 ar
    34   18   19 ar
    35   18   46 1
    36   19   20 ar
    37   20   21 ar
    38   20   23 1
    39   21   22 ar
    40   22   47 1
    41   23   48 1
    42   23   49 1
    43   24   25 1
    44   24   50 1
    45   24   51 1
    46   25   30 1
    47   25   26 1
    48   25   63 1
    49   26   27 1
    50   26   52 1
    51   26   53 1
    52   27   28 1
    53   27   54 1
    54   27   55 1
    55   28   29 1
    56   28   31 1
    57   29   30 1
    58   29   56 1
    59   29   57 1
    60   30   58 1
    61   30   59 1
    62   31   32 2
    63   31   33 2
    64   31   34 1
    65   34   60 1
    66   34   61 1
    67   34   62 1
@<TRIPOS>MOLECULE
ZINC49780622
   81    85     0     0     0
SMALL
USER_CHARGES

@<TRIPOS>ATOM
      1 C1          1.5483   -9.3792    0.3889 C.3       1 <0>        -0.0461
      2 N1          1.1973   -8.0050    0.7715 N.4       1 <0>        -0.3830
      3 C2          1.7086   -7.0696   -0.2393 C.3       1 <0>        -0.0524
      4 C3         -0.2637   -7.8794    0.8603 C.3       1 <0>        -0.0318
      5 C4         -0.6252   -6.4861    1.3786 C.3       1 <0>         0.0935
      6 N2         -2.0822   -6.3609    1.4672 N.am      1 <0>        -0.6138
      7 C5         -2.7755   -6.7325    2.7031 C.3       1 <0>         0.0638
      8 C6         -2.7847   -5.9039    0.4117 C.2       1 <0>         0.5736
      9 O1         -2.2249   -5.6972   -0.6477 O.2       1 <0>        -0.5278
     10 C7         -4.2334   -5.6543    0.5417 C.ar      1 <0>        -0.1686
     11 C8         -4.7556   -5.1708    1.7445 C.ar      1 <0>        -0.0679
     12 C9         -6.1074   -4.9392    1.8625 C.ar      1 <0>        -0.1277
     13 C10        -6.9537   -5.1858    0.7859 C.ar      1 <0>         0.2023
     14 C11        -6.4372   -5.6676   -0.4128 C.ar      1 <0>        -0.1528
     15 C12        -5.0855   -5.8955   -0.5395 C.ar      1 <0>        -0.0360
     16 N3         -8.3223   -4.9501    0.9088 N.am      1 <0>        -0.6827
     17 C13        -8.9424   -5.1773    2.0837 C.2       1 <0>         0.7066
     18 O2         -8.2951   -5.5044    3.0594 O.2       1 <0>        -0.5493
     19 N4        -10.2802   -5.0419    2.1768 N.am      1 <0>        -0.6774
     20 C14       -10.9106   -5.1702    3.4170 C.ar      1 <0>         0.1771
     21 C15       -10.2748   -4.7201    4.5684 C.ar      1 <0>        -0.1280
     22 C16       -10.8947   -4.8450    5.7929 C.ar      1 <0>        -0.0487
     23 C17       -12.1612   -5.4238    5.8763 C.ar      1 <0>        -0.0533
     24 C18       -12.7970   -5.8747    4.7193 C.ar      1 <0>        -0.0458
     25 C19       -12.1750   -5.7426    3.4967 C.ar      1 <0>        -0.1516
     26 C20       -12.8297   -5.5599    7.1914 C.ar      1 <0>         0.3966
     27 N5        -12.2050   -5.1187    8.2722 N.ar      1 <0>        -0.5211
     28 C21       -12.7706   -5.2215    9.4720 C.ar      1 <0>         0.3344
     29 C22       -14.0467   -5.8088    9.5689 C.ar      1 <0>        -0.2055
     30 C23       -14.4011   -5.7825   10.9864 C.2       1 <0>        -0.1477
     31 C24       -13.3725   -5.2103   11.6339 C.2       1 <0>         0.0548
     32 N6        -12.3909   -4.8703   10.7389 N.pl3     1 <0>        -0.4707
     33 C25       -11.1224   -4.2258   11.0877 C.3       1 <0>         0.0725
     34 C26       -11.2544   -2.7117   10.9122 C.3       1 <0>         0.4365
     35 F1        -12.2670   -2.2317   11.7497 F         1 <0>        -0.1771
     36 F2        -10.0430   -2.0963   11.2453 F         1 <0>        -0.1741
     37 F3        -11.5739   -2.4225    9.5812 F         1 <0>        -0.1696
     38 C27       -14.6731   -6.2635    8.3971 C.ar      1 <0>         0.4889
     39 N7        -14.0365   -6.1153    7.2411 N.ar      1 <0>        -0.5387
     40 N8        -15.9266   -6.8468    8.4452 N.pl3     1 <0>        -0.6623
     41 C28       -17.1414   -6.0526    8.2025 C.3       1 <0>         0.1152
     42 C29       -17.9926   -6.7791    7.1548 C.3       1 <0>         0.0460
     43 O3        -18.1913   -8.1336    7.5668 O.3       1 <0>        -0.3782
     44 C30       -16.9872   -8.8978    7.6662 C.3       1 <0>         0.0461
     45 C31       -16.0841   -8.2810    8.7344 C.3       1 <0>         0.1159
     46 H1          2.6323   -9.4723    0.3231 H         1 <0>         0.1264
     47 H2          1.1689  -10.0732    1.1389 H         1 <0>         0.1231
     48 H3          1.1042   -9.6116   -0.5789 H         1 <0>         0.1222
     49 H4          1.4481   -6.0499    0.0446 H         1 <0>         0.1244
     50 H5          2.7926   -7.1627   -0.3051 H         1 <0>         0.1264
     51 H6          1.2644   -7.3020   -1.2071 H         1 <0>         0.1247
     52 H7         -0.7015   -8.0246   -0.1273 H         1 <0>         0.1342
     53 H8         -0.6522   -8.6338    1.5445 H         1 <0>         0.1319
     54 H9         -0.1874   -6.3409    2.3662 H         1 <0>         0.1017
     55 H10        -0.2367   -5.7318    0.6944 H         1 <0>         0.1060
     56 H11        -2.7692   -5.8873    3.3914 H         1 <0>         0.0717
     57 H12        -3.8053   -7.0065    2.4737 H         1 <0>         0.0940
     58 H13        -2.2680   -7.5800    3.1637 H         1 <0>         0.0736
     59 H14        -4.0993   -4.9795    2.5807 H         1 <0>         0.1370
     60 H15        -6.5116   -4.5659    2.7918 H         1 <0>         0.1521
     61 H16        -7.0968   -5.8587   -1.2463 H         1 <0>         0.1378
     62 H17        -4.6846   -6.2650   -1.4718 H         1 <0>         0.1369
     63 H18        -8.8282   -4.6226    0.1487 H         1 <0>         0.4147
     64 H19       -10.8052   -4.8554    1.3828 H         1 <0>         0.4121
     65 H20        -9.2941   -4.2724    4.5034 H         1 <0>         0.1373
     66 H21       -10.4002   -4.4955    6.6871 H         1 <0>         0.1392
     67 H22       -13.7775   -6.3232    4.7813 H         1 <0>         0.1428
     68 H23       -12.6685   -6.0878    2.6002 H         1 <0>         0.1324
     69 H24       -15.3146   -6.1519   11.4284 H         1 <0>         0.1600
     70 H25       -13.3260   -5.0425   12.6998 H         1 <0>         0.1869
     71 H26       -10.8734   -4.4511   12.1247 H         1 <0>         0.1411
     72 H27       -10.3334   -4.5998   10.4351 H         1 <0>         0.1372
     73 H28       -17.7061   -5.9530    9.1294 H         1 <0>         0.0698
     74 H29       -16.8665   -5.0652    7.8316 H         1 <0>         0.0780
     75 H30       -18.9580   -6.2816    7.0615 H         1 <0>         0.1025
     76 H31       -17.4792   -6.7625    6.1935 H         1 <0>         0.0566
     77 H32       -17.2292   -9.9245    7.9407 H         1 <0>         0.1028
     78 H33       -16.4701   -8.8889    6.7066 H         1 <0>         0.0553
     79 H34       -15.1094   -8.7685    8.7157 H         1 <0>         0.0771
     80 H35       -16.5406   -8.4095    9.7159 H         1 <0>         0.0694
     81 H36         1.6084   -7.7898    1.6674 H         1 <0>         0.4265
@<TRIPOS>BOND
     1    1    2 1
     2    1   46 1
     3    1   47 1
     4    1   48 1
     5    2    3 1
     6    2    4 1
     7    2   81 1
     8    3   49 1
     9    3   50 1
    10    3   51 1
    11    4    5 1
    12    4   52 1
    13    4   53 1
    14    5    6 1
    15    5   54 1
    16    5   55 1
    17    6    7 1
    18    6    8 am
    19    7   56 1
    20    7   57 1
    21    7   58 1
    22    8    9 2
    23    8   10 1
    24   10   15 ar
    25   10   11 ar
    26   11   12 ar
    27   11   59 1
    28   12   13 ar
    29   12   60 1
    30   13   14 ar
    31   13   16 1
    32   14   15 ar
    33   14   61 1
    34   15   62 1
    35   16   17 am
    36   16   63 1
    37   17   18 2
    38   17   19 am
    39   19   20 1
    40   19   64 1
    41   20   25 ar
    42   20   21 ar
    43   21   22 ar
    44   21   65 1
    45   22   23 ar
    46   22   66 1
    47   23   24 ar
    48   23   26 1
    49   24   25 ar
    50   24   67 1
    51   25   68 1
    52   26   39 ar
    53   26   27 ar
    54   27   28 ar
    55   28   32 1
    56   28   29 ar
    57   29   30 1
    58   29   38 ar
    59   30   31 2
    60   30   69 1
    61   31   32 1
    62   31   70 1
    63   32   33 1
    64   33   34 1
    65   33   71 1
    66   33   72 1
    67   34   35 1
    68   34   36 1
    69   34   37 1
    70   38   39 ar
    71   38   40 1
    72   40   45 1
    73   40   41 1
    74   41   42 1
    75   41   73 1
    76   41   74 1
    77   42   43 1
    78   42   75 1
    79   42   76 1
    80   43   44 1
    81   44   45 1
    82   44   77 1
    83   44   78 1
    84   45   79 1
    85   45   80 1
@<TRIPOS>MOLECULE
ZINC20148983
   39    42     0     0     0
SMALL
USER_CHARGES
1-isopropyl-3-(6-quinolyl)pyrazolo[4,5-e]pyrimidin-4-amine
@<TRIPOS>ATOM
      1 C1          1.0254    8.7978   -2.0248 C.3       1 <0>        -0.1621
      2 C2          1.2018    8.9153   -0.5095 C.3       1 <0>         0.1606
      3 C3         -0.1710    9.0289    0.1564 C.3       1 <0>        -0.1621
      4 N1          1.8926    7.7262   -0.0046 N.pl3     1 <0>        -0.3691
      5 C4          3.0880    7.7288    0.6508 C.ar      1 <0>         0.3756
      6 C5          3.3891    6.3885    0.9574 C.ar      1 <0>        -0.3235
      7 C6          2.2832    5.5859    0.4354 C.2       1 <0>         0.1611
      8 N2          1.4309    6.4112   -0.1252 N.2       1 <0>        -0.2249
      9 C7          2.1525    4.1119    0.5188 C.ar      1 <0>        -0.0128
     10 C8          1.7465    3.3824   -0.6110 C.ar      1 <0>        -0.0754
     11 C9          1.6190    2.0318   -0.5611 C.ar      1 <0>        -0.0829
     12 C10         1.8956    1.3409    0.6333 C.ar      1 <0>         0.1347
     13 C11         2.3061    2.0687    1.7786 C.ar      1 <0>        -0.1018
     14 C12         2.4317    3.4637    1.7084 C.ar      1 <0>        -0.0831
     15 C13         2.5804    1.3697    2.9700 C.ar      1 <0>        -0.0542
     16 C14         2.4374    0.0111    2.9678 C.ar      1 <0>        -0.1718
     17 C15         2.0303   -0.6425    1.8073 C.ar      1 <0>         0.1391
     18 N3          1.7757    0.0115    0.6997 N.ar      1 <0>        -0.4734
     19 C16         4.5832    6.1084    1.6415 C.ar      1 <0>         0.5181
     20 N4          5.3762    7.1241    1.9688 N.ar      1 <0>        -0.6038
     21 C17         5.0541    8.3678    1.6609 C.ar      1 <0>         0.3865
     22 N5          3.9473    8.6775    1.0220 N.ar      1 <0>        -0.5731
     23 N6          4.9255    4.8098    1.9657 N.pl3     1 <0>        -0.8303
     24 H1          2.0034    8.7169   -2.4992 H         1 <0>         0.0603
     25 H2          0.4358    7.9102   -2.2542 H         1 <0>         0.0702
     26 H3          0.5114    9.6825   -2.4004 H         1 <0>         0.0791
     27 H4          1.7914    9.8029   -0.2801 H         1 <0>         0.1120
     28 H5         -0.0453    9.1126    1.2359 H         1 <0>         0.0600
     29 H6         -0.6850    9.9136   -0.2192 H         1 <0>         0.0791
     30 H7         -0.7606    8.1413   -0.0730 H         1 <0>         0.0701
     31 H8          1.5326    3.9036   -1.5325 H         1 <0>         0.1376
     32 H9          1.3057    1.4868   -1.4393 H         1 <0>         0.1440
     33 H10         2.7434    4.0269    2.5755 H         1 <0>         0.1398
     34 H11         2.8910    1.8936    3.8619 H         1 <0>         0.1419
     35 H12         2.6394   -0.5553    3.8649 H         1 <0>         0.1418
     36 H13         1.9210   -1.7169    1.8201 H         1 <0>         0.1629
     37 H14         5.7273    9.1628    1.9460 H         1 <0>         0.2058
     38 H15         4.4796    4.0672    1.5292 H         1 <0>         0.4125
     39 H16         5.6119    4.6406    2.6300 H         1 <0>         0.4110
@<TRIPOS>BOND
     1    1    2 1
     2    1   24 1
     3    1   25 1
     4    1   26 1
     5    2    3 1
     6    2    4 1
     7    2   27 1
     8    3   28 1
     9    3   29 1
    10    3   30 1
    11    4    8 1
    12    4    5 1
    13    5   22 ar
    14    5    6 ar
    15    6    7 1
    16    6   19 ar
    17    7    8 2
    18    7    9 1
    19    9   14 ar
    20    9   10 ar
    21   10   11 ar
    22   10   31 1
    23   11   12 ar
    24   11   32 1
    25   12   18 ar
    26   12   13 ar
    27   13   14 ar
    28   13   15 ar
    29   14   33 1
    30   15   16 ar
    31   15   34 1
    32   16   17 ar
    33   16   35 1
    34   17   18 ar
    35   17   36 1
    36   19   20 ar
    37   19   23 1
    38   20   21 ar
    39   21   22 ar
    40   21   37 1
    41   23   38 1
    42   23   39 1
@<TRIPOS>MOLECULE
ZINC08581906
   35    37     0     0     0
SMALL
USER_CHARGES

@<TRIPOS>ATOM
      1 C1          0.4062    0.7134    0.7743 C.3       1 <0>        -0.1622
      2 C2          0.2062   -0.7227    0.2861 C.3       1 <0>         0.1603
      3 C3          0.8807   -1.6910    1.2599 C.3       1 <0>        -0.1622
      4 N1         -1.2267   -1.0197    0.2161 N.pl3     1 <0>        -0.3682
      5 C4         -1.9008   -1.3860   -0.9107 C.ar      1 <0>         0.3764
      6 C5         -3.2452   -1.5750   -0.5394 C.ar      1 <0>        -0.3225
      7 C6         -3.3224   -1.2938    0.8939 C.2       1 <0>         0.1576
      8 N2         -2.1144   -0.9772    1.2964 N.2       1 <0>        -0.2230
      9 C7         -4.5398   -1.3596    1.7373 C.ar      1 <0>         0.0119
     10 C8         -5.4110   -2.4425    1.6242 C.ar      1 <0>        -0.1154
     11 C9         -6.5434   -2.5019    2.4107 C.ar      1 <0>        -0.0699
     12 C10        -6.8177   -1.4892    3.3123 C.ar      1 <0>        -0.1122
     13 C11        -5.9551   -0.4073    3.4309 C.ar      1 <0>         0.1435
     14 C12        -4.8137   -0.3425    2.6492 C.ar      1 <0>        -0.1062
     15 O1         -6.2283    0.5856    4.3181 O.3       1 <0>        -0.4823
     16 Br1        -8.3720   -1.5780    4.3858 Br        1 <0>        -0.0262
     17 C13        -4.1663   -1.9613   -1.5268 C.ar      1 <0>         0.5186
     18 N3         -3.7252   -2.1311   -2.7695 N.ar      1 <0>        -0.6031
     19 C14        -2.4536   -1.9426   -3.0738 C.ar      1 <0>         0.3877
     20 N4         -1.5560   -1.5814   -2.1832 N.ar      1 <0>        -0.5731
     21 N5         -5.4973   -2.1603   -1.2145 N.pl3     1 <0>        -0.8288
     22 H1          1.4723    0.9344    0.8264 H         1 <0>         0.0796
     23 H2         -0.0744    1.4033    0.0805 H         1 <0>         0.0606
     24 H3         -0.0369    0.8258    1.7638 H         1 <0>         0.0698
     25 H4          0.6493   -0.8351   -0.7034 H         1 <0>         0.1127
     26 H5          0.4376   -1.5786    2.2494 H         1 <0>         0.0699
     27 H6          0.7383   -2.7142    0.9121 H         1 <0>         0.0604
     28 H7          1.9468   -1.4701    1.3120 H         1 <0>         0.0794
     29 H8         -5.1997   -3.2345    0.9210 H         1 <0>         0.1438
     30 H9         -7.2175   -3.3410    2.3219 H         1 <0>         0.1472
     31 H10        -4.1397    0.4960    2.7436 H         1 <0>         0.1455
     32 H11        -5.8524    0.4419    5.1973 H         1 <0>         0.3991
     33 H12        -2.1380   -2.0919   -4.0958 H         1 <0>         0.2063
     34 H13        -5.8559   -1.8196   -0.3801 H         1 <0>         0.4127
     35 H14        -6.0732   -2.6406   -1.8297 H         1 <0>         0.4121
@<TRIPOS>BOND
     1    1    2 1
     2    1   22 1
     3    1   23 1
     4    1   24 1
     5    2    3 1
     6    2    4 1
     7    2   25 1
     8    3   26 1
     9    3   27 1
    10    3   28 1
    11    4    8 1
    12    4    5 1
    13    5   20 ar
    14    5    6 ar
    15    6    7 1
    16    6   17 ar
    17    7    8 2
    18    7    9 1
    19    9   14 ar
    20    9   10 ar
    21   10   11 ar
    22   10   29 1
    23   11   12 ar
    24   11   30 1
    25   12   13 ar
    26   12   16 1
    27   13   14 ar
    28   13   15 1
    29   14   31 1
    30   15   32 1
    31   17   18 ar
    32   17   21 1
    33   18   19 ar
    34   19   20 ar
    35   19   33 1
    36   21   34 1
    37   21   35 1
@<TRIPOS>MOLECULE
ZINC36056301
   39    42     0     0     0
SMALL
USER_CHARGES

@<TRIPOS>ATOM
      1 C1          0.9254    1.9991    0.1115 C.3       1 <0>        -0.1625
      2 C2          0.5644    0.5164    0.0017 C.3       1 <0>         0.1602
      3 C3         -0.9547    0.3678   -0.1037 C.3       1 <0>        -0.1630
      4 N1          1.1948   -0.0526   -1.1921 N.pl3     1 <0>        -0.3660
      5 C4          2.0845   -1.0857   -1.1960 C.ar      1 <0>         0.3791
      6 C5          2.4399   -1.3150   -2.5382 C.ar      1 <0>        -0.3289
      7 C6          1.6949   -0.3401   -3.3365 C.2       1 <0>         0.1761
      8 N2          0.9724    0.3761   -2.5050 N.2       1 <0>        -0.2098
      9 C7          1.7418   -0.1929   -4.8056 C.2       1 <0>         0.1339
     10 C8          0.6708    0.0518   -5.6025 C.2       1 <0>        -0.1346
     11 C9          1.1678    0.1218   -6.9754 C.ar      1 <0>        -0.0943
     12 C10         0.5575    0.3431   -8.2141 C.ar      1 <0>        -0.0897
     13 C11         1.3249    0.3481   -9.3611 C.ar      1 <0>         0.0805
     14 C12         2.6992    0.1341   -9.2873 C.ar      1 <0>        -0.1109
     15 C13         3.3112   -0.0854   -8.0732 C.ar      1 <0>        -0.1139
     16 C14         2.5568   -0.0941   -6.9049 C.ar      1 <0>         0.1038
     17 N3          2.8789   -0.2768   -5.5757 N.pl3     1 <0>        -0.5932
     18 H1          3.7722   -0.4418   -5.2356 H         1 <0>         0.4168
     19 O1          0.7369    0.5623  -10.5684 O.3       1 <0>        -0.4967
     20 C15         3.3555   -2.3402   -2.8244 C.ar      1 <0>         0.5168
     21 N4          3.8460   -3.0492   -1.8121 N.ar      1 <0>        -0.6021
     22 C16         3.4845   -2.7997   -0.5663 C.ar      1 <0>         0.3889
     23 N5          2.6311   -1.8502   -0.2510 N.ar      1 <0>        -0.5714
     24 N6          3.7369   -2.6060   -4.1255 N.pl3     1 <0>        -0.8317
     25 H2          2.0076    2.1050    0.1866 H         1 <0>         0.0602
     26 H3          0.5693    2.5263   -0.7736 H         1 <0>         0.0709
     27 H4          0.4564    2.4224    0.9997 H         1 <0>         0.0802
     28 H5          0.9205   -0.0108    0.8868 H         1 <0>         0.1134
     29 H6         -1.3108    0.8949   -0.9888 H         1 <0>         0.0712
     30 H7         -1.2119   -0.6886   -0.1820 H         1 <0>         0.0610
     31 H8         -1.4237    0.7911    0.7845 H         1 <0>         0.0801
     32 H9         -0.3538    0.1719   -5.2829 H         1 <0>         0.1573
     33 H10        -0.5081    0.5089   -8.2728 H         1 <0>         0.1338
     34 H11         3.2906    0.1399  -10.1910 H         1 <0>         0.1358
     35 H12         4.3776   -0.2505   -8.0283 H         1 <0>         0.1290
     36 H13         0.6969    1.4933  -10.8268 H         1 <0>         0.3892
     37 H14         3.9074   -3.3999    0.2258 H         1 <0>         0.2077
     38 H15         3.2729   -2.1806   -4.8634 H         1 <0>         0.4091
     39 H16         4.4688   -3.2179   -4.3009 H         1 <0>         0.4134
@<TRIPOS>BOND
     1    1    2 1
     2    1   25 1
     3    1   26 1
     4    1   27 1
     5    2    3 1
     6    2    4 1
     7    2   28 1
     8    3   29 1
     9    3   30 1
    10    3   31 1
    11    4    8 1
    12    4    5 1
    13    5   23 ar
    14    5    6 ar
    15    6    7 1
    16    6   20 ar
    17    7    8 2
    18    7    9 1
    19    9   17 1
    20    9   10 2
    21   10   11 1
    22   10   32 1
    23   11   16 ar
    24   11   12 ar
    25   12   13 ar
    26   12   33 1
    27   13   14 ar
    28   13   19 1
    29   14   15 ar
    30   14   34 1
    31   15   16 ar
    32   15   35 1
    33   16   17 1
    34   17   18 1
    35   19   36 1
    36   20   21 ar
    37   20   24 1
    38   21   22 ar
    39   22   23 ar
    40   22   37 1
    41   24   38 1
    42   24   39 1
@<TRIPOS>MOLECULE
ZINC36056301
   40    43     0     0     0
SMALL
NO_CHARGES

@<TRIPOS>ATOM
      1 C1          0.4668   -0.4939    1.1218 C.3       1 <0>        -0.1699
      2 C2          0.3340   -1.7615    0.2754 C.3       1 <0>         0.1613
      3 C3          1.1061   -2.9024    0.9410 C.3       1 <0>        -0.1701
      4 N1         -1.0799   -2.1284    0.1641 N.pl3     1 <0>        -0.3634
      5 C4         -1.7908   -2.2350   -1.0057 C.ar      1 <0>         0.4043
      6 C5         -3.1109   -2.6092   -0.6652 C.ar      1 <0>        -0.2157
      7 C6         -4.0447   -2.7836   -1.7054 C.ar      1 <0>         0.3985
      8 N2         -3.6387   -2.5876   -2.9589 N.ar      1 <0>        -0.5485
      9 C7         -2.3961   -2.2391   -3.2258 C.ar      1 <0>         0.3110
     10 N3         -1.4867   -2.0641   -2.2858 N.ar      1 <0>        -0.5580
     11 N4         -5.3440   -3.1479   -1.4334 N.pl3     1 <0>        -0.8571
     12 C8         -3.1685   -2.7231    0.7407 C.2       1 <0>         0.1060
     13 C9         -4.3454   -3.0906    1.5281 C.2       1 <0>         0.1145
     14 C10        -4.5167   -2.8192    2.8889 C.2       1 <0>        -0.1932
     15 C11        -5.7650   -3.3339    3.2429 C.ar      1 <0>        -0.0803
     16 C12        -6.5191   -3.3917    4.4278 C.ar      1 <0>        -0.1106
     17 C13        -7.7442   -3.9909    4.4147 C.ar      1 <0>         0.0839
     18 C14        -8.2689   -4.5512    3.2463 C.ar      1 <0>        -0.1283
     19 C15        -7.5862   -4.5260    2.0714 C.ar      1 <0>        -0.1066
     20 C16        -6.3164   -3.9222    2.0150 C.ar      1 <0>         0.0610
     21 N5         -5.4208   -3.7321    1.0501 N.pl3     1 <0>        -0.5313
     22 O1         -8.4709   -4.0448    5.5631 O.3       1 <0>        -0.5017
     23 N6         -1.9318   -2.4352    1.2329 N.pl3     1 <0>        -0.4440
     24 H1          1.5188   -0.2209    1.2046 H         1 <0>         0.0835
     25 H2         -0.0832    0.3190    0.6476 H         1 <0>         0.0676
     26 H3          0.0595   -0.6766    2.1162 H         1 <0>         0.0606
     27 H4          0.7413   -1.5787   -0.7190 H         1 <0>         0.1243
     28 H5          1.0115   -3.8055    0.3380 H         1 <0>         0.0673
     29 H6          2.1581   -2.6294    1.0238 H         1 <0>         0.0835
     30 H7          0.6988   -3.0851    1.9354 H         1 <0>         0.0606
     31 H8         -2.1102   -2.0906   -4.2566 H         1 <0>         0.1998
     32 H9         -5.8197   -2.7336   -0.6966 H         1 <0>         0.4069
     33 H10        -5.7838   -3.8189   -1.9786 H         1 <0>         0.4071
     34 H11        -3.8197   -2.3112    3.5389 H         1 <0>         0.1445
     35 H12        -6.1313   -2.9654    5.3413 H         1 <0>         0.1279
     36 H13        -9.2428   -5.0169    3.2782 H         1 <0>         0.1286
     37 H14        -8.0164   -4.9676    1.1847 H         1 <0>         0.1247
     38 H15        -9.0572   -3.2870    5.6936 H         1 <0>         0.3860
     39 H16        -1.6823   -2.4395    2.1702 H         1 <0>         0.4490
     40 H17        -5.5296   -4.0197    0.1301 H         1 <0>         0.4163
@<TRIPOS>BOND
     1    1    2 1
     2    1   24 1
     3    1   25 1
     4    1   26 1
     5    2    3 1
     6    2    4 1
     7    2   27 1
     8    3   28 1
     9    3   29 1
    10    3   30 1
    11    4   23 1
    12    4    5 1
    13    5   10 ar
    14    5    6 ar
    15    6    7 ar
    16    6   12 1
    17    7    8 ar
    18    7   11 1
    19    8    9 ar
    20    9   10 ar
    21    9   31 1
    22   11   32 1
    23   11   33 1
    24   12   13 2
    25   12   23 1
    26   13   21 1
    27   13   14 1
    28   14   15 2
    29   14   34 1
    30   15   20 ar
    31   15   16 ar
    32   16   17 ar
    33   16   35 1
    34   17   18 ar
    35   17   22 1
    36   18   19 ar
    37   18   36 1
    38   19   20 ar
    39   19   37 1
    40   20   21 2
    41   21   40 1
    42   22   38 1
    43   23   39 1
@<TRIPOS>MOLECULE
ZINC64521265
   46    49     0     0     0
SMALL
USER_CHARGES

@<TRIPOS>ATOM
      1 C1          0.3476   -2.5642    0.7938 C.3       1 <0>        -0.1628
      2 C2         -0.3724   -2.4367   -0.5502 C.3       1 <0>         0.1606
      3 C3         -0.6891   -3.8315   -1.0934 C.3       1 <0>        -0.1622
      4 N1         -1.6190   -1.6892   -0.3674 N.pl3     1 <0>        -0.3682
      5 C4         -1.9328   -0.5173   -0.9891 C.ar      1 <0>         0.3758
      6 C5         -3.2117   -0.1436   -0.5353 C.ar      1 <0>        -0.3225
      7 C6         -3.6371   -1.1809    0.4040 C.2       1 <0>         0.1593
      8 N2         -2.6746   -2.0702    0.4677 N.2       1 <0>        -0.2224
      9 C7         -4.9218   -1.2229    1.1432 C.ar      1 <0>        -0.0245
     10 C8         -6.1183   -0.9455    0.4812 C.ar      1 <0>        -0.0801
     11 C9         -7.3162   -0.9844    1.1672 C.ar      1 <0>        -0.1161
     12 C10        -7.3388   -1.2973    2.5117 C.ar      1 <0>        -0.0731
     13 C11        -6.1481   -1.5766    3.1861 C.ar      1 <0>        -0.1285
     14 C12        -4.9368   -1.5447    2.4966 C.ar      1 <0>        -0.0211
     15 C13        -6.1728   -1.9106    4.6256 C.2       1 <0>         0.5570
     16 O1         -5.1357   -2.1534    5.2109 O.2       1 <0>        -0.4587
     17 N3         -7.3453   -1.9460    5.2893 N.am      1 <0>        -0.6240
     18 C14        -7.3683   -2.2582    6.6345 C.2       1 <0>         0.4093
     19 N4         -6.3504   -2.5344    7.3965 N.2       1 <0>        -0.5323
     20 C15        -6.5264   -2.8706    8.7976 C.3       1 <0>         0.0491
     21 C16        -7.9176   -2.4104    9.3123 C.3       1 <0>        -0.0885
     22 S1         -8.8003   -2.3601    7.6961 S.3       1 <0>        -0.2223
     23 C17        -3.7785    1.0433   -1.0279 C.ar      1 <0>         0.5179
     24 N5         -3.0796    1.7609   -1.9021 N.ar      1 <0>        -0.6035
     25 C18        -1.8816    1.3723   -2.3010 C.ar      1 <0>         0.3866
     26 N6         -1.3117    0.2693   -1.8675 N.ar      1 <0>        -0.5726
     27 N7         -5.0310    1.4545   -0.6148 N.pl3     1 <0>        -0.8297
     28 H1          1.2751   -3.1204    0.6578 H         1 <0>         0.0793
     29 H2          0.5732   -1.5705    1.1808 H         1 <0>         0.0605
     30 H3         -0.2926   -3.0925    1.5003 H         1 <0>         0.0708
     31 H4          0.2678   -1.9084   -1.2566 H         1 <0>         0.1123
     32 H5         -1.2020   -3.7407   -2.0509 H         1 <0>         0.0601
     33 H6          0.2384   -4.3877   -1.2294 H         1 <0>         0.0792
     34 H7         -1.3293   -4.3598   -0.3870 H         1 <0>         0.0703
     35 H8         -6.1075   -0.6993   -0.5703 H         1 <0>         0.1397
     36 H9         -8.2394   -0.7687    0.6498 H         1 <0>         0.1436
     37 H10        -8.2787   -1.3258    3.0429 H         1 <0>         0.1334
     38 H11        -4.0135   -1.7645    3.0120 H         1 <0>         0.1460
     39 H12        -8.1730   -1.7523    4.8221 H         1 <0>         0.4258
     40 H13        -6.4387   -3.9501    8.9203 H         1 <0>         0.1010
     41 H14        -5.7483   -2.3813    9.3834 H         1 <0>         0.1095
     42 H15        -8.3569   -3.1421    9.9903 H         1 <0>         0.1289
     43 H16        -7.8696   -1.4222    9.7696 H         1 <0>         0.1075
     44 H17        -1.3485    1.9855   -3.0124 H         1 <0>         0.2059
     45 H18        -5.4326    1.0649    0.1775 H         1 <0>         0.4118
     46 H19        -5.5089    2.1329   -1.1171 H         1 <0>         0.4117
@<TRIPOS>BOND
     1    1    2 1
     2    1   28 1
     3    1   29 1
     4    1   30 1
     5    2    3 1
     6    2    4 1
     7    2   31 1
     8    3   32 1
     9    3   33 1
    10    3   34 1
    11    4    8 1
    12    4    5 1
    13    5   26 ar
    14    5    6 ar
    15    6    7 1
    16    6   23 ar
    17    7    8 2
    18    7    9 1
    19    9   14 ar
    20    9   10 ar
    21   10   11 ar
    22   10   35 1
    23   11   12 ar
    24   11   36 1
    25   12   13 ar
    26   12   37 1
    27   13   14 ar
    28   13   15 1
    29   14   38 1
    30   15   16 2
    31   15   17 am
    32   17   18 1
    33   17   39 1
    34   18   22 1
    35   18   19 2
    36   19   20 1
    37   20   21 1
    38   20   40 1
    39   20   41 1
    40   21   22 1
    41   21   42 1
    42   21   43 1
    43   23   24 ar
    44   23   27 1
    45   24   25 ar
    46   25   26 ar
    47   25   44 1
    48   27   45 1
    49   27   46 1
@<TRIPOS>MOLECULE
ZINC36056300
   40    43     0     0     0
SMALL
USER_CHARGES

@<TRIPOS>ATOM
      1 C1          0.4126    0.6880    0.7885 C.3       1 <0>        -0.1627
      2 C2          0.2093   -0.7440    0.2895 C.3       1 <0>         0.1569
      3 C3          0.8826   -1.7211    1.2552 C.3       1 <0>        -0.1634
      4 N1         -1.2243   -1.0374    0.2184 N.pl3     1 <0>        -0.3592
      5 C4         -1.9000   -1.3937   -0.9107 C.ar      1 <0>         0.3794
      6 C5         -3.2446   -1.5828   -0.5400 C.ar      1 <0>        -0.3179
      7 C6         -3.3202   -1.3125    0.8956 C.2       1 <0>         0.1232
      8 N2         -2.1110   -1.0014    1.2998 N.2       1 <0>        -0.2051
      9 C7         -4.5366   -1.3827    1.7391 C.ar      1 <0>         0.1178
     10 C8         -5.4061   -2.4812    1.6050 C.ar      1 <0>        -0.1519
     11 C9         -6.5306   -2.5915    2.3528 C.ar      1 <0>         0.0142
     12 C10        -6.8501   -1.5908    3.2916 C.ar      1 <0>        -0.2346
     13 C11        -5.9500   -0.4370    3.4429 C.ar      1 <0>         0.2401
     14 C12        -4.7906   -0.3737    2.6433 C.ar      1 <0>        -0.1296
     15 N3         -6.4749    0.3393    4.3746 N.pl3     1 <0>        -0.4206
     16 H1         -8.2337    0.1398    5.5248 H         1 <0>         0.4708
     17 N4         -7.6615   -0.2385    4.8390 N.pl3     1 <0>        -0.4328
     18 C13        -7.8916   -1.3947    4.1942 C.2       1 <0>         0.5311
     19 N5         -8.9722   -2.2404    4.3922 N.pl3     1 <0>        -0.7811
     20 C14        -4.1671   -1.9596   -1.5297 C.ar      1 <0>         0.5166
     21 N6         -3.7272   -2.1207   -2.7740 N.ar      1 <0>        -0.5953
     22 C15        -2.4554   -1.9324   -3.0777 C.ar      1 <0>         0.3950
     23 N7         -1.5565   -1.5799   -2.1849 N.ar      1 <0>        -0.5665
     24 N8         -5.4983   -2.1583   -1.2179 N.pl3     1 <0>        -0.8311
     25 H2          1.4792    0.9063    0.8414 H         1 <0>         0.0837
     26 H3         -0.0671    1.3841    0.1005 H         1 <0>         0.0618
     27 H4         -0.0295    0.7936    1.7793 H         1 <0>         0.0688
     28 H5          0.6513   -0.8497   -0.7013 H         1 <0>         0.1176
     29 H6          0.7377   -2.7413    0.8997 H         1 <0>         0.0624
     30 H7          1.9492   -1.5028    1.3081 H         1 <0>         0.0836
     31 H8          0.4405   -1.6155    2.2459 H         1 <0>         0.0694
     32 H9         -5.1717   -3.2546    0.8885 H         1 <0>         0.1568
     33 H10        -7.1810   -3.4447    2.2292 H         1 <0>         0.1566
     34 H11        -4.1097    0.4595    2.7357 H         1 <0>         0.1611
     35 H12        -9.0501   -3.0570    3.8746 H         1 <0>         0.4467
     36 H13        -9.6503   -2.0154    5.0483 H         1 <0>         0.4297
     37 H14        -2.1408   -2.0745   -4.1010 H         1 <0>         0.2111
     38 H15        -5.8569   -1.8183   -0.3832 H         1 <0>         0.4073
     39 H16        -6.0742   -2.6377   -1.8338 H         1 <0>         0.4151
     40 H17        -6.0974    1.1764    4.6871 H         1 <0>         0.4749
@<TRIPOS>BOND
     1    1    2 1
     2    1   25 1
     3    1   26 1
     4    1   27 1
     5    2    3 1
     6    2    4 1
     7    2   28 1
     8    3   29 1
     9    3   30 1
    10    3   31 1
    11    4    8 1
    12    4    5 1
    13    5   23 ar
    14    5    6 ar
    15    6    7 1
    16    6   20 ar
    17    7    8 2
    18    7    9 1
    19    9   14 ar
    20    9   10 ar
    21   10   11 ar
    22   10   32 1
    23   11   12 ar
    24   11   33 1
    25   12   13 ar
    26   12   18 2
    27   13   14 ar
    28   13   15 2
    29   14   34 1
    30   15   17 1
    31   15   40 1
    32   16   17 1
    33   17   18 1
    34   18   19 1
    35   19   35 1
    36   19   36 1
    37   20   21 ar
    38   20   24 1
    39   21   22 ar
    40   22   23 ar
    41   22   37 1
    42   24   38 1
    43   24   39 1
@<TRIPOS>MOLECULE
ZINC36056300
   39    42     0     0     0
SMALL
USER_CHARGES

@<TRIPOS>ATOM
      1 C1          0.4081    0.7032    0.7800 C.3       1 <0>        -0.1618
      2 C2          0.2069   -0.7312    0.2873 C.3       1 <0>         0.1609
      3 C3          0.8807   -1.7032    1.2580 C.3       1 <0>        -0.1621
      4 N1         -1.2263   -1.0267    0.2166 N.pl3     1 <0>        -0.3701
      5 C4         -1.9009   -1.3889   -0.9113 C.ar      1 <0>         0.3750
      6 C5         -3.2455   -1.5776   -0.5407 C.ar      1 <0>        -0.3215
      7 C6         -3.3224   -1.3007    0.8936 C.2       1 <0>         0.1630
      8 N2         -2.1138   -0.9869    1.2972 N.2       1 <0>        -0.2264
      9 C7         -4.5394   -1.3682    1.7366 C.ar      1 <0>         0.0337
     10 C8         -5.4112   -2.4583    1.6155 C.ar      1 <0>        -0.1607
     11 C9         -6.5335   -2.5344    2.3833 C.ar      1 <0>        -0.0251
     12 C10        -6.8222   -1.5187    3.3018 C.ar      1 <0>        -0.1880
     13 C11        -5.9521   -0.4186    3.4315 C.ar      1 <0>         0.1561
     14 C12        -4.8063   -0.3538    2.6457 C.ar      1 <0>        -0.1126
     15 N3         -6.4874    0.3998    4.3930 N.pl3     1 <0>        -0.5024
     16 N4         -7.6751   -0.1655    4.8679 N.2       1 <0>        -0.3148
     17 C13        -7.9109   -1.2946    4.2539 C.2       1 <0>         0.3617
     18 N5         -9.0056   -2.1367    4.4680 N.pl3     1 <0>        -0.8327
     19 C14        -4.1668   -1.9602   -1.5291 C.ar      1 <0>         0.5189
     20 N6         -3.7258   -2.1271   -2.7723 N.ar      1 <0>        -0.6051
     21 C15        -2.4540   -1.9390   -3.0760 C.ar      1 <0>         0.3863
     22 N7         -1.5563   -1.5804   -2.1845 N.ar      1 <0>        -0.5746
     23 N8         -5.4980   -2.1588   -1.2175 N.pl3     1 <0>        -0.8276
     24 H1          1.4744    0.9231    0.8327 H         1 <0>         0.0786
     25 H2         -0.0719    1.3956    0.0885 H         1 <0>         0.0601
     26 H3         -0.0347    0.8128    1.7700 H         1 <0>         0.0697
     27 H4          0.6497   -0.8409   -0.7026 H         1 <0>         0.1118
     28 H5          0.4378   -1.5935    2.2479 H         1 <0>         0.0700
     29 H6          0.7373   -2.7251    0.9069 H         1 <0>         0.0603
     30 H7          1.9470   -1.4833    1.3106 H         1 <0>         0.0785
     31 H8         -5.1917   -3.2441    0.9078 H         1 <0>         0.1359
     32 H9         -7.2005   -3.3779    2.2831 H         1 <0>         0.1334
     33 H10        -4.1302    0.4831    2.7395 H         1 <0>         0.1348
     34 H11        -9.0923   -2.9581    3.9594 H         1 <0>         0.4132
     35 H12        -9.6785   -1.8997    5.1251 H         1 <0>         0.4096
     36 H13        -2.1385   -2.0855   -4.0984 H         1 <0>         0.2050
     37 H14        -5.8568   -1.8182   -0.3831 H         1 <0>         0.4149
     38 H15        -6.0739   -2.6388   -1.8330 H         1 <0>         0.4105
     39 H16        -6.1031    1.2373    4.6959 H         1 <0>         0.4433
@<TRIPOS>BOND
     1    1    2 1
     2    1   24 1
     3    1   25 1
     4    1   26 1
     5    2    3 1
     6    2    4 1
     7    2   27 1
     8    3   28 1
     9    3   29 1
    10    3   30 1
    11    4    8 1
    12    4    5 1
    13    5   22 ar
    14    5    6 ar
    15    6    7 1
    16    6   19 ar
    17    7    8 2
    18    7    9 1
    19    9   14 ar
    20    9   10 ar
    21   10   11 ar
    22   10   31 1
    23   11   12 ar
    24   11   32 1
    25   12   13 ar
    26   12   17 1
    27   13   14 ar
    28   13   15 1
    29   14   33 1
    30   15   16 1
    31   15   39 1
    32   16   17 2
    33   17   18 1
    34   18   34 1
    35   18   35 1
    36   19   20 ar
    37   19   23 1
    38   20   21 ar
    39   21   22 ar
    40   21   36 1
    41   23   37 1
    42   23   38 1
@<TRIPOS>MOLECULE
ZINC64539506
   73    79     0     0     0
SMALL
USER_CHARGES

@<TRIPOS>ATOM
      1 C1         -0.8034    1.1981   -2.0475 C.3       1 <0>        -0.1373
      2 C2         -0.9132   -0.3251   -1.9533 C.3       1 <0>        -0.1439
      3 C3         -1.8869   -0.6921   -0.8632 C.2       1 <0>         0.5116
      4 O1         -2.4388    0.1788   -0.2246 O.2       1 <0>        -0.5400
      5 N1         -2.1445   -1.9882   -0.5981 N.am      1 <0>        -0.6057
      6 C4         -1.4786   -3.0541   -1.3597 C.3       1 <0>         0.0914
      7 C5         -0.7731   -3.9935   -0.3738 C.3       1 <0>         0.1227
      8 N2         -1.7246   -4.3662    0.6825 N.pl3     1 <0>        -0.6412
      9 C6         -2.3905   -3.3002    1.4441 C.3       1 <0>         0.0982
     10 C7         -3.0917   -2.3609    0.4620 C.3       1 <0>         0.0636
     11 C8         -1.9917   -5.7105    0.9575 C.ar      1 <0>         0.2762
     12 C9         -0.9536   -6.5704    1.2942 C.ar      1 <0>        -0.1610
     13 C10        -1.2176   -7.8974    1.5661 C.ar      1 <0>        -0.0493
     14 C11        -2.5211   -8.3734    1.5033 C.ar      1 <0>         0.0715
     15 C12        -3.5587   -7.5142    1.1664 C.ar      1 <0>        -0.0251
     16 C13        -3.2958   -6.1854    0.8999 C.ar      1 <0>        -0.2300
     17 C14        -4.4227   -5.2515    0.5409 C.3       1 <0>         0.5187
     18 F1         -5.5990   -5.9873    0.3618 F         1 <0>        -0.1736
     19 F2         -4.6056   -4.3235    1.5717 F         1 <0>        -0.1666
     20 F3         -4.1097   -4.5767   -0.6439 F         1 <0>        -0.1590
     21 N3         -2.7889   -9.7207    1.7794 N.am      1 <0>        -0.4580
     22 C15        -3.0107  -10.5803    0.7663 C.2       1 <0>         0.5296
     23 O2         -2.9762  -10.1764   -0.3836 O.2       1 <0>        -0.5112
     24 C16        -3.2818  -11.9407    1.0174 C.2       1 <0>        -0.2197
     25 C17        -3.3235  -12.4049    2.2923 C.2       1 <0>         0.0019
     26 C18        -3.0911  -11.5032    3.3608 C.ar      1 <0>        -0.1955
     27 C19        -2.8179  -10.1560    3.0758 C.ar      1 <0>         0.2428
     28 C20        -2.5848   -9.2810    4.1622 C.ar      1 <0>        -0.1182
     29 C21        -2.3121   -7.9243    3.9592 C.ar      1 <0>        -0.1236
     30 C22        -2.0902   -7.1022    5.0517 C.ar      1 <0>        -0.0374
     31 C23        -2.1382   -7.6250    6.3522 C.ar      1 <0>        -0.0785
     32 C24        -2.4020   -8.9415    6.5657 C.ar      1 <0>        -0.0891
     33 C25        -2.6316   -9.8018    5.4788 C.ar      1 <0>         0.1627
     34 N4         -2.8928  -11.1013    5.6841 N.ar      1 <0>        -0.4901
     35 C26        -3.1232  -11.9324    4.7010 C.ar      1 <0>         0.2010
     36 C27        -1.7999   -5.6625    4.8453 C.ar      1 <0>        -0.1016
     37 C28        -1.5923   -4.8284    5.9343 C.ar      1 <0>        -0.0453
     38 C29        -1.3208   -3.4723    5.6840 C.ar      1 <0>        -0.0944
     39 C30        -1.0992   -2.5671    6.7358 C.ar      1 <0>        -0.0959
     40 C31        -0.8385   -1.2607    6.4555 C.ar      1 <0>        -0.1116
     41 C32        -0.7888   -0.8087    5.1382 C.ar      1 <0>        -0.0939
     42 C33        -0.9990   -1.6577    4.0955 C.ar      1 <0>        -0.0952
     43 C34        -1.2702   -3.0147    4.3431 C.ar      1 <0>         0.1182
     44 N5         -1.4790   -3.8675    3.3344 N.ar      1 <0>        -0.4443
     45 C35        -1.7275   -5.1349    3.5462 C.ar      1 <0>         0.0932
     46 H1         -0.0991    1.4635   -2.8359 H         1 <0>         0.0611
     47 H2         -1.7820    1.6193   -2.2775 H         1 <0>         0.0612
     48 H3         -0.4509    1.5965   -1.0961 H         1 <0>         0.0611
     49 H4         -1.2657   -0.7235   -2.9046 H         1 <0>         0.0917
     50 H5          0.0655   -0.7463   -1.7232 H         1 <0>         0.0919
     51 H6         -2.2196   -3.6131   -1.9312 H         1 <0>         0.0768
     52 H7         -0.7449   -2.6165   -2.0367 H         1 <0>         0.0956
     53 H8         -0.4386   -4.8891   -0.8974 H         1 <0>         0.0876
     54 H9          0.0831   -3.4839    0.0682 H         1 <0>         0.0691
     55 H10        -3.1241   -3.7379    2.1211 H         1 <0>         0.1097
     56 H11        -1.6495   -2.7412    2.0156 H         1 <0>         0.1163
     57 H12        -3.4232   -1.4654    0.9877 H         1 <0>         0.0941
     58 H13        -3.9503   -2.8693    0.0232 H         1 <0>         0.0751
     59 H14         0.0599   -6.2005    1.3427 H         1 <0>         0.1551
     60 H15        -0.4106   -8.5659    1.8275 H         1 <0>         0.1467
     61 H16        -4.5721   -7.8845    1.1173 H         1 <0>         0.1487
     62 H17        -3.4573  -12.6157    0.1928 H         1 <0>         0.1630
     63 H18        -3.5312  -13.4462    2.4896 H         1 <0>         0.1550
     64 H19        -2.2745   -7.5207    2.9581 H         1 <0>         0.1643
     65 H20        -1.9630   -6.9732    7.1952 H         1 <0>         0.1371
     66 H21        -2.4352   -9.3272    7.5739 H         1 <0>         0.1467
     67 H22        -3.3290  -12.9695    4.9208 H         1 <0>         0.1769
     68 H23        -1.6383   -5.2094    6.9438 H         1 <0>         0.1431
     69 H24        -1.1358   -2.9058    7.7606 H         1 <0>         0.1315
     70 H25        -0.6683   -0.5656    7.2644 H         1 <0>         0.1300
     71 H26        -0.5805    0.2326    4.9415 H         1 <0>         0.1318
     72 H27        -0.9575   -1.2900    3.0808 H         1 <0>         0.1353
     73 H28        -1.8855   -5.7895    2.7018 H         1 <0>         0.1764
@<TRIPOS>BOND
     1    1    2 1
     2    1   46 1
     3    1   47 1
     4    1   48 1
     5    2    3 1
     6    2   49 1
     7    2   50 1
     8    3    4 2
     9    3    5 am
    10    5   10 1
    11    5    6 1
    12    6    7 1
    13    6   51 1
    14    6   52 1
    15    7    8 1
    16    7   53 1
    17    7   54 1
    18    8    9 1
    19    8   11 1
    20    9   10 1
    21    9   55 1
    22    9   56 1
    23   10   57 1
    24   10   58 1
    25   11   16 ar
    26   11   12 ar
    27   12   13 ar
    28   12   59 1
    29   13   14 ar
    30   13   60 1
    31   14   15 ar
    32   14   21 1
    33   15   16 ar
    34   15   61 1
    35   16   17 1
    36   17   18 1
    37   17   19 1
    38   17   20 1
    39   21   27 1
    40   21   22 am
    41   22   23 2
    42   22   24 1
    43   24   25 2
    44   24   62 1
    45   25   26 1
    46   25   63 1
    47   26   35 ar
    48   26   27 ar
    49   27   28 ar
    50   28   33 ar
    51   28   29 ar
    52   29   30 ar
    53   29   64 1
    54   30   31 ar
    55   30   36 1
    56   31   32 ar
    57   31   65 1
    58   32   33 ar
    59   32   66 1
    60   33   34 ar
    61   34   35 ar
    62   35   67 1
    63   36   45 ar
    64   36   37 ar
    65   37   38 ar
    66   37   68 1
    67   38   43 ar
    68   38   39 ar
    69   39   40 ar
    70   39   69 1
    71   40   41 ar
    72   40   70 1
    73   41   42 ar
    74   41   71 1
    75   42   43 ar
    76   42   72 1
    77   43   44 ar
    78   44   45 ar
    79   45   73 1
@<TRIPOS>MOLECULE
ZINC33359111
   42    44     0     0     0
SMALL
USER_CHARGES

@<TRIPOS>ATOM
      1 C1         -0.2282    1.4947    0.0083 C.3       1 <0>        -0.1075
      2 C2         -0.1328   -0.0092    0.0007 C.ar      1 <0>         0.3159
      3 C3         -0.0596   -0.7165   -1.2117 C.ar      1 <0>        -0.1232
      4 C4          0.0281   -2.1244   -1.1592 C.ar      1 <0>         0.4322
      5 N1          0.0382   -2.7246    0.0250 N.ar      1 <0>        -0.6051
      6 C5         -0.0329   -2.0137    1.1397 C.ar      1 <0>         0.6201
      7 N2         -0.1110   -0.6873    1.1319 N.ar      1 <0>        -0.5778
      8 N3         -0.0197   -2.6735    2.3529 N.pl3     1 <0>        -0.8018
      9 N4          0.1021   -2.8543   -2.3214 N.am      1 <0>        -0.4934
     10 C6          0.0893   -2.2043   -3.5060 C.2       1 <0>         0.5199
     11 O1          0.1532   -2.8262   -4.5502 O.2       1 <0>        -0.4887
     12 C7         -0.0034   -0.7337   -3.5189 C.2       1 <0>         0.1342
     13 N5         -0.0724   -0.0701   -2.3875 N.2       1 <0>        -0.3658
     14 C8         -0.0188   -0.0047   -4.8061 C.ar      1 <0>        -0.1323
     15 C9         -0.5312   -0.6115   -5.9609 C.ar      1 <0>         0.0001
     16 C10        -0.5240    0.1090   -7.1385 C.ar      1 <0>        -0.1934
     17 C11        -0.0130    1.4026   -7.1409 C.ar      1 <0>         0.3348
     18 N6          0.4639    1.9478   -6.0334 N.ar      1 <0>        -0.5427
     19 C12         0.4709    1.2982   -4.8872 C.ar      1 <0>         0.1884
     20 O2         -0.0028    2.1151   -8.2947 O.3       1 <0>        -0.3049
     21 C13         0.5343    3.4380   -8.2355 C.3       1 <0>         0.0382
     22 C14         0.1939   -4.3157   -2.2766 C.3       1 <0>         0.1244
     23 C15        -1.0021   -4.9247   -3.0112 C.3       1 <0>        -0.1682
     24 C16         1.4907   -4.7662   -2.9522 C.3       1 <0>        -0.1684
     25 H1          0.7743    1.9222    0.0292 H         1 <0>         0.0979
     26 H2         -0.7476    1.8304   -0.8893 H         1 <0>         0.0981
     27 H3         -0.7801    1.8194    0.8903 H         1 <0>         0.0894
     28 H4          0.0409   -3.6413    2.3781 H         1 <0>         0.4196
     29 H5         -0.0710   -2.1691    3.1799 H         1 <0>         0.4221
     30 H6         -0.9217   -1.6179   -5.9304 H         1 <0>         0.1557
     31 H7         -0.9106   -0.3271   -8.0478 H         1 <0>         0.1477
     32 H8          0.8638    1.7779   -4.0030 H         1 <0>         0.1687
     33 H9         -0.0435    4.0335   -7.5286 H         1 <0>         0.0613
     34 H10         1.5734    3.3940   -7.9093 H         1 <0>         0.0609
     35 H11         0.4827    3.8956   -9.2235 H         1 <0>         0.0977
     36 H12         0.1905   -4.6483   -1.2386 H         1 <0>         0.1165
     37 H13        -0.9986   -4.5921   -4.0492 H         1 <0>         0.0802
     38 H14        -0.9338   -6.0120   -2.9779 H         1 <0>         0.0781
     39 H15        -1.9259   -4.6037   -2.5299 H         1 <0>         0.0565
     40 H16         2.3427   -4.3324   -2.4288 H         1 <0>         0.0562
     41 H17         1.5590   -5.8536   -2.9188 H         1 <0>         0.0780
     42 H18         1.4941   -4.4336   -3.9902 H         1 <0>         0.0806
@<TRIPOS>BOND
     1    1    2 1
     2    1   25 1
     3    1   26 1
     4    1   27 1
     5    2    7 ar
     6    2    3 ar
     7    3   13 1
     8    3    4 ar
     9    4    5 ar
    10    4    9 1
    11    5    6 ar
    12    6    7 ar
    13    6    8 1
    14    8   28 1
    15    8   29 1
    16    9   10 am
    17    9   22 1
    18   10   11 2
    19   10   12 1
    20   12   13 2
    21   12   14 1
    22   14   19 ar
    23   14   15 ar
    24   15   16 ar
    25   15   30 1
    26   16   17 ar
    27   16   31 1
    28   17   18 ar
    29   17   20 1
    30   18   19 ar
    31   19   32 1
    32   20   21 1
    33   21   33 1
    34   21   34 1
    35   21   35 1
    36   22   23 1
    37   22   24 1
    38   22   36 1
    39   23   37 1
    40   23   38 1
    41   23   39 1
    42   24   40 1
    43   24   41 1
    44   24   42 1
@<TRIPOS>MOLECULE
ZINC64744203
   44    47     0     0     0
SMALL
USER_CHARGES

@<TRIPOS>ATOM
      1 C1         -0.0055    1.4955    0.4053 C.3       1 <0>        -0.1666
      2 C2          0.0135   -0.0104    0.3513 C.2       1 <0>         0.5025
      3 O1          1.0712   -0.6032    0.3340 O.2       1 <0>        -0.4720
      4 N1         -1.1451   -0.6983    0.3221 N.am      1 <0>        -0.6203
      5 C3         -1.1277   -2.0825    0.2725 C.2       1 <0>         0.3552
      6 N2         -0.0949   -2.8927    0.2531 N.2       1 <0>        -0.4984
      7 C4         -0.2257   -4.2354    0.2035 C.ar      1 <0>         0.0890
      8 C5          0.7997   -5.2108    0.1777 C.ar      1 <0>        -0.0571
      9 C6          0.5046   -6.5350    0.1263 C.ar      1 <0>        -0.0952
     10 C7         -0.8178   -6.9885    0.0974 C.ar      1 <0>         0.0025
     11 C8         -1.8543   -6.0561    0.1220 C.ar      1 <0>        -0.0583
     12 C9         -1.5546   -4.7198    0.1734 C.ar      1 <0>        -0.1363
     13 S1         -2.5055   -3.2199    0.2263 S.3       1 <0>        -0.0053
     14 C10        -1.1138   -8.4409    0.0408 C.ar      1 <0>        -0.0495
     15 C11        -0.0755   -9.3759    0.0214 C.ar      1 <0>        -0.2045
     16 C12        -0.4055  -10.7247   -0.0319 C.ar      1 <0>         0.2566
     17 C13        -1.7471  -11.0932   -0.0639 C.ar      1 <0>         0.1229
     18 N3         -2.7004  -10.1820   -0.0446 N.ar      1 <0>        -0.4446
     19 C14        -2.4313   -8.8932    0.0120 C.ar      1 <0>         0.0216
     20 Cl1        -2.1716  -12.7752   -0.1306 Cl        1 <0>        -0.0448
     21 N4          0.5971  -11.6987   -0.0537 N.2       1 <0>        -1.0618
     22 S2          2.1861  -11.2488   -0.1759 S.o2      1 <0>         2.6037
     23 O2          2.3229  -10.5748   -1.4194 O.2       1 <0>        -1.0221
     24 O3          2.5327  -10.6422    1.0615 O.2       1 <0>        -1.0212
     25 C15         3.1382  -12.7265   -0.2965 C.ar      1 <0>        -0.6279
     26 C16         3.6074  -13.3412    0.8493 C.ar      1 <0>         0.0065
     27 C17         4.3539  -14.5005    0.7560 C.ar      1 <0>        -0.1789
     28 C18         4.6317  -15.0463   -0.4859 C.ar      1 <0>         0.1347
     29 C19         4.1612  -14.4296   -1.6328 C.ar      1 <0>        -0.1789
     30 C20         3.4105  -13.2733   -1.5367 C.ar      1 <0>         0.0067
     31 F1          5.3617  -16.1793   -0.5784 F         1 <0>        -0.1387
     32 H1          1.0175    1.8714    0.4227 H         1 <0>         0.1008
     33 H2         -0.5205    1.8842   -0.4733 H         1 <0>         0.0946
     34 H3         -0.5273    1.8203    1.3055 H         1 <0>         0.0946
     35 H4         -1.9912   -0.2241    0.3359 H         1 <0>         0.4279
     36 H5          1.8329   -4.8968    0.1988 H         1 <0>         0.1353
     37 H6          1.3097   -7.2546    0.1070 H         1 <0>         0.1393
     38 H7         -2.8832   -6.3837    0.1001 H         1 <0>         0.1410
     39 H8          0.9565   -9.0585    0.0469 H         1 <0>         0.1226
     40 H9         -3.2413   -8.1791    0.0311 H         1 <0>         0.1487
     41 H10         3.3909  -12.9152    1.8178 H         1 <0>         0.1477
     42 H11         4.7207  -14.9804    1.6512 H         1 <0>         0.1402
     43 H12         4.3776  -14.8542   -2.6020 H         1 <0>         0.1402
     44 H13         3.0396  -12.7946   -2.4309 H         1 <0>         0.1477
@<TRIPOS>BOND
     1    1    2 1
     2    1   32 1
     3    1   33 1
     4    1   34 1
     5    2    3 2
     6    2    4 am
     7    4    5 1
     8    4   35 1
     9    5   13 1
    10    5    6 2
    11    6    7 1
    12    7   12 ar
    13    7    8 ar
    14    8    9 ar
    15    8   36 1
    16    9   10 ar
    17    9   37 1
    18   10   11 ar
    19   10   14 1
    20   11   12 ar
    21   11   38 1
    22   12   13 1
    23   14   19 ar
    24   14   15 ar
    25   15   16 ar
    26   15   39 1
    27   16   17 ar
    28   16   21 1
    29   17   18 ar
    30   17   20 1
    31   18   19 ar
    32   19   40 1
    33   21   22 1
    34   22   23 2
    35   22   24 2
    36   22   25 1
    37   25   30 ar
    38   25   26 ar
    39   26   27 ar
    40   26   41 1
    41   27   28 ar
    42   27   42 1
    43   28   29 ar
    44   28   31 1
    45   29   30 ar
    46   29   43 1
    47   30   44 1
@<TRIPOS>MOLECULE
ZINC43154043
   48    51     0     0     0
SMALL
USER_CHARGES

@<TRIPOS>ATOM
      1 C1         -4.2370   -8.6810    0.2591 C.3       1 <0>         0.0402
      2 O1         -5.2414   -7.8807    0.8858 O.3       1 <0>        -0.3083
      3 C2         -5.1728   -6.5393    0.6880 C.ar      1 <0>         0.3030
      4 C3         -6.1186   -5.7097    1.2767 C.ar      1 <0>        -0.1694
      5 C4         -6.0406   -4.3442    1.0695 C.ar      1 <0>        -0.0370
      6 C5         -5.0084   -3.8520    0.2724 C.ar      1 <0>         0.0749
      7 C6         -4.1005   -4.7415   -0.2823 C.ar      1 <0>         0.1137
      8 N1         -4.2036   -6.0378   -0.0581 N.ar      1 <0>        -0.5202
      9 N2         -4.8900   -2.4770    0.0346 N.pl3     1 <0>        -0.6438
     10 C7         -6.0272   -1.6894   -0.0608 C.ar      1 <0>         0.4764
     11 C8         -5.9196   -0.3039   -0.1708 C.ar      1 <0>        -0.3335
     12 C9         -7.0901    0.4457   -0.2639 C.ar      1 <0>         0.3131
     13 N3         -8.2659   -0.1836   -0.2449 N.ar      1 <0>        -0.6001
     14 C10        -8.3274   -1.5014   -0.1392 C.ar      1 <0>         0.6160
     15 N4         -7.2351   -2.2464   -0.0541 N.ar      1 <0>        -0.6192
     16 N5         -9.5662   -2.1185   -0.1228 N.pl3     1 <0>        -0.5851
     17 C11       -10.8056   -1.3321   -0.2271 C.3       1 <0>         0.0943
     18 C12       -11.6771   -1.9470   -1.3281 C.3       1 <0>         0.0461
     19 O2        -11.8321   -3.3462   -1.0794 O.3       1 <0>        -0.3792
     20 C13       -10.6090   -4.0857   -1.1132 C.3       1 <0>         0.0471
     21 C14        -9.6826   -3.5808   -0.0069 C.3       1 <0>         0.0925
     22 C15        -7.0297    1.9221   -0.3821 C.ar      1 <0>        -0.2311
     23 C16        -5.8015    2.5894   -0.4083 C.ar      1 <0>         0.2302
     24 N6         -5.7892    3.9058   -0.5150 N.ar      1 <0>        -0.5711
     25 C17        -6.9204    4.5923   -0.5967 C.ar      1 <0>         0.5762
     26 N7         -8.1042    3.9957   -0.5753 N.ar      1 <0>        -0.5734
     27 C18        -8.1993    2.6820   -0.4761 C.ar      1 <0>         0.2470
     28 N8         -6.8641    5.9688   -0.7069 N.pl3     1 <0>        -0.8125
     29 H1         -4.4079   -9.7308    0.4974 H         1 <0>         0.0965
     30 H2         -4.2827   -8.5415   -0.8209 H         1 <0>         0.0585
     31 H3         -3.2542   -8.3812    0.6229 H         1 <0>         0.0585
     32 H4         -6.9055   -6.1256    1.8884 H         1 <0>         0.1443
     33 H5         -6.7625   -3.6754    1.5145 H         1 <0>         0.1503
     34 H6         -3.2977   -4.3687   -0.9011 H         1 <0>         0.1594
     35 H7         -4.0124   -2.0755   -0.0635 H         1 <0>         0.4243
     36 H8         -4.9524    0.1766   -0.1831 H         1 <0>         0.1422
     37 H9        -11.3396   -1.3608    0.7227 H         1 <0>         0.0755
     38 H10       -10.5652   -0.3001   -0.4826 H         1 <0>         0.1081
     39 H11       -12.6556   -1.4667   -1.3287 H         1 <0>         0.1086
     40 H12       -11.1982   -1.8001   -2.2962 H         1 <0>         0.0552
     41 H13       -10.8191   -5.1441   -0.9592 H         1 <0>         0.1082
     42 H14       -10.1262   -3.9466   -2.0805 H         1 <0>         0.0542
     43 H15        -8.6989   -4.0372   -0.1166 H         1 <0>         0.1066
     44 H16       -10.1016   -3.8397    0.9655 H         1 <0>         0.0748
     45 H17        -4.8762    2.0365   -0.3418 H         1 <0>         0.1733
     46 H18        -9.1669    2.2023   -0.4638 H         1 <0>         0.1793
     47 H19        -6.0052    6.4193   -0.7236 H         1 <0>         0.4174
     48 H20        -7.6835    6.4845   -0.7676 H         1 <0>         0.4177
@<TRIPOS>BOND
     1    1    2 1
     2    1   29 1
     3    1   30 1
     4    1   31 1
     5    2    3 1
     6    3    8 ar
     7    3    4 ar
     8    4    5 ar
     9    4   32 1
    10    5    6 ar
    11    5   33 1
    12    6    7 ar
    13    6    9 1
    14    7    8 ar
    15    7   34 1
    16    9   10 1
    17    9   35 1
    18   10   15 ar
    19   10   11 ar
    20   11   12 ar
    21   11   36 1
    22   12   13 ar
    23   12   22 1
    24   13   14 ar
    25   14   15 ar
    26   14   16 1
    27   16   21 1
    28   16   17 1
    29   17   18 1
    30   17   37 1
    31   17   38 1
    32   18   19 1
    33   18   39 1
    34   18   40 1
    35   19   20 1
    36   20   21 1
    37   20   41 1
    38   20   42 1
    39   21   43 1
    40   21   44 1
    41   22   27 ar
    42   22   23 ar
    43   23   24 ar
    44   23   45 1
    45   24   25 ar
    46   25   26 ar
    47   25   28 1
    48   26   27 ar
    49   27   46 1
    50   28   47 1
    51   28   48 1
@<TRIPOS>MOLECULE
ZINC43154043
   49    52     0     0     0
SMALL
USER_CHARGES

@<TRIPOS>ATOM
      1 C1          2.8334   -8.5330   -3.4328 C.3       1 <0>         0.0358
      2 O1          2.7629   -7.8179   -4.6680 O.3       1 <0>        -0.3005
      3 C2          2.6963   -6.4639   -4.5934 C.ar      1 <0>         0.3317
      4 C3          2.6204   -5.7153   -5.7609 C.ar      1 <0>        -0.1751
      5 C4          2.5529   -4.3363   -5.6748 C.ar      1 <0>        -0.0295
      6 C5          2.5639   -3.7491   -4.4106 C.ar      1 <0>         0.0184
      7 C6          2.6416   -4.5614   -3.2893 C.ar      1 <0>         0.1492
      8 N1          2.6992   -5.8741   -3.4103 N.ar      1 <0>        -0.5191
      9 N2          2.4978   -2.3568   -4.2747 N.pl3     1 <0>        -0.5913
     10 C7          3.1159   -1.5390   -5.2083 C.ar      1 <0>         0.5226
     11 C8          3.1156   -0.1546   -5.0447 C.ar      1 <0>        -0.2790
     12 C9          3.7494    0.6262   -6.0088 C.ar      1 <0>         0.3313
     13 N3          4.3309    0.0264   -7.0485 N.ar      1 <0>        -0.5826
     14 C10         4.3097   -1.2913   -7.1694 C.ar      1 <0>         0.6641
     15 N4          3.7218   -2.0653   -6.2691 N.ar      1 <0>        -0.5765
     16 N5          4.9239   -1.8771   -8.2627 N.pl3     1 <0>        -0.5686
     17 C11         5.7133   -1.0730   -9.2091 C.3       1 <0>         0.0642
     18 C12         7.0756   -1.7496   -9.3994 C.3       1 <0>         0.0475
     19 O2          6.8752   -3.1221   -9.7456 O.3       1 <0>        -0.3639
     20 C13         6.2136   -3.8895   -8.7371 C.3       1 <0>         0.0433
     21 C14         4.8118   -3.3234   -8.5097 C.3       1 <0>         0.0797
     22 C15         3.7766    2.1027   -5.8812 C.ar      1 <0>        -0.2974
     23 C16         4.4053    2.8941   -6.8470 C.ar      1 <0>         0.2461
     24 N6          4.4079    4.2065   -6.6980 N.ar      1 <0>        -0.5570
     25 C17         3.8251    4.7734   -5.6508 C.ar      1 <0>         0.6029
     26 N7          3.2191    4.0570   -4.7143 N.ar      1 <0>        -0.5575
     27 C18         3.1693    2.7396   -4.7949 C.ar      1 <0>         0.2711
     28 N8          3.8505    6.1502   -5.5318 N.pl3     1 <0>        -0.7868
     29 H1          3.7244   -8.2257   -2.8854 H         1 <0>         0.0633
     30 H2          1.9474   -8.3158   -2.8362 H         1 <0>         0.0639
     31 H3          2.8820   -9.6031   -3.6348 H         1 <0>         0.1042
     32 H4          2.6144   -6.2038   -6.7241 H         1 <0>         0.1531
     33 H5          2.4934   -3.7291   -6.5659 H         1 <0>         0.1561
     34 H6          2.6507   -4.1148   -2.3060 H         1 <0>         0.1673
     35 H7          2.0196   -1.9646   -3.5274 H         1 <0>         0.4395
     36 H8          2.6355    0.3015   -4.1915 H         1 <0>         0.1843
     37 H9          5.1941   -1.0175  -10.1658 H         1 <0>         0.1137
     38 H10         5.8547   -0.0690   -8.8088 H         1 <0>         0.0875
     39 H11         7.6224   -1.2487  -10.1983 H         1 <0>         0.1261
     40 H12         7.6457   -1.6874   -8.4724 H         1 <0>         0.0657
     41 H13         6.1403   -4.9282   -9.0594 H         1 <0>         0.1256
     42 H14         6.7805   -3.8352   -7.8077 H         1 <0>         0.0648
     43 H15         4.3566   -3.8091   -7.6465 H         1 <0>         0.1211
     44 H16         4.2003   -3.4984   -9.3949 H         1 <0>         0.1021
     45 H17         4.8823    2.4390   -7.7024 H         1 <0>         0.1660
     46 H18         2.6699    2.1625   -4.0307 H         1 <0>         0.1859
     47 H19         4.2905    6.6875   -6.2090 H         1 <0>         0.4269
     48 H20         3.4284    6.5791   -4.7711 H         1 <0>         0.4278
     49 H21         4.7744    0.5625   -7.7244 H         1 <0>         0.4319
@<TRIPOS>BOND
     1    1    2 1
     2    1   29 1
     3    1   30 1
     4    1   31 1
     5    2    3 1
     6    3    8 ar
     7    3    4 ar
     8    4    5 ar
     9    4   32 1
    10    5    6 ar
    11    5   33 1
    12    6    7 ar
    13    6    9 1
    14    7    8 ar
    15    7   34 1
    16    9   10 1
    17    9   35 1
    18   10   15 ar
    19   10   11 ar
    20   11   12 ar
    21   11   36 1
    22   12   13 ar
    23   12   22 1
    24   13   14 ar
    25   13   49 1
    26   14   15 ar
    27   14   16 1
    28   16   21 1
    29   16   17 1
    30   17   18 1
    31   17   37 1
    32   17   38 1
    33   18   19 1
    34   18   39 1
    35   18   40 1
    36   19   20 1
    37   20   21 1
    38   20   41 1
    39   20   42 1
    40   21   43 1
    41   21   44 1
    42   22   27 ar
    43   22   23 ar
    44   23   24 ar
    45   23   45 1
    46   24   25 ar
    47   25   26 ar
    48   25   28 1
    49   26   27 ar
    50   27   46 1
    51   28   47 1
    52   28   48 1
@<TRIPOS>MOLECULE
ZINC66074200
   45    48     0     0     0
SMALL
USER_CHARGES

@<TRIPOS>ATOM
      1 C1         -0.0225    1.8097    0.0120 C.3       1 <0>        -0.6648
      2 S1          0.0021   -0.0041    0.0020 S.o2      1 <0>         2.6016
      3 O1          0.8352   -0.4880    1.0465 O.2       1 <0>        -0.9124
      4 O2         -1.3147   -0.5105   -0.1678 O.2       1 <0>        -0.9387
      5 N1          0.7947   -0.4113   -1.3938 N.pl3     1 <0>        -0.9169
      6 C2          0.1492   -0.6226   -2.6929 C.3       1 <0>         0.1124
      7 C3          1.2943   -0.9755   -3.6581 C.3       1 <0>        -0.0668
      8 C4          2.5336   -0.9334   -2.7973 C.ar      1 <0>        -0.2886
      9 C5          2.1611   -0.5948   -1.5022 C.ar      1 <0>         0.4616
     10 N2          3.1182   -0.4975   -0.5739 N.ar      1 <0>        -0.5869
     11 C6          4.3875   -0.7137   -0.8776 C.ar      1 <0>         0.6105
     12 N3          4.7730   -1.0340   -2.1025 N.ar      1 <0>        -0.5767
     13 C7          3.8756   -1.1584   -3.0828 C.ar      1 <0>         0.3187
     14 C8          4.3043   -1.5162   -4.4559 C.ar      1 <0>        -0.2271
     15 C9          3.4946   -2.3072   -5.2763 C.ar      1 <0>         0.2265
     16 N4          3.9116   -2.6046   -6.4938 N.ar      1 <0>        -0.5684
     17 C10         5.0797   -2.1635   -6.9394 C.ar      1 <0>         0.5755
     18 N5          5.8754   -1.4118   -6.1915 N.ar      1 <0>        -0.5711
     19 C11         5.5260   -1.0665   -4.9654 C.ar      1 <0>         0.2446
     20 N6          5.4794   -2.4972   -8.2197 N.pl3     1 <0>        -0.8130
     21 N7          5.3430   -0.6007    0.1173 N.pl3     1 <0>        -0.5828
     22 C12         4.9637   -0.2523    1.4957 C.3       1 <0>         0.0877
     23 C13         5.6035   -1.2714    2.4454 C.3       1 <0>         0.0472
     24 O3          7.0047   -1.3529    2.1738 O.3       1 <0>        -0.3802
     25 C14         7.3200   -1.8170    0.8590 C.3       1 <0>         0.0464
     26 C15         6.7675   -0.8313   -0.1708 C.3       1 <0>         0.0935
     27 H1          1.0001    2.1870    0.0043 H         1 <0>         0.1314
     28 H2         -0.5497    2.1708   -0.8711 H         1 <0>         0.1299
     29 H3         -0.5327    2.1613    0.9088 H         1 <0>         0.1368
     30 H4         -0.5620   -1.4464   -2.6324 H         1 <0>         0.1015
     31 H5         -0.3528    0.2885   -3.0186 H         1 <0>         0.0926
     32 H6          1.1508   -1.9741   -4.0709 H         1 <0>         0.0926
     33 H7          1.3602   -0.2375   -4.4575 H         1 <0>         0.0940
     34 H8          2.5420   -2.6702   -4.9196 H         1 <0>         0.1732
     35 H9          6.1769   -0.4497   -4.3635 H         1 <0>         0.1750
     36 H10         4.9079   -3.0468   -8.7784 H         1 <0>         0.4175
     37 H11         6.3315   -2.1818   -8.5594 H         1 <0>         0.4176
     38 H12         5.3243    0.7483    1.7340 H         1 <0>         0.0750
     39 H13         3.8790   -0.2861    1.5977 H         1 <0>         0.1166
     40 H14         5.4504   -0.9540    3.4769 H         1 <0>         0.1089
     41 H15         5.1457   -2.2488    2.2928 H         1 <0>         0.0565
     42 H16         8.4019   -1.8920    0.7490 H         1 <0>         0.1087
     43 H17         6.8684   -2.7963    0.7005 H         1 <0>         0.0551
     44 H18         6.8767   -1.2484   -1.1719 H         1 <0>         0.1086
     45 H19         7.3128    0.1100   -0.1032 H         1 <0>         0.0762
@<TRIPOS>BOND
     1    1    2 1
     2    1   27 1
     3    1   28 1
     4    1   29 1
     5    2    3 2
     6    2    4 2
     7    2    5 1
     8    5    9 1
     9    5    6 1
    10    6    7 1
    11    6   30 1
    12    6   31 1
    13    7    8 1
    14    7   32 1
    15    7   33 1
    16    8   13 ar
    17    8    9 ar
    18    9   10 ar
    19   10   11 ar
    20   11   12 ar
    21   11   21 1
    22   12   13 ar
    23   13   14 1
    24   14   19 ar
    25   14   15 ar
    26   15   16 ar
    27   15   34 1
    28   16   17 ar
    29   17   18 ar
    30   17   20 1
    31   18   19 ar
    32   19   35 1
    33   20   36 1
    34   20   37 1
    35   21   26 1
    36   21   22 1
    37   22   23 1
    38   22   38 1
    39   22   39 1
    40   23   24 1
    41   23   40 1
    42   23   41 1
    43   24   25 1
    44   25   26 1
    45   25   42 1
    46   25   43 1
    47   26   44 1
    48   26   45 1
@<TRIPOS>MOLECULE
ZINC43202512
   48    51     0     0     0
SMALL
USER_CHARGES

@<TRIPOS>ATOM
      1 C1         -0.0055    1.4955    0.4053 C.3       1 <0>        -0.1666
      2 C2          0.0135   -0.0104    0.3513 C.2       1 <0>         0.5024
      3 O1          1.0712   -0.6032    0.3340 O.2       1 <0>        -0.4721
      4 N1         -1.1451   -0.6983    0.3221 N.am      1 <0>        -0.6203
      5 C3         -1.1277   -2.0825    0.2725 C.2       1 <0>         0.3547
      6 N2         -0.0949   -2.8927    0.2531 N.2       1 <0>        -0.4981
      7 C4         -0.2257   -4.2354    0.2035 C.ar      1 <0>         0.0883
      8 C5          0.7997   -5.2108    0.1777 C.ar      1 <0>        -0.0569
      9 C6          0.5046   -6.5350    0.1263 C.ar      1 <0>        -0.0954
     10 C7         -0.8178   -6.9885    0.0974 C.ar      1 <0>         0.0035
     11 C8         -1.8543   -6.0561    0.1220 C.ar      1 <0>        -0.0588
     12 C9         -1.5546   -4.7198    0.1734 C.ar      1 <0>        -0.1359
     13 S1         -2.5055   -3.2199    0.2263 S.3       1 <0>        -0.0058
     14 C10        -1.1138   -8.4409    0.0408 C.ar      1 <0>        -0.0498
     15 C11        -0.0755   -9.3759    0.0214 C.ar      1 <0>        -0.2050
     16 C12        -0.4055  -10.7247   -0.0319 C.ar      1 <0>         0.2573
     17 C13        -1.7471  -11.0932   -0.0639 C.ar      1 <0>         0.1218
     18 N3         -2.7004  -10.1820   -0.0446 N.ar      1 <0>        -0.4448
     19 C14        -2.4313   -8.8932    0.0120 C.ar      1 <0>         0.0198
     20 Cl1        -2.1716  -12.7752   -0.1306 Cl        1 <0>        -0.0456
     21 N4          0.5971  -11.6987   -0.0537 N.2       1 <0>        -1.0628
     22 S2          2.1861  -11.2488   -0.1759 S.o2      1 <0>         2.6068
     23 O2          2.3229  -10.5748   -1.4194 O.2       1 <0>        -1.0263
     24 O3          2.5327  -10.6422    1.0615 O.2       1 <0>        -1.0246
     25 C15         3.1382  -12.7265   -0.2965 C.ar      1 <0>        -0.6508
     26 C16         3.6073  -13.3408    0.8499 C.ar      1 <0>         0.0160
     27 C17         4.3543  -14.4992    0.7580 C.ar      1 <0>        -0.1755
     28 C18         4.6334  -15.0463   -0.4860 C.ar      1 <0>         0.1619
     29 C19         4.1612  -14.4282   -1.6348 C.ar      1 <0>        -0.2324
     30 C20         3.4102  -13.2728   -1.5372 C.ar      1 <0>         0.0179
     31 O4          5.3685  -16.1855   -0.5791 O.3       1 <0>        -0.3169
     32 C21         5.6168  -16.6919   -1.8921 C.3       1 <0>         0.0251
     33 H1          1.0175    1.8714    0.4227 H         1 <0>         0.1008
     34 H2         -0.5205    1.8842   -0.4733 H         1 <0>         0.0946
     35 H3         -0.5273    1.8203    1.3055 H         1 <0>         0.0946
     36 H4         -1.9912   -0.2241    0.3359 H         1 <0>         0.4278
     37 H5          1.8329   -4.8968    0.1988 H         1 <0>         0.1352
     38 H6          1.3097   -7.2546    0.1070 H         1 <0>         0.1394
     39 H7         -2.8832   -6.3837    0.1001 H         1 <0>         0.1409
     40 H8          0.9565   -9.0585    0.0469 H         1 <0>         0.1224
     41 H9         -3.2413   -8.1791    0.0311 H         1 <0>         0.1482
     42 H10         3.3897  -12.9145    1.8181 H         1 <0>         0.1444
     43 H11         4.7211  -14.9782    1.6537 H         1 <0>         0.1352
     44 H12         4.3771  -14.8522   -2.6043 H         1 <0>         0.1321
     45 H13         3.0386  -12.7937   -2.4309 H         1 <0>         0.1397
     46 H14         6.1586  -15.9454   -2.4729 H         1 <0>         0.0566
     47 H15         6.2128  -17.6020   -1.8238 H         1 <0>         0.0994
     48 H16         4.6684  -16.9145   -2.3810 H         1 <0>         0.0578
@<TRIPOS>BOND
     1    1    2 1
     2    1   33 1
     3    1   34 1
     4    1   35 1
     5    2    3 2
     6    2    4 am
     7    4    5 1
     8    4   36 1
     9    5   13 1
    10    5    6 2
    11    6    7 1
    12    7   12 ar
    13    7    8 ar
    14    8    9 ar
    15    8   37 1
    16    9   10 ar
    17    9   38 1
    18   10   11 ar
    19   10   14 1
    20   11   12 ar
    21   11   39 1
    22   12   13 1
    23   14   19 ar
    24   14   15 ar
    25   15   16 ar
    26   15   40 1
    27   16   17 ar
    28   16   21 1
    29   17   18 ar
    30   17   20 1
    31   18   19 ar
    32   19   41 1
    33   21   22 1
    34   22   23 2
    35   22   24 2
    36   22   25 1
    37   25   30 ar
    38   25   26 ar
    39   26   27 ar
    40   26   42 1
    41   27   28 ar
    42   27   43 1
    43   28   29 ar
    44   28   31 1
    45   29   30 ar
    46   29   44 1
    47   30   45 1
    48   31   32 1
    49   32   46 1
    50   32   47 1
    51   32   48 1
@<TRIPOS>MOLECULE
ZINC13608047
   36    39     0     0     0
SMALL
USER_CHARGES
2-morpholinopyrimido[2,3-a]isoquinolin-4-one
@<TRIPOS>ATOM
      1 C1         -0.0126    1.0758    0.0080 C.ar      1 <0>        -0.0791
      2 C2         -1.2299    1.7445    0.0174 C.ar      1 <0>        -0.1252
      3 C3         -1.2800    3.1110    0.0311 C.ar      1 <0>        -0.0466
      4 C4         -0.0919    3.8422    0.0227 C.ar      1 <0>        -0.0777
      5 C5          1.1470    3.1622    0.0076 C.ar      1 <0>        -0.0126
      6 C6          1.1675    1.7665    0.0004 C.ar      1 <0>        -0.1120
      7 C7          2.3773    3.9549   -0.0004 C.2       1 <0>        -0.1410
      8 C8          2.3043    5.2931    0.0067 C.2       1 <0>         0.0729
      9 N1          1.1113    5.9702    0.0208 N.am      1 <0>        -0.4490
     10 C9         -0.0849    5.3101    0.0296 C.2       1 <0>         0.4492
     11 N2         -1.2316    5.9688    0.0428 N.2       1 <0>        -0.5596
     12 C10        -1.2673    7.3023    0.0491 C.2       1 <0>         0.3790
     13 C11        -0.0777    8.0212    0.0411 C.2       1 <0>        -0.3344
     14 C12         1.1294    7.3224    0.0267 C.2       1 <0>         0.5228
     15 O1          2.1915    7.9254    0.0190 O.2       1 <0>        -0.5305
     16 N3         -2.4798    7.9650    0.0630 N.pl3     1 <0>        -0.4708
     17 C13        -2.6156    8.7899    1.2723 C.3       1 <0>         0.0222
     18 C14        -3.9431    9.5506    1.2183 C.3       1 <0>         0.0629
     19 O2         -5.0167    8.6164    1.0768 O.3       1 <0>        -0.3812
     20 C15        -4.9166    7.7970   -0.0911 C.3       1 <0>         0.0591
     21 C16        -3.5990    7.0185   -0.0503 C.3       1 <0>         0.0250
     22 H1          0.0021   -0.0041    0.0020 H         1 <0>         0.1346
     23 H2         -2.1492    1.1776    0.0187 H         1 <0>         0.1357
     24 H3         -2.2323    3.6205    0.0422 H         1 <0>         0.1447
     25 H4          2.1082    1.2361   -0.0114 H         1 <0>         0.1400
     26 H5          3.3391    3.4639   -0.0123 H         1 <0>         0.1622
     27 H6          3.2225    5.8618    0.0006 H         1 <0>         0.1784
     28 H7         -0.0878    9.1011    0.0457 H         1 <0>         0.1606
     29 H8         -2.5990    8.1489    2.1538 H         1 <0>         0.0609
     30 H9         -1.7906    9.5005    1.3227 H         1 <0>         0.1008
     31 H10        -3.9382   10.2312    0.3669 H         1 <0>         0.0661
     32 H11        -4.0748   10.1198    2.1385 H         1 <0>         0.1086
     33 H12        -4.9400    8.4265   -0.9806 H         1 <0>         0.0627
     34 H13        -5.7520    7.0973   -0.1175 H         1 <0>         0.1067
     35 H14        -3.4919    6.4360   -0.9654 H         1 <0>         0.0978
     36 H15        -3.5976    6.3487    0.8096 H         1 <0>         0.0668
@<TRIPOS>BOND
     1    1    6 ar
     2    1    2 ar
     3    1   22 1
     4    2    3 ar
     5    2   23 1
     6    3    4 ar
     7    3   24 1
     8    4   10 1
     9    4    5 ar
    10    5    6 ar
    11    5    7 1
    12    6   25 1
    13    7    8 2
    14    7   26 1
    15    8    9 1
    16    8   27 1
    17    9   14 am
    18    9   10 1
    19   10   11 2
    20   11   12 1
    21   12   13 2
    22   12   16 1
    23   13   14 1
    24   13   28 1
    25   14   15 2
    26   16   21 1
    27   16   17 1
    28   17   18 1
    29   17   29 1
    30   17   30 1
    31   18   19 1
    32   18   31 1
    33   18   32 1
    34   19   20 1
    35   20   21 1
    36   20   33 1
    37   20   34 1
    38   21   35 1
    39   21   36 1
@<TRIPOS>MOLECULE
ZINC52509466
   65    69     0     0     0
SMALL
USER_CHARGES

@<TRIPOS>ATOM
      1 C1         -1.1664   -0.6204    1.9357 C.3       1 <0>        -0.1646
      2 C2         -0.2382   -1.0825    0.8107 C.3       1 <0>         0.1414
      3 H1          0.0326   -2.1272    0.9641 H         1 <0>         0.0787
      4 C3         -0.9461   -0.9256   -0.5400 C.3       1 <0>         0.0510
      5 O1         -0.0133   -1.1815   -1.5927 O.3       1 <0>        -0.3773
      6 C4          1.0847   -0.2669   -1.6370 C.3       1 <0>         0.0471
      7 C5          1.8965   -0.3901   -0.3425 C.3       1 <0>         0.1129
      8 N1          0.9767   -0.2523    0.7980 N.pl3     1 <0>        -0.6647
      9 C6          1.2446    0.6287    1.8232 C.ar      1 <0>         0.5375
     10 C7          2.0726    0.2506    2.9076 C.ar      1 <0>        -0.2708
     11 C8          2.6532   -1.0229    2.9898 C.ar      1 <0>         0.0113
     12 C9          3.4401   -1.3050    4.0713 C.ar      1 <0>        -0.2081
     13 C10         3.6444   -0.3297    5.0564 C.ar      1 <0>         0.2673
     14 N2          3.0909    0.8687    4.9683 N.ar      1 <0>        -0.4814
     15 C11         2.3159    1.1956    3.9352 C.ar      1 <0>         0.3941
     16 N3          1.7512    2.4081    3.8364 N.ar      1 <0>        -0.5508
     17 C12         0.9868    2.7096    2.8035 C.ar      1 <0>         0.6028
     18 N4          0.7379    1.8539    1.8166 N.ar      1 <0>        -0.5824
     19 N5          0.4252    3.9707    2.7424 N.pl3     1 <0>        -0.5793
     20 C13        -0.5385    4.3205    1.6868 C.3       1 <0>         0.0913
     21 C14        -0.0863    5.6320    1.0346 C.3       1 <0>         0.0481
     22 O2          0.1261    6.6144    2.0512 O.3       1 <0>        -0.3792
     23 C15         1.1610    6.2816    2.9796 C.3       1 <0>         0.0506
     24 C16         0.7684    5.0016    3.7347 C.3       1 <0>         0.1231
     25 H2         -0.0930    5.1982    4.3730 H         1 <0>         0.0815
     26 C17         1.9447    4.5237    4.5885 C.3       1 <0>        -0.1319
     27 C18         4.4994   -0.6481    6.2238 C.ar      1 <0>        -0.1076
     28 C19         5.0959   -1.9047    6.3314 C.ar      1 <0>        -0.0475
     29 C20         5.8910   -2.1975    7.4182 C.ar      1 <0>        -0.2142
     30 C21         6.0985   -1.2432    8.4062 C.ar      1 <0>         0.1531
     31 C22         5.5062    0.0086    8.3020 C.ar      1 <0>        -0.1339
     32 C23         4.7144    0.3098    7.2145 C.ar      1 <0>        -0.0045
     33 C24         5.7340    1.0408    9.3761 C.3       1 <0>         0.1289
     34 O3          5.0254    2.2368    9.0454 O.3       1 <0>        -0.5678
     35 O4          6.8820   -1.5351    9.4764 O.3       1 <0>        -0.3134
     36 C25         7.4596   -2.8414    9.5205 C.3       1 <0>         0.0246
     37 H3         -1.3656    0.4458    1.8275 H         1 <0>         0.0687
     38 H4         -2.1047   -1.1725    1.8825 H         1 <0>         0.0767
     39 H5         -0.6902   -0.8051    2.8986 H         1 <0>         0.0582
     40 H6         -1.7706   -1.6357   -0.6035 H         1 <0>         0.1027
     41 H7         -1.3311    0.0898   -0.6334 H         1 <0>         0.0579
     42 H8          1.7211   -0.5031   -2.4897 H         1 <0>         0.1040
     43 H9          0.7070    0.7509   -1.7344 H         1 <0>         0.0567
     44 H10         2.3828   -1.3649   -0.3055 H         1 <0>         0.0714
     45 H11         2.6489    0.3977   -0.3046 H         1 <0>         0.0793
     46 H12         2.4830   -1.7609    2.2199 H         1 <0>         0.1415
     47 H13         3.9025   -2.2764    4.1663 H         1 <0>         0.1425
     48 H14        -0.5663    3.5287    0.9381 H         1 <0>         0.1070
     49 H15        -1.5293    4.4496    2.1223 H         1 <0>         0.0750
     50 H16         0.8426    5.4659    0.4890 H         1 <0>         0.0547
     51 H17        -0.8562    5.9808    0.3464 H         1 <0>         0.1081
     52 H18         2.0945    6.1180    2.4411 H         1 <0>         0.0556
     53 H19         1.2884    7.0978    3.6908 H         1 <0>         0.1086
     54 H20         2.7511    4.1842    3.9385 H         1 <0>         0.0625
     55 H21         2.3005    5.3458    5.2096 H         1 <0>         0.0496
     56 H22         1.6206    3.7008    5.2256 H         1 <0>         0.0996
     57 H23         4.9344   -2.6473    5.5640 H         1 <0>         0.1335
     58 H24         6.3531   -3.1700    7.5022 H         1 <0>         0.1367
     59 H25         4.2576    1.2850    7.1318 H         1 <0>         0.1574
     60 H26         5.3740    0.6574   10.3308 H         1 <0>         0.0604
     61 H27         6.7995    1.2586    9.4506 H         1 <0>         0.0603
     62 H28         5.1269    2.9464    9.6944 H         1 <0>         0.3848
     63 H29         8.0601   -2.9429   10.4245 H         1 <0>         0.1031
     64 H30         6.6667   -3.5893    9.5252 H         1 <0>         0.0588
     65 H31         8.0926   -2.9885    8.6454 H         1 <0>         0.0587
@<TRIPOS>BOND
     1    1    2 1
     2    1   37 1
     3    1   38 1
     4    1   39 1
     5    2    3 1
     6    2    8 1
     7    2    4 1
     8    4    5 1
     9    4   40 1
    10    4   41 1
    11    5    6 1
    12    6    7 1
    13    6   42 1
    14    6   43 1
    15    7    8 1
    16    7   44 1
    17    7   45 1
    18    8    9 1
    19    9   18 ar
    20    9   10 ar
    21   10   15 ar
    22   10   11 ar
    23   11   12 ar
    24   11   46 1
    25   12   13 ar
    26   12   47 1
    27   13   14 ar
    28   13   27 1
    29   14   15 ar
    30   15   16 ar
    31   16   17 ar
    32   17   18 ar
    33   17   19 1
    34   19   24 1
    35   19   20 1
    36   20   21 1
    37   20   48 1
    38   20   49 1
    39   21   22 1
    40   21   50 1
    41   21   51 1
    42   22   23 1
    43   23   24 1
    44   23   52 1
    45   23   53 1
    46   24   25 1
    47   24   26 1
    48   26   54 1
    49   26   55 1
    50   26   56 1
    51   27   32 ar
    52   27   28 ar
    53   28   29 ar
    54   28   57 1
    55   29   30 ar
    56   29   58 1
    57   30   31 ar
    58   30   35 1
    59   31   32 ar
    60   31   33 1
    61   32   59 1
    62   33   34 1
    63   33   60 1
    64   33   61 1
    65   34   62 1
    66   35   36 1
    67   36   63 1
    68   36   64 1
    69   36   65 1
@<TRIPOS>MOLECULE
ZINC03938693
   49    54     0     0     0
SMALL
USER_CHARGES
8-dibenzothiophen-4-yl-2-morpholino-chromen-4-one
@<TRIPOS>ATOM
      1 C1         -4.6468   -3.5753   -1.1748 C.ar      1 <0>        -0.1185
      2 C2         -5.4276   -2.6582   -0.4874 C.ar      1 <0>        -0.0911
      3 C3         -5.4502   -1.3404   -0.9006 C.ar      1 <0>        -0.0773
      4 C4         -4.6968   -0.9535   -1.9905 C.ar      1 <0>        -0.1031
      5 C5         -3.8982   -1.8587   -2.7046 C.ar      1 <0>        -0.0753
      6 C6         -3.8953   -3.1979   -2.2586 C.ar      1 <0>        -0.0772
      7 C7         -3.1490   -1.2943   -3.8499 C.ar      1 <0>        -0.0725
      8 C8         -2.2814   -1.9837   -4.7255 C.ar      1 <0>        -0.0718
      9 C9         -1.6497   -1.3284   -5.7531 C.ar      1 <0>        -0.1174
     10 C10        -1.8389    0.0258   -5.9679 C.ar      1 <0>        -0.0765
     11 C11        -2.6878    0.7383   -5.1234 C.ar      1 <0>        -0.0053
     12 C12        -3.3238    0.0768   -4.0778 C.ar      1 <0>        -0.0812
     13 S1         -4.4579    0.5984   -2.8171 S.3       1 <0>         0.0435
     14 C13        -2.9064    2.1892   -5.3334 C.ar      1 <0>        -0.0749
     15 C14        -3.5352    2.6414   -6.4891 C.ar      1 <0>        -0.0418
     16 C15        -3.7430    3.9945   -6.6925 C.ar      1 <0>        -0.1429
     17 C16        -3.3286    4.9141   -5.7514 C.ar      1 <0>        -0.0248
     18 C17        -2.6969    4.4788   -4.5876 C.ar      1 <0>        -0.2155
     19 C18        -2.4811    3.1116   -4.3698 C.ar      1 <0>         0.1667
     20 O1         -1.8696    2.7002   -3.2398 O.3       1 <0>        -0.2335
     21 C19        -1.4519    3.5582   -2.2993 C.2       1 <0>         0.3499
     22 C20        -1.6179    4.9060   -2.4118 C.2       1 <0>        -0.3553
     23 C21        -2.2405    5.4359   -3.5582 C.2       1 <0>         0.4300
     24 O2         -2.4016    6.6381   -3.6941 O.2       1 <0>        -0.4774
     25 N1         -0.8389    3.0606   -1.1783 N.pl3     1 <0>        -0.4556
     26 C22        -0.7549    1.5938   -1.2309 C.3       1 <0>         0.0069
     27 C23        -0.0127    1.0858    0.0080 C.3       1 <0>         0.0636
     28 O3         -0.6838    1.5479    1.1834 O.3       1 <0>        -0.3774
     29 C24        -0.7839    2.9721    1.2669 C.3       1 <0>         0.0623
     30 C25        -1.5339    3.4992    0.0407 C.3       1 <0>         0.0155
     31 H1         -4.6301   -4.6055   -0.8511 H         1 <0>         0.1312
     32 H2         -6.0135   -2.9719    0.3639 H         1 <0>         0.1374
     33 H3         -6.0539   -0.6165   -0.3735 H         1 <0>         0.1332
     34 H4         -3.2960   -3.9325   -2.7759 H         1 <0>         0.1266
     35 H5         -2.1128   -3.0412   -4.5848 H         1 <0>         0.1283
     36 H6         -0.9918   -1.8809   -6.4075 H         1 <0>         0.1347
     37 H7         -1.3336    0.5251   -6.7815 H         1 <0>         0.1390
     38 H8         -3.8634    1.9311   -7.2335 H         1 <0>         0.1439
     39 H9         -4.2324    4.3326   -7.5939 H         1 <0>         0.1420
     40 H10        -3.4930    5.9687   -5.9161 H         1 <0>         0.1461
     41 H11        -1.2703    5.5637   -1.6288 H         1 <0>         0.1600
     42 H12        -0.2145    1.2922   -2.1281 H         1 <0>         0.0999
     43 H13        -1.7598    1.1722   -1.2516 H         1 <0>         0.0725
     44 H14         0.0021   -0.0041    0.0020 H         1 <0>         0.1077
     45 H15         1.0097    1.4637    0.0003 H         1 <0>         0.0662
     46 H16         0.2159    3.4055    1.2962 H         1 <0>         0.0683
     47 H17        -1.3264    3.2471    2.1714 H         1 <0>         0.1127
     48 H18        -1.5620    4.5884    0.0717 H         1 <0>         0.1086
     49 H19        -2.5513    3.1080    0.0404 H         1 <0>         0.0694
@<TRIPOS>BOND
     1    1    6 ar
     2    1    2 ar
     3    1   31 1
     4    2    3 ar
     5    2   32 1
     6    3    4 ar
     7    3   33 1
     8    4   13 1
     9    4    5 ar
    10    5    6 ar
    11    5    7 1
    12    6   34 1
    13    7   12 ar
    14    7    8 ar
    15    8    9 ar
    16    8   35 1
    17    9   10 ar
    18    9   36 1
    19   10   11 ar
    20   10   37 1
    21   11   12 ar
    22   11   14 1
    23   12   13 1
    24   14   19 ar
    25   14   15 ar
    26   15   16 ar
    27   15   38 1
    28   16   17 ar
    29   16   39 1
    30   17   18 ar
    31   17   40 1
    32   18   23 1
    33   18   19 ar
    34   19   20 1
    35   20   21 1
    36   21   22 2
    37   21   25 1
    38   22   23 1
    39   22   41 1
    40   23   24 2
    41   25   30 1
    42   25   26 1
    43   26   27 1
    44   26   42 1
    45   26   43 1
    46   27   28 1
    47   27   44 1
    48   27   45 1
    49   28   29 1
    50   29   30 1
    51   29   46 1
    52   29   47 1
    53   30   48 1
    54   30   49 1
@<TRIPOS>MOLECULE
ZINC03817388
   44    48     0     0     0
SMALL
USER_CHARGES
2-morpholino-6-thianthren-1-yl-pyran-4-one
@<TRIPOS>ATOM
      1 C1         -0.0126    1.0758    0.0080 C.ar      1 <0>        -0.0962
      2 C2         -1.2178    1.7530    0.0173 C.ar      1 <0>        -0.0960
      3 C3         -1.2290    3.1318    0.0292 C.ar      1 <0>        -0.0786
      4 C4         -0.0354    3.8584    0.0205 C.ar      1 <0>        -0.1130
      5 C5          1.1703    3.1811    0.0067 C.ar      1 <0>        -0.1118
      6 C6          1.1707    1.7837    0.0005 C.ar      1 <0>        -0.0782
      7 S1          2.7249    3.9920   -0.0029 S.3       1 <0>         0.0473
      8 C7          2.4855    5.5379   -0.7955 C.ar      1 <0>        -0.1136
      9 C8          3.5773    6.0950   -1.4653 C.ar      1 <0>        -0.0568
     10 C9          3.4748    7.3097   -2.1156 C.ar      1 <0>        -0.0984
     11 C10         2.2794    7.9944   -2.1115 C.ar      1 <0>        -0.0604
     12 C11         1.1775    7.4549   -1.4479 C.ar      1 <0>        -0.0294
     13 C12         1.2797    6.2143   -0.7821 C.ar      1 <0>        -0.0806
     14 S2         -0.1517    5.6080    0.0287 S.3       1 <0>         0.0481
     15 C13        -0.1032    8.1853   -1.4422 C.2       1 <0>         0.1725
     16 C14        -0.1265    9.4998   -1.0893 C.2       1 <0>        -0.2662
     17 C15        -1.3620   10.1914   -1.0927 C.2       1 <0>         0.4064
     18 O1         -1.4187   11.3740   -0.7859 O.2       1 <0>        -0.4949
     19 C16        -2.5273    9.4817   -1.4538 C.2       1 <0>        -0.3317
     20 C17        -2.4253    8.1661   -1.7894 C.2       1 <0>         0.3238
     21 O2         -1.2363    7.5434   -1.7804 O.3       1 <0>        -0.2204
     22 N1         -3.5546    7.4666   -2.1425 N.pl3     1 <0>        -0.4524
     23 C18        -4.5684    7.5318   -1.0798 C.3       1 <0>         0.0142
     24 C19        -5.8283    6.7923   -1.5378 C.3       1 <0>         0.0625
     25 O3         -5.4872    5.4459   -1.8789 O.3       1 <0>        -0.3783
     26 C20        -4.5027    5.3453   -2.9113 C.3       1 <0>         0.0620
     27 C21        -3.2294    6.0702   -2.4672 C.3       1 <0>         0.0054
     28 H1          0.0021   -0.0041    0.0020 H         1 <0>         0.1391
     29 H2         -2.1477    1.2038    0.0196 H         1 <0>         0.1390
     30 H3         -2.1726    3.6571    0.0401 H         1 <0>         0.1334
     31 H4          2.1102    1.2512   -0.0108 H         1 <0>         0.1372
     32 H5          4.5192    5.5668   -1.4745 H         1 <0>         0.1435
     33 H6          4.3317    7.7222   -2.6274 H         1 <0>         0.1491
     34 H7          2.1957    8.9437   -2.6196 H         1 <0>         0.1476
     35 H8          0.7854   10.0092   -0.8147 H         1 <0>         0.1607
     36 H9         -3.4875    9.9760   -1.4641 H         1 <0>         0.1585
     37 H10        -4.1793    7.0626   -0.1762 H         1 <0>         0.0684
     38 H11        -4.8128    8.5738   -0.8733 H         1 <0>         0.1081
     39 H12        -6.2478    7.2936   -2.4101 H         1 <0>         0.0687
     40 H13        -6.5623    6.7888   -0.7320 H         1 <0>         0.1129
     41 H14        -4.8836    5.8046   -3.8235 H         1 <0>         0.0665
     42 H15        -4.2772    4.2955   -3.0991 H         1 <0>         0.1090
     43 H16        -2.4963    6.0452   -3.2735 H         1 <0>         0.1007
     44 H17        -2.8188    5.5776   -1.5858 H         1 <0>         0.0724
@<TRIPOS>BOND
     1    1    6 ar
     2    1    2 ar
     3    1   28 1
     4    2    3 ar
     5    2   29 1
     6    3    4 ar
     7    3   30 1
     8    4   14 1
     9    4    5 ar
    10    5    6 ar
    11    5    7 1
    12    6   31 1
    13    7    8 1
    14    8   13 ar
    15    8    9 ar
    16    9   10 ar
    17    9   32 1
    18   10   11 ar
    19   10   33 1
    20   11   12 ar
    21   11   34 1
    22   12   13 ar
    23   12   15 1
    24   13   14 1
    25   15   21 1
    26   15   16 2
    27   16   17 1
    28   16   35 1
    29   17   18 2
    30   17   19 1
    31   19   20 2
    32   19   36 1
    33   20   21 1
    34   20   22 1
    35   22   27 1
    36   22   23 1
    37   23   24 1
    38   23   37 1
    39   23   38 1
    40   24   25 1
    41   24   39 1
    42   24   40 1
    43   25   26 1
    44   26   27 1
    45   26   41 1
    46   26   42 1
    47   27   43 1
    48   27   44 1
@<TRIPOS>MOLECULE
ZINC03935700
   57    61     0     0     0
SMALL
USER_CHARGES
[hydroxy-(methoxymethyl)-dimethyl-dioxo-BLAHyl] acetate
@<TRIPOS>ATOM
      1 C1         -0.9932    1.0658    3.6675 C.3       1 <0>        -0.1489
      2 C2         -0.4155    0.6979    2.3252 C.2       1 <0>         0.4600
      3 O1          0.2120   -0.3268    2.1979 O.2       1 <0>        -0.5026
      4 O2         -0.5980    1.5084    1.2710 O.3       1 <0>        -0.3522
      5 C3         -0.0128    1.0903    0.0080 C.3       1 <0>         0.1246
      6 H1          0.0021   -0.0041    0.0020 H         1 <0>         0.1074
      7 C4          1.4335    1.5813   -0.0031 C.3       1 <0>        -0.1211
      8 C5          1.8826    1.7610   -1.4367 C.3       1 <0>        -0.0498
      9 C6          0.9889    2.8853   -2.0137 C.3       1 <0>        -0.0565
     10 H2          1.0243    3.7570   -1.3516 H         1 <0>         0.1001
     11 C7          1.6959    3.2206   -3.3256 C.3       1 <0>        -0.1004
     12 C8          3.2001    3.1515   -2.9465 C.3       1 <0>        -0.1586
     13 C9          3.2874    2.3304   -1.6373 C.3       1 <0>         0.1146
     14 H3          3.5516    2.9739   -0.7987 H         1 <0>         0.0640
     15 O3          4.2336    1.2692   -1.7707 O.3       1 <0>        -0.5568
     16 C10        -0.4177    2.3898   -2.0902 C.2       1 <0>        -0.1084
     17 C11        -0.8750    1.5613   -1.1390 C.2       1 <0>        -0.0254
     18 C12        -2.2775    1.0043   -1.1985 C.3       1 <0>        -0.0008
     19 C13        -3.0897    1.7596   -2.2125 C.2       1 <0>        -0.1297
     20 C14        -4.5067    1.6838   -2.2747 C.2       1 <0>        -0.2717
     21 C15        -4.8531    2.3923   -3.3765 C.2       1 <0>         0.1083
     22 O4         -3.7279    2.9034   -3.9332 O.3       1 <0>        -0.1276
     23 C16        -2.6640    2.5730   -3.1992 C.2       1 <0>        -0.0589
     24 C17        -1.2238    2.8519   -3.2527 C.2       1 <0>         0.4729
     25 O5         -0.7256    3.4344   -4.2026 O.2       1 <0>        -0.4052
     26 C18        -5.1797    0.9247   -1.2041 C.2       1 <0>         0.5692
     27 O6         -6.3316    0.5422   -1.3133 O.2       1 <0>        -0.4447
     28 O7         -4.4543    0.6726   -0.0859 O.3       1 <0>        -0.3361
     29 C19        -3.0845    1.1150    0.0902 C.3       1 <0>         0.1424
     30 H4         -2.6257    0.5254    0.8664 H         1 <0>         0.1333
     31 C20        -3.1479    2.5856    0.5106 C.3       1 <0>         0.0366
     32 O8         -3.8012    2.6913    1.7771 O.3       1 <0>        -0.3752
     33 C21        -3.9132    4.0303    2.2634 C.3       1 <0>         0.0297
     34 C22        -2.2201   -0.4689   -1.6236 C.3       1 <0>        -0.1423
     35 C23         1.7404    0.4620   -2.2274 C.3       1 <0>        -0.1328
     36 H5         -1.5213    2.0160    3.5877 H         1 <0>         0.0948
     37 H6         -1.6879    0.2899    3.9891 H         1 <0>         0.1100
     38 H7         -0.1882    1.1577    4.3967 H         1 <0>         0.1072
     39 H8          1.5005    2.5340    0.5289 H         1 <0>         0.0849
     40 H9          2.0740    0.8509    0.4989 H         1 <0>         0.0909
     41 H10         1.4558    2.4969   -4.1037 H         1 <0>         0.0766
     42 H11         1.4314    4.2282   -3.6572 H         1 <0>         0.0784
     43 H12         3.7658    2.6588   -3.7380 H         1 <0>         0.0790
     44 H13         3.5919    4.1574   -2.7840 H         1 <0>         0.0719
     45 H14         5.1440    1.5681   -1.9006 H         1 <0>         0.3798
     46 H15        -5.8568    2.5245   -3.7467 H         1 <0>         0.2349
     47 H16        -2.1367    2.9850    0.5889 H         1 <0>         0.0830
     48 H17        -3.7058    3.1528   -0.2345 H         1 <0>         0.0538
     49 H18        -2.9179    4.4597    2.3781 H         1 <0>         0.0446
     50 H19        -4.4870    4.6275    1.5547 H         1 <0>         0.0405
     51 H20        -4.4201    4.0252    3.2283 H         1 <0>         0.0917
     52 H21        -1.7546   -0.5457   -2.6062 H         1 <0>         0.0777
     53 H22        -1.6340   -1.0337   -0.8987 H         1 <0>         0.0814
     54 H23        -3.2311   -0.8739   -1.6679 H         1 <0>         0.0765
     55 H24         0.6945    0.1553   -2.2375 H         1 <0>         0.0488
     56 H25         2.0826    0.6199   -3.2502 H         1 <0>         0.0649
     57 H26         2.3427   -0.3164   -1.7589 H         1 <0>         0.0712
@<TRIPOS>BOND
     1    1    2 1
     2    1   36 1
     3    1   37 1
     4    1   38 1
     5    2    3 2
     6    2    4 1
     7    4    5 1
     8    5    6 1
     9    5   17 1
    10    5    7 1
    11    7    8 1
    12    7   39 1
    13    7   40 1
    14    8   13 1
    15    8    9 1
    16    8   35 1
    17    9   10 1
    18    9   11 1
    19    9   16 1
    20   11   12 1
    21   11   41 1
    22   11   42 1
    23   12   13 1
    24   12   43 1
    25   12   44 1
    26   13   14 1
    27   13   15 1
    28   15   45 1
    29   16   24 1
    30   16   17 2
    31   17   18 1
    32   18   29 1
    33   18   19 1
    34   18   34 1
    35   19   23 2
    36   19   20 1
    37   20   21 2
    38   20   26 1
    39   21   22 1
    40   21   46 1
    41   22   23 1
    42   23   24 1
    43   24   25 2
    44   26   27 2
    45   26   28 1
    46   28   29 1
    47   29   30 1
    48   29   31 1
    49   31   32 1
    50   31   47 1
    51   31   48 1
    52   32   33 1
    53   33   49 1
    54   33   50 1
    55   33   51 1
    56   34   52 1
    57   34   53 1
    58   34   54 1
    59   35   55 1
    60   35   56 1
    61   35   57 1
@<TRIPOS>MOLECULE
ZINC29134545
   73    76     0     0     0
SMALL
USER_CHARGES
[(3aR,6E,9S,9aR,10R,11aS)-6-[(diallylamino)methylene]-5-hydroxy-9-(methoxymethyl)-9a,11a-dimethyl-1,4,7-trioxo-2,3,3a,9,10,11-hexahydroindeno[4,5-h]isochromen-10-yl] acetate
@<TRIPOS>ATOM
      1 C1          4.2785    3.3424   -5.6688 C.3       1 <0>        -0.1564
      2 C2          4.3853    2.3998   -4.4979 C.2       1 <0>         0.4592
      3 O1          5.4097    2.3429   -3.8597 O.2       1 <0>        -0.5031
      4 O2          3.3425    1.6235   -4.1639 O.3       1 <0>        -0.3448
      5 C3          3.5166    0.7398   -3.0249 C.3       1 <0>         0.1180
      6 H1          4.2435    1.1768   -2.3244 H         1 <0>         0.1124
      7 C4          4.0671   -0.5975   -3.5246 C.3       1 <0>        -0.1147
      8 C5          3.7531   -1.6270   -2.4565 C.3       1 <0>        -0.1082
      9 C6          2.2120   -1.8117   -2.5082 C.3       1 <0>        -0.0522
     10 H2          1.7041   -1.9693   -3.4711 H         1 <0>         0.1061
     11 C7          2.0322   -3.0412   -1.6143 C.3       1 <0>        -0.1020
     12 C8          3.2194   -3.9447   -2.0519 C.3       1 <0>        -0.1804
     13 C9          4.2729   -3.0182   -2.6542 C.2       1 <0>         0.3891
     14 O3          5.3108   -3.3402   -3.1810 O.2       1 <0>        -0.4284
     15 C10         1.5945   -0.5361   -2.0438 C.2       1 <0>        -0.1408
     16 C11         2.1955    0.6255   -2.2966 C.2       1 <0>        -0.0431
     17 C12         1.5867    1.9269   -1.8440 C.3       1 <0>        -0.0164
     18 C13         1.5312    2.9196   -3.0087 C.3       1 <0>         0.1344
     19 H3          2.5429    3.1529   -3.3721 H         1 <0>         0.1361
     20 O4          0.9501    4.1734   -2.5514 O.3       1 <0>        -0.3588
     21 C14        -0.2983    4.1035   -2.0197 C.2       1 <0>         0.5441
     22 O5         -1.1877    4.8566   -2.3668 O.2       1 <0>        -0.4647
     23 C15        -0.5149    3.0541   -0.9890 C.2       1 <0>        -0.3449
     24 C16        -1.3290    3.2384    0.1127 C.2       1 <0>         0.2834
     25 N1         -1.1672    2.4651    1.2095 N.pl3     1 <0>        -0.5566
     26 C17         0.1503    1.9074    1.5247 C.3       1 <0>         0.1200
     27 C18         0.8409    2.7891    2.5330 C.2       1 <0>        -0.1810
     28 C19         1.2812    2.2791    3.6564 C.2       1 <0>        -0.1744
     29 C20        -2.3094    2.1847    2.0831 C.3       1 <0>         0.1400
     30 C21        -3.0135    0.9408    1.6057 C.2       1 <0>        -0.1633
     31 C22        -3.2052   -0.0601    2.4288 C.2       1 <0>        -0.1879
     32 C23         0.2168    1.7931   -1.2528 C.2       1 <0>        -0.0246
     33 C24        -0.3559    0.6061   -0.9714 C.2       1 <0>         0.0091
     34 C25         0.3140   -0.5911   -1.3164 C.2       1 <0>         0.3997
     35 O6         -0.1683   -1.6687   -1.0123 O.2       1 <0>        -0.4492
     36 O7         -1.5729    0.5595   -0.3645 O.3       1 <0>        -0.4694
     37 C26         0.6710    2.3390   -4.1330 C.3       1 <0>         0.0414
     38 O8          0.7136    3.2111   -5.2642 O.3       1 <0>        -0.3739
     39 C27        -0.0613    2.7587   -6.3764 C.3       1 <0>         0.0281
     40 C28         2.4951    2.5213   -0.7658 C.3       1 <0>        -0.1441
     41 C29         4.1698   -1.1063   -1.0794 C.3       1 <0>        -0.1481
     42 H4          3.2797    3.2537   -6.1210 H         1 <0>         0.1012
     43 H5          5.0436    3.0864   -6.4165 H         1 <0>         0.1084
     44 H6          4.4342    4.3751   -5.3235 H         1 <0>         0.1111
     45 H7          3.5819   -0.8613   -4.4759 H         1 <0>         0.0893
     46 H8          5.1530   -0.5127   -3.6780 H         1 <0>         0.0925
     47 H9          2.0904   -2.7385   -0.5584 H         1 <0>         0.0779
     48 H10         1.0509   -3.4975   -1.8114 H         1 <0>         0.0908
     49 H11         3.6188   -4.4755   -1.1751 H         1 <0>         0.1042
     50 H12         2.8691   -4.6761   -2.7951 H         1 <0>         0.1039
     51 H13        -2.1085    4.0143    0.0969 H         1 <0>         0.1512
     52 H14         0.0303    0.8969    1.9425 H         1 <0>         0.0763
     53 H15         0.7555    1.8555    0.6076 H         1 <0>         0.1111
     54 H16         0.9753    3.8610    2.3256 H         1 <0>         0.1148
     55 H17         1.7853    2.9227    4.3924 H         1 <0>         0.1053
     56 H18         1.1468    1.2072    3.8638 H         1 <0>         0.0990
     57 H19        -1.9546    2.0327    3.1131 H         1 <0>         0.0844
     58 H20        -3.0079    3.0341    2.0575 H         1 <0>         0.0895
     59 H21        -3.3665    0.8733    0.5661 H         1 <0>         0.1265
     60 H22        -3.7192   -0.9681    2.0803 H         1 <0>         0.1039
     61 H23        -2.8522    0.0074    3.4684 H         1 <0>         0.0973
     62 H24        -2.0370   -0.4114   -0.1365 H         1 <0>         0.4226
     63 H25         1.0588    1.3498   -4.4178 H         1 <0>         0.0753
     64 H26        -0.3680    2.2394   -3.7857 H         1 <0>         0.0525
     65 H27         0.0241    3.4816   -7.2011 H         1 <0>         0.0917
     66 H28        -1.1156    2.6680   -6.0760 H         1 <0>         0.0411
     67 H29         0.3111    1.7783   -6.7082 H         1 <0>         0.0427
     68 H30         2.0734    3.4752   -0.4161 H         1 <0>         0.0848
     69 H31         3.4969    2.6952   -1.1854 H         1 <0>         0.0727
     70 H32         2.5680    1.8208    0.0792 H         1 <0>         0.0703
     71 H33         3.9364   -1.8625   -0.3154 H         1 <0>         0.0717
     72 H34         3.6217   -0.1789   -0.8568 H         1 <0>         0.0734
     73 H35         5.2509   -0.9031   -1.0760 H         1 <0>         0.0728
@<TRIPOS>BOND
     1    1    2 1
     2    1   42 1
     3    1   43 1
     4    1   44 1
     5    2    3 2
     6    2    4 1
     7    4    5 1
     8    5    6 1
     9    5   16 1
    10    5    7 1
    11    7    8 1
    12    7   45 1
    13    7   46 1
    14    8   13 1
    15    8    9 1
    16    8   41 1
    17    9   10 1
    18    9   11 1
    19    9   15 1
    20   11   12 1
    21   11   47 1
    22   11   48 1
    23   12   13 1
    24   12   49 1
    25   12   50 1
    26   13   14 2
    27   15   34 1
    28   15   16 2
    29   16   17 1
    30   17   32 1
    31   17   18 1
    32   17   40 1
    33   18   19 1
    34   18   20 1
    35   18   37 1
    36   20   21 1
    37   21   22 2
    38   21   23 1
    39   23   24 2
    40   23   32 1
    41   24   25 1
    42   24   51 1
    43   25   26 1
    44   25   29 1
    45   26   27 1
    46   26   52 1
    47   26   53 1
    48   27   28 2
    49   27   54 1
    50   28   55 1
    51   28   56 1
    52   29   30 1
    53   29   57 1
    54   29   58 1
    55   30   31 2
    56   30   59 1
    57   31   60 1
    58   31   61 1
    59   32   33 2
    60   33   34 1
    61   33   36 1
    62   34   35 2
    63   36   62 1
    64   37   38 1
    65   37   63 1
    66   37   64 1
    67   38   39 1
    68   39   65 1
    69   39   66 1
    70   39   67 1
    71   40   68 1
    72   40   69 1
    73   40   70 1
    74   41   71 1
    75   41   72 1
    76   41   73 1
@<TRIPOS>MOLECULE
ZINC01619592
   55    59     0     0     0
SMALL
USER_CHARGES

@<TRIPOS>ATOM
      1 C1         -0.0184    1.5028    0.0103 C.3       1 <0>        -0.1511
      2 C2          0.0021   -0.0041    0.0020 C.2       1 <0>         0.4597
      3 O1          1.0565   -0.5939   -0.0112 O.2       1 <0>        -0.4999
      4 O2         -1.1511   -0.6910    0.0093 O.3       1 <0>        -0.3474
      5 C3         -1.0568   -2.1201    0.0008 C.3       1 <0>         0.1219
      6 H1         -0.1268   -2.3839    0.5135 H         1 <0>         0.1078
      7 C4         -0.9300   -2.5524   -1.4583 C.3       1 <0>        -0.1184
      8 C5         -1.5070   -3.9418   -1.6157 C.3       1 <0>        -0.1187
      9 C6         -3.0076   -3.8238   -1.2599 C.3       1 <0>        -0.0498
     10 H2         -3.4688   -3.0269   -1.8517 H         1 <0>         0.1063
     11 C7         -3.5424   -5.1804   -1.7235 C.3       1 <0>        -0.1009
     12 C8         -2.7629   -5.4191   -3.0462 C.3       1 <0>        -0.1830
     13 C9         -1.5465   -4.4997   -3.0127 C.2       1 <0>         0.3855
     14 O3         -0.7805   -4.2605   -3.9130 O.2       1 <0>        -0.4254
     15 C10        -3.1349   -3.4967    0.1921 C.2       1 <0>        -0.1113
     16 C11        -2.2157   -2.7096    0.7678 C.2       1 <0>        -0.0220
     17 C12        -2.2470   -2.4186    2.2520 C.3       1 <0>        -0.0027
     18 C13        -3.5419   -2.8944    2.8428 C.2       1 <0>        -0.1255
     19 C14        -4.0137   -2.4591    4.1090 C.2       1 <0>        -0.2743
     20 C15        -5.1338   -3.1850    4.3420 C.2       1 <0>         0.1107
     21 O4         -5.3667   -3.9750    3.2644 O.3       1 <0>        -0.1272
     22 C16        -4.4651   -3.7201    2.3152 C.2       1 <0>        -0.0593
     23 C17        -4.2994   -4.0888    0.9041 C.2       1 <0>         0.4739
     24 O5         -5.0852   -4.8388    0.3501 O.2       1 <0>        -0.4050
     25 C18        -3.2587   -1.3792    4.7707 C.2       1 <0>         0.5710
     26 O6         -3.4416   -1.0831    5.9367 O.2       1 <0>        -0.4406
     27 O7         -2.3673   -0.7035    4.0022 O.3       1 <0>        -0.3342
     28 C19        -2.1782   -0.9381    2.6104 C.3       1 <0>         0.1418
     29 H3         -1.2274   -0.5290    2.3161 H         1 <0>         0.1331
     30 C20        -3.3080   -0.2057    1.8834 C.3       1 <0>         0.0325
     31 O8         -3.1902    1.1997    2.1137 O.3       1 <0>        -0.3752
     32 C21        -4.2027    1.9802    1.4751 C.3       1 <0>         0.0299
     33 C22        -1.0932   -3.1555    2.9462 C.3       1 <0>        -0.1410
     34 C23        -0.7898   -4.9340   -0.7021 C.3       1 <0>        -0.1431
     35 H4          1.0042    1.8801    0.0026 H         1 <0>         0.1053
     36 H5         -0.5455    1.8639   -0.8728 H         1 <0>         0.1024
     37 H6         -0.5286    1.8543    0.9071 H         1 <0>         0.1090
     38 H7         -1.4691   -1.8509   -2.0999 H         1 <0>         0.0889
     39 H8          0.1251   -2.5564   -1.7479 H         1 <0>         0.0943
     40 H9         -3.3312   -5.9617   -0.9953 H         1 <0>         0.0820
     41 H10        -4.6154   -5.1243   -1.9164 H         1 <0>         0.0922
     42 H11        -2.4449   -6.4590   -3.1085 H         1 <0>         0.1059
     43 H12        -3.3960   -5.1755   -3.9005 H         1 <0>         0.1025
     44 H13        -5.7345   -3.1423    5.2384 H         1 <0>         0.2359
     45 H14        -3.2413   -0.4054    0.8139 H         1 <0>         0.0819
     46 H15        -4.2692   -0.5562    2.2593 H         1 <0>         0.0526
     47 H16        -4.0433    3.0351    1.6985 H         1 <0>         0.0920
     48 H17        -4.1546    1.8258    0.3972 H         1 <0>         0.0450
     49 H18        -5.1825    1.6750    1.8425 H         1 <0>         0.0405
     50 H19        -0.1439   -2.8172    2.5309 H         1 <0>         0.0813
     51 H20        -1.1181   -2.9442    4.0152 H         1 <0>         0.0779
     52 H21        -1.1983   -4.2284    2.7854 H         1 <0>         0.0788
     53 H22        -0.9157   -4.6281    0.3365 H         1 <0>         0.0689
     54 H23        -1.2137   -5.9285   -0.8418 H         1 <0>         0.0723
     55 H24         0.2717   -4.9535   -0.9490 H         1 <0>         0.0724
@<TRIPOS>BOND
     1    1    2 1
     2    1   35 1
     3    1   36 1
     4    1   37 1
     5    2    3 2
     6    2    4 1
     7    4    5 1
     8    5    6 1
     9    5   16 1
    10    5    7 1
    11    7    8 1
    12    7   38 1
    13    7   39 1
    14    8   13 1
    15    8    9 1
    16    8   34 1
    17    9   10 1
    18    9   11 1
    19    9   15 1
    20   11   12 1
    21   11   40 1
    22   11   41 1
    23   12   13 1
    24   12   42 1
    25   12   43 1
    26   13   14 2
    27   15   23 1
    28   15   16 2
    29   16   17 1
    30   17   28 1
    31   17   18 1
    32   17   33 1
    33   18   22 2
    34   18   19 1
    35   19   20 2
    36   19   25 1
    37   20   21 1
    38   20   44 1
    39   21   22 1
    40   22   23 1
    41   23   24 2
    42   25   26 2
    43   25   27 1
    44   27   28 1
    45   28   29 1
    46   28   30 1
    47   30   31 1
    48   30   45 1
    49   30   46 1
    50   31   32 1
    51   32   47 1
    52   32   48 1
    53   32   49 1
    54   33   50 1
    55   33   51 1
    56   33   52 1
    57   34   53 1
    58   34   54 1
    59   34   55 1
@<TRIPOS>MOLECULE
ZINC27646798
   37    40     0     0     0
SMALL
USER_CHARGES
3-(4-morpholinothieno[3,2-d]pyrimidin-2-yl)phenol
@<TRIPOS>ATOM
      1 C1         -1.2199    1.7485    0.0173 C.ar      1 <0>        -0.0892
      2 C2         -1.2454    3.1288    0.0298 C.ar      1 <0>        -0.1126
      3 C3         -0.0514    3.8476    0.0223 C.ar      1 <0>        -0.0081
      4 C4          1.1652    3.1691    0.0075 C.ar      1 <0>        -0.1131
      5 C5          1.1814    1.7842    0.0004 C.ar      1 <0>         0.1468
      6 C6         -0.0126    1.0758    0.0080 C.ar      1 <0>        -0.1927
      7 O1          2.3662    1.1187   -0.0145 O.3       1 <0>        -0.5085
      8 C7         -0.0760    5.3307    0.0295 C.ar      1 <0>         0.3925
      9 N1          1.0716    5.9741    0.0216 N.ar      1 <0>        -0.5030
     10 C8          1.1211    7.3278    0.0275 C.ar      1 <0>         0.1897
     11 C9          2.2454    8.1729    0.0212 C.2       1 <0>        -0.1560
     12 C10         2.0874    9.5099    0.0298 C.2       1 <0>        -0.1082
     13 S1          0.3128    9.7024    0.0473 S.3       1 <0>         0.0987
     14 C11        -0.1289    7.9855    0.0425 C.ar      1 <0>        -0.2646
     15 C12        -1.3162    7.2724    0.0507 C.ar      1 <0>         0.4224
     16 N2         -1.2564    5.9419    0.0383 N.ar      1 <0>        -0.5299
     17 N3         -2.5370    7.9274    0.0650 N.pl3     1 <0>        -0.4689
     18 C13        -2.6310    8.8416    1.2125 C.3       1 <0>         0.0169
     19 C14        -3.9673    9.5866    1.1565 C.3       1 <0>         0.0634
     20 O2         -5.0362    8.6368    1.1320 O.3       1 <0>        -0.3790
     21 C15        -4.9762    7.7309    0.0269 C.3       1 <0>         0.0577
     22 C16        -3.6502    6.9671    0.0715 C.3       1 <0>         0.0252
     23 H1         -2.1460    1.1927    0.0191 H         1 <0>         0.1309
     24 H2         -2.1904    3.6515    0.0409 H         1 <0>         0.1364
     25 H3          2.0932    3.7215    0.0012 H         1 <0>         0.1426
     26 H4          0.0021   -0.0041    0.0020 H         1 <0>         0.1300
     27 H5          2.3792    0.0188   -0.0201 H         1 <0>         0.4347
     28 H6          3.2383    7.7480    0.0097 H         1 <0>         0.1535
     29 H7          2.8474   10.2773    0.0272 H         1 <0>         0.2047
     30 H8         -2.5696    8.2646    2.1470 H         1 <0>         0.0647
     31 H9         -1.8036    9.5654    1.1735 H         1 <0>         0.0973
     32 H10        -4.0660   10.2298    2.0434 H         1 <0>         0.1117
     33 H11        -4.0039   10.2062    0.2484 H         1 <0>         0.0678
     34 H12        -5.8133    7.0201    0.0897 H         1 <0>         0.1102
     35 H13        -5.0447    8.2958   -0.9145 H         1 <0>         0.0643
     36 H14        -3.5732    6.3106   -0.8077 H         1 <0>         0.1032
     37 H15        -3.6053    6.3598    0.9876 H         1 <0>         0.0685
@<TRIPOS>BOND
     1    1    6 ar
     2    1    2 ar
     3    1   23 1
     4    2    3 ar
     5    2   24 1
     6    3    4 ar
     7    3    8 1
     8    4    5 ar
     9    4   25 1
    10    5    6 ar
    11    5    7 1
    12    6   26 1
    13    7   27 1
    14    8   16 ar
    15    8    9 ar
    16    9   10 ar
    17   10   14 ar
    18   10   11 1
    19   11   12 2
    20   11   28 1
    21   12   13 1
    22   12   29 1
    23   13   14 1
    24   14   15 ar
    25   15   16 ar
    26   15   17 1
    27   17   22 1
    28   17   18 1
    29   18   19 1
    30   18   30 1
    31   18   31 1
    32   19   20 1
    33   19   32 1
    34   19   33 1
    35   20   21 1
    36   21   22 1
    37   21   34 1
    38   21   35 1
    39   22   36 1
    40   22   37 1
@<TRIPOS>MOLECULE
ZINC16052714
   62    67     0     0     0
SMALL
USER_CHARGES

@<TRIPOS>ATOM
      1 C1         -1.2179    0.3618   -0.7929 C.3       1 <0>        -0.6727
      2 S1         -0.8608   -1.4165   -0.7657 S.o2      1 <0>         2.6086
      3 O1         -0.0554   -1.7368    0.3604 O.2       1 <0>        -0.9532
      4 O2         -2.0406   -2.1570   -1.0467 O.2       1 <0>        -0.9539
      5 N1          0.1211   -1.6734   -2.0742 N.pl3     1 <0>        -1.0033
      6 C2         -0.4464   -1.9994   -3.3914 C.3       1 <0>         0.1224
      7 C3          0.2528   -3.2539   -3.9258 C.3       1 <0>         0.0451
      8 N2          1.7067   -3.0443   -3.9105 N.3       1 <0>        -0.5316
      9 C4          2.2031   -2.8527   -2.5412 C.3       1 <0>         0.0371
     10 C5          1.5835   -1.5758   -1.9515 C.3       1 <0>         0.1234
     11 C6          2.4055   -4.1534   -4.5734 C.3       1 <0>         0.1300
     12 C7          3.8574   -3.7940   -4.7575 C.2       1 <0>        -0.0864
     13 C8          4.8850   -4.0220   -3.9198 C.2       1 <0>        -0.1471
     14 C9          6.2159   -3.5887   -4.2968 C.ar      1 <0>         0.2076
     15 C10         6.2960   -2.9484   -5.5522 C.ar      1 <0>        -0.3029
     16 S2          4.6250   -2.9718   -6.1413 S.3       1 <0>         0.1024
     17 C11         7.5058   -2.4811   -6.0423 C.ar      1 <0>         0.5055
     18 N3          8.5981   -2.6496   -5.2999 N.ar      1 <0>        -0.5559
     19 C12         8.5129   -3.2543   -4.1181 C.ar      1 <0>         0.4114
     20 N4          7.3823   -3.7111   -3.6207 N.ar      1 <0>        -0.5253
     21 C13         9.7506   -3.4228   -3.3231 C.ar      1 <0>         0.0278
     22 C14        10.9622   -2.9521   -3.8074 C.ar      1 <0>        -0.1016
     23 C15        12.1227   -3.1090   -3.0655 C.ar      1 <0>        -0.0792
     24 C16        12.0948   -3.7329   -1.8377 C.ar      1 <0>        -0.1198
     25 C17        10.8933   -4.2156   -1.3259 C.ar      1 <0>         0.1177
     26 C18         9.7061   -4.0584   -2.0641 C.ar      1 <0>        -0.1364
     27 C19         8.6656   -4.6312   -1.2987 C.2       1 <0>         0.0923
     28 N5          9.1685   -5.0916   -0.1893 N.2       1 <0>        -0.2546
     29 N6         10.5502   -4.8651   -0.1671 N.pl3     1 <0>        -0.5083
     30 H1         11.1568   -5.1130    0.5481 H         1 <0>         0.4418
     31 N7          7.5766   -1.8539   -7.2757 N.pl3     1 <0>        -0.5948
     32 C20         6.3563   -1.5252   -8.0294 C.3       1 <0>         0.0878
     33 C21         6.4273   -0.0515   -8.4456 C.3       1 <0>         0.0500
     34 O3          7.6692    0.1903   -9.1113 O.3       1 <0>        -0.3752
     35 C22         8.8226   -0.0241   -8.2943 C.3       1 <0>         0.0453
     36 C23         8.8740   -1.4913   -7.8678 C.3       1 <0>         0.0863
     37 H2         -0.2856    0.9209   -0.7133 H         1 <0>         0.1276
     38 H3         -1.7166    0.6180   -1.7276 H         1 <0>         0.1278
     39 H4         -1.8661    0.6151    0.0461 H         1 <0>         0.1284
     40 H5         -1.5151   -2.1898   -3.2927 H         1 <0>         0.1007
     41 H6         -0.2815   -1.1682   -4.0770 H         1 <0>         0.0790
     42 H7          0.0016   -4.1068   -3.2953 H         1 <0>         0.0472
     43 H8         -0.0762   -3.4465   -4.9469 H         1 <0>         0.0927
     44 H9          1.9247   -3.7112   -1.9300 H         1 <0>         0.0475
     45 H10         3.2885   -2.7545   -2.5582 H         1 <0>         0.0918
     46 H11         1.9397   -0.7046   -2.5013 H         1 <0>         0.0780
     47 H12         1.8575   -1.4860   -0.9003 H         1 <0>         0.0997
     48 H13         2.3283   -5.0505   -3.9590 H         1 <0>         0.0677
     49 H14         1.9510   -4.3394   -5.5465 H         1 <0>         0.1006
     50 H15         4.7202   -4.5219   -2.9767 H         1 <0>         0.1479
     51 H16        11.0018   -2.4609   -4.7683 H         1 <0>         0.1410
     52 H17        13.0593   -2.7381   -3.4547 H         1 <0>         0.1377
     53 H18        13.0070   -3.8483   -1.2711 H         1 <0>         0.1302
     54 H19         7.6256   -4.6789   -1.5860 H         1 <0>         0.2037
     55 H20         6.2923   -2.1546   -8.9170 H         1 <0>         0.0878
     56 H21         5.4812   -1.6871   -7.4000 H         1 <0>         0.0911
     57 H22         5.6022    0.1764   -9.1203 H         1 <0>         0.1135
     58 H23         6.3598    0.5805   -7.5601 H         1 <0>         0.0595
     59 H24         9.7207    0.2235   -8.8601 H         1 <0>         0.1116
     60 H25         8.7638    0.6080   -7.4083 H         1 <0>         0.0581
     61 H26         9.6654   -1.6309   -7.1314 H         1 <0>         0.1107
     62 H27         9.0678   -2.1173   -8.7388 H         1 <0>         0.0783
@<TRIPOS>BOND
     1    1    2 1
     2    1   37 1
     3    1   38 1
     4    1   39 1
     5    2    3 2
     6    2    4 2
     7    2    5 1
     8    5   10 1
     9    5    6 1
    10    6    7 1
    11    6   40 1
    12    6   41 1
    13    7    8 1
    14    7   42 1
    15    7   43 1
    16    8    9 1
    17    8   11 1
    18    9   10 1
    19    9   44 1
    20    9   45 1
    21   10   46 1
    22   10   47 1
    23   11   12 1
    24   11   48 1
    25   11   49 1
    26   12   16 1
    27   12   13 2
    28   13   14 1
    29   13   50 1
    30   14   20 ar
    31   14   15 ar
    32   15   16 1
    33   15   17 ar
    34   17   18 ar
    35   17   31 1
    36   18   19 ar
    37   19   20 ar
    38   19   21 1
    39   21   26 ar
    40   21   22 ar
    41   22   23 ar
    42   22   51 1
    43   23   24 ar
    44   23   52 1
    45   24   25 ar
    46   24   53 1
    47   25   29 1
    48   25   26 ar
    49   26   27 1
    50   27   28 2
    51   27   54 1
    52   28   29 1
    53   29   30 1
    54   31   36 1
    55   31   32 1
    56   32   33 1
    57   32   55 1
    58   32   56 1
    59   33   34 1
    60   33   57 1
    61   33   58 1
    62   34   35 1
    63   35   36 1
    64   35   59 1
    65   35   60 1
    66   36   61 1
    67   36   62 1
@<TRIPOS>MOLECULE
ZINC16052714
   63    68     0     0     0
SMALL
USER_CHARGES

@<TRIPOS>ATOM
      1 C1         -1.2288    0.3975   -0.8157 C.3       1 <0>        -0.6666
      2 S1         -0.8705   -1.3801   -0.7668 S.o2      1 <0>         2.6057
      3 O1         -0.0610   -1.6854    0.3604 O.2       1 <0>        -0.9385
      4 O2         -2.0509   -2.1248   -1.0340 O.2       1 <0>        -0.9391
      5 N1          0.1069   -1.6534   -2.0754 N.pl3     1 <0>        -1.0167
      6 C2         -0.4638   -1.9967   -3.3871 C.3       1 <0>         0.0929
      7 C3          0.2495   -3.2458   -3.9152 C.3       1 <0>        -0.0180
      8 N2          1.6991   -3.0122   -3.9273 N.4       1 <0>        -0.3841
      9 C4          2.1876   -2.8289   -2.5547 C.3       1 <0>        -0.0264
     10 C5          1.5701   -1.5537   -1.9606 C.3       1 <0>         0.0955
     11 C6          2.3742   -4.1665   -4.5353 C.3       1 <0>         0.0906
     12 C7          3.8480   -3.8777   -4.6608 C.2       1 <0>        -0.2191
     13 C8          4.8258   -4.1336   -3.7730 C.2       1 <0>        -0.0705
     14 C9          6.1908   -3.7698   -4.0981 C.ar      1 <0>         0.1897
     15 C10         6.3561   -3.1619   -5.3612 C.ar      1 <0>        -0.2890
     16 S2          4.7135   -3.1223   -6.0247 S.3       1 <0>         0.1250
     17 C11         7.6068   -2.7612   -5.8054 C.ar      1 <0>         0.5074
     18 N3          8.6561   -2.9627   -5.0111 N.ar      1 <0>        -0.5423
     19 C12         8.4906   -3.5364   -3.8224 C.ar      1 <0>         0.4316
     20 N4          7.3192   -3.9301   -3.3675 N.ar      1 <0>        -0.5198
     21 C13         9.6828   -3.7434   -2.9689 C.ar      1 <0>         0.0088
     22 C14        10.9352   -3.3393   -3.4073 C.ar      1 <0>        -0.0901
     23 C15        12.0531   -3.5322   -2.6106 C.ar      1 <0>        -0.0812
     24 C16        11.9420   -4.1268   -1.3730 C.ar      1 <0>        -0.1070
     25 C17        10.6979   -4.5428   -0.9064 C.ar      1 <0>         0.1172
     26 C18         9.5531   -4.3482   -1.7007 C.ar      1 <0>        -0.1343
     27 C19         8.4542   -4.8558   -0.9717 C.2       1 <0>         0.0841
     28 N5          8.8856   -5.3138    0.1684 N.2       1 <0>        -0.2483
     29 N6         10.2740   -5.1500    0.2485 N.pl3     1 <0>        -0.5025
     30 H1         10.8361   -5.4093    0.9953 H         1 <0>         0.4451
     31 N7          7.7612   -2.1655   -7.0467 N.pl3     1 <0>        -0.5896
     32 C20         6.5921   -1.7984   -7.8614 C.3       1 <0>         0.0915
     33 C21         6.7499   -0.3391   -8.3036 C.3       1 <0>         0.0496
     34 O3          8.0299   -0.1690   -8.9171 O.3       1 <0>        -0.3699
     35 C22         9.1348   -0.4174   -8.0446 C.3       1 <0>         0.0446
     36 C23         9.0990   -1.8756   -7.5867 C.3       1 <0>         0.0824
     37 H2         -0.2965    0.9581   -0.7467 H         1 <0>         0.1315
     38 H3         -1.7309    0.6413   -1.7519 H         1 <0>         0.1318
     39 H4         -1.8742    0.6613    0.0221 H         1 <0>         0.1388
     40 H5         -1.5292   -2.2006   -3.2810 H         1 <0>         0.1421
     41 H6         -0.3136   -1.1687   -4.0800 H         1 <0>         0.0993
     42 H7          0.0234   -4.0939   -3.2689 H         1 <0>         0.1407
     43 H8         -0.0927   -3.4589   -4.9279 H         1 <0>         0.1486
     44 H9          1.9028   -3.6897   -1.9496 H         1 <0>         0.1416
     45 H10         3.2735   -2.7349   -2.5649 H         1 <0>         0.1425
     46 H11         1.9222   -0.6817   -2.5118 H         1 <0>         0.0986
     47 H12         1.8499   -1.4646   -0.9109 H         1 <0>         0.1411
     48 H13         2.2283   -5.0452   -3.9071 H         1 <0>         0.1533
     49 H14         1.9551   -4.3531   -5.5241 H         1 <0>         0.1519
     50 H15         4.5964   -4.6044   -2.8284 H         1 <0>         0.1590
     51 H16        11.0401   -2.8718   -4.3752 H         1 <0>         0.1422
     52 H17        13.0223   -3.2131   -2.9644 H         1 <0>         0.1420
     53 H18        12.8219   -4.2709   -0.7635 H         1 <0>         0.1349
     54 H19         7.4269   -4.8625   -1.3048 H         1 <0>         0.2003
     55 H20         6.5382   -2.4438   -8.7381 H         1 <0>         0.0941
     56 H21         5.6834   -1.9063   -7.2691 H         1 <0>         0.0802
     57 H22         5.9669   -0.0889   -9.0194 H         1 <0>         0.1156
     58 H23         6.6727    0.3149   -7.4350 H         1 <0>         0.0597
     59 H24        10.0676   -0.2236   -8.5741 H         1 <0>         0.1177
     60 H25         9.0663    0.2363   -7.1751 H         1 <0>         0.0604
     61 H26         9.8497   -2.0346   -6.8126 H         1 <0>         0.1144
     62 H27         9.3019   -2.5290   -8.4352 H         1 <0>         0.0852
     63 H28         1.9007   -2.1845   -4.4680 H         1 <0>         0.4244
@<TRIPOS>BOND
     1    1    2 1
     2    1   37 1
     3    1   38 1
     4    1   39 1
     5    2    3 2
     6    2    4 2
     7    2    5 1
     8    5   10 1
     9    5    6 1
    10    6    7 1
    11    6   40 1
    12    6   41 1
    13    7    8 1
    14    7   42 1
    15    7   43 1
    16    8    9 1
    17    8   11 1
    18    8   63 1
    19    9   10 1
    20    9   44 1
    21    9   45 1
    22   10   46 1
    23   10   47 1
    24   11   12 1
    25   11   48 1
    26   11   49 1
    27   12   16 1
    28   12   13 2
    29   13   14 1
    30   13   50 1
    31   14   20 ar
    32   14   15 ar
    33   15   16 1
    34   15   17 ar
    35   17   18 ar
    36   17   31 1
    37   18   19 ar
    38   19   20 ar
    39   19   21 1
    40   21   26 ar
    41   21   22 ar
    42   22   23 ar
    43   22   51 1
    44   23   24 ar
    45   23   52 1
    46   24   25 ar
    47   24   53 1
    48   25   29 1
    49   25   26 ar
    50   26   27 1
    51   27   28 2
    52   27   54 1
    53   28   29 1
    54   29   30 1
    55   31   36 1
    56   31   32 1
    57   32   33 1
    58   32   55 1
    59   32   56 1
    60   33   34 1
    61   33   57 1
    62   33   58 1
    63   34   35 1
    64   35   36 1
    65   35   59 1
    66   35   60 1
    67   36   61 1
    68   36   62 1
@<TRIPOS>MOLECULE
ZINC43067855
   72    77     0     0     0
SMALL
USER_CHARGES

@<TRIPOS>ATOM
      1 C1         -1.1481    1.1221   -0.4629 C.3       1 <0>         0.0520
      2 O1         -0.5360   -0.1468   -0.2236 O.3       1 <0>        -0.3584
      3 C2          0.0556   -0.7478   -1.2733 C.2       1 <0>         0.6495
      4 O2          0.0523   -0.2096   -2.3626 O.2       1 <0>        -0.5503
      5 N1          0.6515   -1.9464   -1.1156 N.am      1 <0>        -0.6514
      6 C3          1.1806   -2.6144   -2.2227 C.ar      1 <0>         0.1898
      7 C4          1.7693   -1.8909   -3.2536 C.ar      1 <0>        -0.1334
      8 C5          2.2915   -2.5474   -4.3468 C.ar      1 <0>        -0.0436
      9 C6          2.2295   -3.9392   -4.4184 C.ar      1 <0>        -0.0750
     10 C7          1.6387   -4.6629   -3.3823 C.ar      1 <0>        -0.0379
     11 C8          1.1226   -4.0019   -2.2889 C.ar      1 <0>        -0.1501
     12 C9          2.7898   -4.6475   -5.5928 C.ar      1 <0>         0.4414
     13 N2          3.3491   -3.9366   -6.5591 N.ar      1 <0>        -0.5432
     14 C10         3.8640   -4.5351   -7.6298 C.ar      1 <0>         0.3604
     15 C11         3.8048   -5.9405   -7.7199 C.ar      1 <0>        -0.2887
     16 C12         4.4151   -6.3021   -8.9398 C.2       1 <0>         0.1321
     17 N3          4.8116   -5.2168   -9.5413 N.2       1 <0>        -0.2524
     18 N4          4.4884   -4.0994   -8.7613 N.pl3     1 <0>        -0.3907
     19 C13         4.7718   -2.7031   -9.1022 C.3       1 <0>         0.1687
     20 C14         6.2820   -2.5134   -9.2707 C.3       1 <0>        -0.1572
     21 C15         6.5645   -1.0734   -9.7041 C.3       1 <0>        -0.0010
     22 N5          5.8905   -0.8012  -10.9793 N.4       1 <0>        -0.3853
     23 C16         4.4369   -0.9110  -10.8077 C.3       1 <0>        -0.0075
     24 C17         4.0725   -2.3449  -10.4167 C.3       1 <0>        -0.1552
     25 C18         6.2277    0.5557  -11.4299 C.3       1 <0>         0.0501
     26 C19         5.6373    0.7926  -12.7961 C.ar      1 <0>        -0.2200
     27 C20         6.3609    0.4812  -13.9373 C.ar      1 <0>        -0.0458
     28 C21         5.7778    0.7161  -15.1728 C.ar      1 <0>        -0.1646
     29 C22         4.5035    1.2490  -15.2258 C.ar      1 <0>         0.1378
     30 N6          3.8448    1.5334  -14.1195 N.ar      1 <0>        -0.4744
     31 C23         4.3658    1.3175  -12.9273 C.ar      1 <0>         0.1282
     32 C24         3.1996   -6.6552   -6.6666 C.ar      1 <0>         0.5335
     33 N7          2.7171   -5.9748   -5.6350 N.ar      1 <0>        -0.5473
     34 N8          3.1155   -8.0334   -6.7052 N.pl3     1 <0>        -0.6680
     35 C25         4.1264   -8.8728   -6.0427 C.3       1 <0>         0.1140
     36 C26         3.4022   -9.8968   -5.1612 C.3       1 <0>         0.0448
     37 O3          2.4220  -10.5822   -5.9443 O.3       1 <0>        -0.3757
     38 C27         1.3909   -9.7377   -6.4614 C.3       1 <0>         0.0452
     39 C28         2.0090   -8.7055   -7.4047 C.3       1 <0>         0.1138
     40 H1         -0.3963    1.8268   -0.8184 H         1 <0>         0.0645
     41 H2         -1.9285    1.0128   -1.2159 H         1 <0>         0.0650
     42 H3         -1.5862    1.4945    0.4631 H         1 <0>         0.1101
     43 H4          0.7129   -2.3452   -0.2335 H         1 <0>         0.4227
     44 H5          1.8170   -0.8134   -3.1977 H         1 <0>         0.1475
     45 H6          2.7481   -1.9848   -5.1478 H         1 <0>         0.1377
     46 H7          1.5891   -5.7404   -3.4355 H         1 <0>         0.1453
     47 H8          0.6690   -4.5619   -1.4845 H         1 <0>         0.1388
     48 H9          4.5338   -7.3091   -9.3118 H         1 <0>         0.2020
     49 H10         4.4080   -2.0526   -8.3068 H         1 <0>         0.1235
     50 H11         6.7819   -2.7130   -8.3228 H         1 <0>         0.1184
     51 H12         6.6528   -3.2016  -10.0304 H         1 <0>         0.1031
     52 H13         6.1936   -0.3861   -8.9437 H         1 <0>         0.1361
     53 H14         7.6389   -0.9348   -9.8248 H         1 <0>         0.1406
     54 H15         4.1113   -0.2273  -10.0238 H         1 <0>         0.1369
     55 H16         3.9405   -0.6527  -11.7431 H         1 <0>         0.1353
     56 H17         4.3974   -3.0295  -11.2002 H         1 <0>         0.1021
     57 H18         2.9930   -2.4239  -10.2880 H         1 <0>         0.1173
     58 H19         5.8215    1.2833  -10.7274 H         1 <0>         0.1415
     59 H20         7.3113    0.6635  -11.4787 H         1 <0>         0.1418
     60 H21         7.3553    0.0660  -13.8653 H         1 <0>         0.1452
     61 H22         6.3125    0.4859  -16.0825 H         1 <0>         0.1514
     62 H23         4.0421    1.4350  -16.1844 H         1 <0>         0.1713
     63 H24         3.7939    1.5581  -12.0433 H         1 <0>         0.1622
     64 H25         4.7225   -9.3912   -6.7937 H         1 <0>         0.0733
     65 H26         4.7737   -8.2498   -5.4255 H         1 <0>         0.0792
     66 H27         4.1230  -10.6149   -4.7702 H         1 <0>         0.1051
     67 H28         2.9130   -9.3834   -4.3335 H         1 <0>         0.0588
     68 H29         0.6647  -10.3413   -7.0058 H         1 <0>         0.1059
     69 H30         0.8944   -9.2237   -5.6384 H         1 <0>         0.0578
     70 H31         1.2548   -7.9717   -7.6890 H         1 <0>         0.0785
     71 H32         2.3883   -9.2068   -8.2952 H         1 <0>         0.0730
     72 H33         6.1979   -1.4690  -11.6704 H         1 <0>         0.4240
@<TRIPOS>BOND
     1    1    2 1
     2    1   40 1
     3    1   41 1
     4    1   42 1
     5    2    3 1
     6    3    4 2
     7    3    5 am
     8    5    6 1
     9    5   43 1
    10    6   11 ar
    11    6    7 ar
    12    7    8 ar
    13    7   44 1
    14    8    9 ar
    15    8   45 1
    16    9   10 ar
    17    9   12 1
    18   10   11 ar
    19   10   46 1
    20   11   47 1
    21   12   33 ar
    22   12   13 ar
    23   13   14 ar
    24   14   18 1
    25   14   15 ar
    26   15   16 1
    27   15   32 ar
    28   16   17 2
    29   16   48 1
    30   17   18 1
    31   18   19 1
    32   19   24 1
    33   19   20 1
    34   19   49 1
    35   20   21 1
    36   20   50 1
    37   20   51 1
    38   21   22 1
    39   21   52 1
    40   21   53 1
    41   22   23 1
    42   22   25 1
    43   22   72 1
    44   23   24 1
    45   23   54 1
    46   23   55 1
    47   24   56 1
    48   24   57 1
    49   25   26 1
    50   25   58 1
    51   25   59 1
    52   26   31 ar
    53   26   27 ar
    54   27   28 ar
    55   27   60 1
    56   28   29 ar
    57   28   61 1
    58   29   30 ar
    59   29   62 1
    60   30   31 ar
    61   31   63 1
    62   32   33 ar
    63   32   34 1
    64   34   39 1
    65   34   35 1
    66   35   36 1
    67   35   64 1
    68   35   65 1
    69   36   37 1
    70   36   66 1
    71   36   67 1
    72   37   38 1
    73   38   39 1
    74   38   68 1
    75   38   69 1
    76   39   70 1
    77   39   71 1
@<TRIPOS>MOLECULE
ZINC43013490
   65    69     0     0     0
SMALL
USER_CHARGES

@<TRIPOS>ATOM
      1 C1         -1.1481    1.1221   -0.4629 C.3       1 <0>         0.0523
      2 O1         -0.5360   -0.1468   -0.2236 O.3       1 <0>        -0.3609
      3 C2          0.0556   -0.7478   -1.2733 C.2       1 <0>         0.6474
      4 O2          0.0523   -0.2096   -2.3626 O.2       1 <0>        -0.5476
      5 N1          0.6515   -1.9464   -1.1156 N.am      1 <0>        -0.6503
      6 C3          1.1806   -2.6144   -2.2227 C.ar      1 <0>         0.1805
      7 C4          1.7693   -1.8909   -3.2536 C.ar      1 <0>        -0.1310
      8 C5          2.2915   -2.5474   -4.3468 C.ar      1 <0>        -0.0448
      9 C6          2.2295   -3.9392   -4.4184 C.ar      1 <0>        -0.0640
     10 C7          1.6387   -4.6629   -3.3823 C.ar      1 <0>        -0.0426
     11 C8          1.1226   -4.0019   -2.2889 C.ar      1 <0>        -0.1510
     12 C9          2.7898   -4.6475   -5.5928 C.ar      1 <0>         0.4273
     13 N2          3.3491   -3.9366   -6.5591 N.ar      1 <0>        -0.5346
     14 C10         3.8640   -4.5351   -7.6298 C.ar      1 <0>         0.3546
     15 C11         3.8048   -5.9405   -7.7199 C.ar      1 <0>        -0.2852
     16 C12         4.4151   -6.3021   -8.9398 C.2       1 <0>         0.1093
     17 N3          4.8116   -5.2168   -9.5413 N.2       1 <0>        -0.2361
     18 N4          4.4884   -4.0994   -8.7613 N.pl3     1 <0>        -0.3741
     19 C13         4.7718   -2.7031   -9.1022 C.3       1 <0>         0.1719
     20 C14         4.0708   -2.3465  -10.4151 C.3       1 <0>        -0.1430
     21 C15         4.3409   -0.8763  -10.7505 C.3       1 <0>         0.1314
     22 N5          5.7930   -0.6529  -10.7617 N.am      1 <0>        -0.5967
     23 C16         6.5772   -1.0450   -9.5828 C.3       1 <0>         0.1165
     24 C17         6.2821   -2.5133   -9.2605 C.3       1 <0>        -0.1430
     25 C18         6.3943   -0.0990  -11.8333 C.2       1 <0>         0.6509
     26 O3          5.7346    0.2207  -12.8024 O.2       1 <0>        -0.5670
     27 O4          7.7258    0.1000  -11.8299 O.3       1 <0>        -0.3648
     28 C19         8.2964    0.6914  -12.9990 C.3       1 <0>         0.0531
     29 C20         3.1996   -6.6552   -6.6666 C.ar      1 <0>         0.5242
     30 N6          2.7171   -5.9748   -5.6350 N.ar      1 <0>        -0.5518
     31 N7          3.1155   -8.0334   -6.7052 N.pl3     1 <0>        -0.6658
     32 C21         4.1264   -8.8728   -6.0427 C.3       1 <0>         0.1146
     33 C22         3.4022   -9.8968   -5.1612 C.3       1 <0>         0.0459
     34 O5          2.4220  -10.5822   -5.9443 O.3       1 <0>        -0.3783
     35 C23         1.3909   -9.7377   -6.4614 C.3       1 <0>         0.0463
     36 C24         2.0090   -8.7055   -7.4047 C.3       1 <0>         0.1142
     37 H1         -0.3963    1.8268   -0.8184 H         1 <0>         0.0644
     38 H2         -1.9285    1.0128   -1.2159 H         1 <0>         0.0643
     39 H3         -1.5862    1.4945    0.4631 H         1 <0>         0.1079
     40 H4          0.7129   -2.3452   -0.2335 H         1 <0>         0.4205
     41 H5          1.8170   -0.8134   -3.1977 H         1 <0>         0.1465
     42 H6          2.7481   -1.9848   -5.1478 H         1 <0>         0.1412
     43 H7          1.5891   -5.7404   -3.4355 H         1 <0>         0.1440
     44 H8          0.6690   -4.5619   -1.4845 H         1 <0>         0.1355
     45 H9          4.5338   -7.3091   -9.3118 H         1 <0>         0.1976
     46 H10         4.4055   -2.0536   -8.3072 H         1 <0>         0.1129
     47 H11         4.4545   -2.9788  -11.2158 H         1 <0>         0.0852
     48 H12         2.9975   -2.5042  -10.3090 H         1 <0>         0.0860
     49 H13         3.9278   -0.6436  -11.7320 H         1 <0>         0.1065
     50 H14         3.8788   -0.2387   -9.9968 H         1 <0>         0.0802
     51 H15         7.6397   -0.9237   -9.7938 H         1 <0>         0.1027
     52 H16         6.2975   -0.4212   -8.7339 H         1 <0>         0.0786
     53 H17         6.7827   -2.7898   -8.3325 H         1 <0>         0.0844
     54 H18         6.6450   -3.1440  -10.0720 H         1 <0>         0.0848
     55 H19         8.0974    0.0557  -13.8618 H         1 <0>         0.0615
     56 H20         7.8538    1.6741  -13.1620 H         1 <0>         0.0618
     57 H21         9.3731    0.7956  -12.8650 H         1 <0>         0.1047
     58 H22         4.7225   -9.3912   -6.7937 H         1 <0>         0.0711
     59 H23         4.7737   -8.2498   -5.4255 H         1 <0>         0.0791
     60 H24         4.1230  -10.6149   -4.7702 H         1 <0>         0.1026
     61 H25         2.9130   -9.3834   -4.3335 H         1 <0>         0.0578
     62 H26         0.6647  -10.3413   -7.0058 H         1 <0>         0.1035
     63 H27         0.8944   -9.2237   -5.6384 H         1 <0>         0.0568
     64 H28         1.2548   -7.9717   -7.6890 H         1 <0>         0.0788
     65 H29         2.3883   -9.2068   -8.2952 H         1 <0>         0.0711
@<TRIPOS>BOND
     1    1    2 1
     2    1   37 1
     3    1   38 1
     4    1   39 1
     5    2    3 1
     6    3    4 2
     7    3    5 am
     8    5    6 1
     9    5   40 1
    10    6   11 ar
    11    6    7 ar
    12    7    8 ar
    13    7   41 1
    14    8    9 ar
    15    8   42 1
    16    9   10 ar
    17    9   12 1
    18   10   11 ar
    19   10   43 1
    20   11   44 1
    21   12   30 ar
    22   12   13 ar
    23   13   14 ar
    24   14   18 1
    25   14   15 ar
    26   15   16 1
    27   15   29 ar
    28   16   17 2
    29   16   45 1
    30   17   18 1
    31   18   19 1
    32   19   24 1
    33   19   20 1
    34   19   46 1
    35   20   21 1
    36   20   47 1
    37   20   48 1
    38   21   22 1
    39   21   49 1
    40   21   50 1
    41   22   23 1
    42   22   25 am
    43   23   24 1
    44   23   51 1
    45   23   52 1
    46   24   53 1
    47   24   54 1
    48   25   26 2
    49   25   27 1
    50   27   28 1
    51   28   55 1
    52   28   56 1
    53   28   57 1
    54   29   30 ar
    55   29   31 1
    56   31   36 1
    57   31   32 1
    58   32   33 1
    59   32   58 1
    60   32   59 1
    61   33   34 1
    62   33   60 1
    63   33   61 1
    64   34   35 1
    65   35   36 1
    66   35   62 1
    67   35   63 1
    68   36   64 1
    69   36   65 1
@<TRIPOS>MOLECULE
ZINC06906033
   63    66     0     0     0
SMALL
USER_CHARGES
4-[[4,6-bis(1-piperidyl)-1,3,5-triazin-2-yl]aminoiminomethyl]-2,6-dimethoxy-phenol
@<TRIPOS>ATOM
      1 C1          7.7576   -5.6749   -5.3129 C.3       1 <0>         0.0233
      2 O1          7.2594   -5.3723   -6.6176 O.3       1 <0>        -0.3013
      3 C2          6.2044   -4.5174   -6.6927 C.ar      1 <0>         0.1391
      4 C3          5.6636   -3.9839   -5.5365 C.ar      1 <0>        -0.2034
      5 C4          4.5799   -3.1058   -5.6144 C.ar      1 <0>         0.0190
      6 C5          4.0423   -2.7732   -6.8602 C.ar      1 <0>        -0.1904
      7 C6          4.5908   -3.3058   -8.0131 C.ar      1 <0>         0.1384
      8 C7          5.6697   -4.1805   -7.9322 C.ar      1 <0>         0.0565
      9 O2          6.2034   -4.7070   -9.0675 O.3       1 <0>        -0.4720
     10 O3          4.0712   -2.9785   -9.2266 O.3       1 <0>        -0.3016
     11 C8          2.9640   -2.0751   -9.2359 C.3       1 <0>         0.0240
     12 C9          4.0010   -2.5359   -4.3840 C.2       1 <0>         0.1031
     13 N1          2.9942   -1.7202   -4.4579 N.2       1 <0>        -0.1995
     14 N2          2.4440   -1.1787   -3.2888 N.pl3     1 <0>        -0.5350
     15 C10         1.3729   -0.3109   -3.3675 C.ar      1 <0>         0.6571
     16 N3          0.8638    0.0113   -4.5529 N.ar      1 <0>        -0.6164
     17 C11        -0.1671    0.8471   -4.6285 C.ar      1 <0>         0.5812
     18 N4         -0.6923    1.3569   -3.5186 N.ar      1 <0>        -0.6041
     19 C12        -0.1802    1.0389   -2.3337 C.ar      1 <0>         0.5882
     20 N5          0.8507    0.2032   -2.2578 N.ar      1 <0>        -0.6486
     21 N6         -0.7225    1.5721   -1.1820 N.pl3     1 <0>        -0.4509
     22 C13        -0.0127    1.0858    0.0080 C.3       1 <0>         0.0693
     23 C14        -0.7286    1.5791    1.2674 C.3       1 <0>        -0.1211
     24 C15        -0.7644    3.1099    1.2618 C.3       1 <0>        -0.1264
     25 C16        -1.4660    3.5913   -0.0113 C.3       1 <0>        -0.1182
     26 C17        -0.7289    3.0396   -1.2338 C.3       1 <0>         0.0678
     27 N7         -0.6955    1.1815   -5.8588 N.pl3     1 <0>        -0.4510
     28 C18        -2.1326    0.8842   -5.9127 C.3       1 <0>         0.0681
     29 C19        -2.7123    1.3995   -7.2319 C.3       1 <0>        -0.1181
     30 C20        -1.9884    0.7245   -8.4002 C.3       1 <0>        -0.1260
     31 C21        -0.4877    1.0094   -8.2935 C.3       1 <0>        -0.1212
     32 C22         0.0275    0.5054   -6.9435 C.3       1 <0>         0.0703
     33 H1          8.5964   -6.3660   -5.3956 H         1 <0>         0.1044
     34 H2          8.0898   -4.7565   -4.8288 H         1 <0>         0.0588
     35 H3          6.9666   -6.1330   -4.7191 H         1 <0>         0.0582
     36 H4          6.0791   -4.2458   -4.5746 H         1 <0>         0.1407
     37 H5          3.2019   -2.0978   -6.9233 H         1 <0>         0.1489
     38 H6          5.8002   -5.5423   -9.3409 H         1 <0>         0.3852
     39 H7          2.1381   -2.5067   -8.6704 H         1 <0>         0.0588
     40 H8          3.2618   -1.1307   -8.7804 H         1 <0>         0.0600
     41 H9          2.6475   -1.8988  -10.2639 H         1 <0>         0.1040
     42 H10         4.4146   -2.7972   -3.4212 H         1 <0>         0.1259
     43 H11         2.8156   -1.4134   -2.4241 H         1 <0>         0.4057
     44 H12         0.0021   -0.0041    0.0020 H         1 <0>         0.0890
     45 H13         1.0099    1.4629    0.0003 H         1 <0>         0.0546
     46 H14        -1.7471    1.1912    1.2827 H         1 <0>         0.0738
     47 H15        -0.1928    1.2311    2.1505 H         1 <0>         0.0761
     48 H16         0.2538    3.4983    1.2857 H         1 <0>         0.0621
     49 H17        -1.3112    3.4647    2.1354 H         1 <0>         0.0705
     50 H18        -1.4570    4.6808   -0.0419 H         1 <0>         0.0776
     51 H19        -2.4961    3.2350   -0.0160 H         1 <0>         0.0770
     52 H20         0.2971    3.4074   -1.2358 H         1 <0>         0.0464
     53 H21        -1.2345    3.3688   -2.1416 H         1 <0>         0.0986
     54 H22        -2.2834   -0.1932   -5.8460 H         1 <0>         0.0459
     55 H23        -2.6362    1.3736   -5.0790 H         1 <0>         0.0977
     56 H24        -2.5743    2.4790   -7.2931 H         1 <0>         0.0767
     57 H25        -3.7758    1.1649   -7.2784 H         1 <0>         0.0770
     58 H26        -2.3683    1.1206   -9.3419 H         1 <0>         0.0702
     59 H27        -2.1586   -0.3514   -8.3614 H         1 <0>         0.0619
     60 H28        -0.3146    2.0828   -8.3714 H         1 <0>         0.0734
     61 H29         0.0383    0.4960   -9.0984 H         1 <0>         0.0755
     62 H30         1.0929    0.7196   -6.8584 H         1 <0>         0.0904
     63 H31        -0.1335   -0.5702   -6.8721 H         1 <0>         0.0551
@<TRIPOS>BOND
     1    1    2 1
     2    1   33 1
     3    1   34 1
     4    1   35 1
     5    2    3 1
     6    3    8 ar
     7    3    4 ar
     8    4    5 ar
     9    4   36 1
    10    5    6 ar
    11    5   12 1
    12    6    7 ar
    13    6   37 1
    14    7    8 ar
    15    7   10 1
    16    8    9 1
    17    9   38 1
    18   10   11 1
    19   11   39 1
    20   11   40 1
    21   11   41 1
    22   12   13 2
    23   12   42 1
    24   13   14 1
    25   14   15 1
    26   14   43 1
    27   15   20 ar
    28   15   16 ar
    29   16   17 ar
    30   17   18 ar
    31   17   27 1
    32   18   19 ar
    33   19   20 ar
    34   19   21 1
    35   21   26 1
    36   21   22 1
    37   22   23 1
    38   22   44 1
    39   22   45 1
    40   23   24 1
    41   23   46 1
    42   23   47 1
    43   24   25 1
    44   24   48 1
    45   24   49 1
    46   25   26 1
    47   25   50 1
    48   25   51 1
    49   26   52 1
    50   26   53 1
    51   27   32 1
    52   27   28 1
    53   28   29 1
    54   28   54 1
    55   28   55 1
    56   29   30 1
    57   29   56 1
    58   29   57 1
    59   30   31 1
    60   30   58 1
    61   30   59 1
    62   31   32 1
    63   31   60 1
    64   31   61 1
    65   32   62 1
    66   32   63 1
@<TRIPOS>MOLECULE
ZINC45315610
   68    74     0     0     0
SMALL
USER_CHARGES

@<TRIPOS>ATOM
      1 C1          0.1563    2.0829   -0.2192 C.ar      1 <0>        -0.1647
      2 C2          1.4094    2.6762   -0.1917 C.ar      1 <0>        -0.0455
      3 C3          2.5274    1.8566   -0.1785 C.ar      1 <0>        -0.2202
      4 C4          2.3571    0.4849   -0.1932 C.ar      1 <0>         0.1285
      5 N1          1.1499   -0.0446   -0.2198 N.ar      1 <0>        -0.4746
      6 C5          0.0643    0.7042   -0.2325 C.ar      1 <0>         0.1374
      7 C6          3.9108    2.4535   -0.1491 C.3       1 <0>         0.0502
      8 N2          4.3358    2.6362    1.2451 N.4       1 <0>        -0.3852
      9 C7          4.4555    1.3252    1.8943 C.3       1 <0>        -0.0075
     10 C8          4.8191    1.5133    3.3688 C.3       1 <0>        -0.1551
     11 C9          6.1535    2.2580    3.4688 C.3       1 <0>         0.1693
     12 C10         6.0397    3.5915    2.7245 C.3       1 <0>        -0.1575
     13 C11         5.6309    3.3264    1.2739 C.3       1 <0>        -0.0010
     14 N3          6.4704    2.5084    4.8770 N.pl3     1 <0>        -0.3916
     15 C12         7.5776    2.0651    5.5383 C.ar      1 <0>         0.3611
     16 C13         7.4706    2.5375    6.8619 C.ar      1 <0>        -0.2915
     17 C14         6.2658    3.2679    6.9436 C.2       1 <0>         0.1326
     18 N4          5.6914    3.2495    5.7745 N.2       1 <0>        -0.2545
     19 C15         8.4977    2.2188    7.7729 C.ar      1 <0>         0.5332
     20 N5          9.5195    1.4888    7.3449 N.ar      1 <0>        -0.5476
     21 C16         9.5806    1.0634    6.0865 C.ar      1 <0>         0.4473
     22 N6          8.6390    1.3386    5.1981 N.ar      1 <0>        -0.5466
     23 C17        10.7459    0.2515    5.6633 C.ar      1 <0>        -0.0899
     24 C18        11.7531   -0.0588    6.5846 C.ar      1 <0>        -0.0455
     25 C19        12.8324   -0.8051    6.2112 C.ar      1 <0>        -0.1360
     26 C20        12.9446   -1.2694    4.9030 C.ar      1 <0>         0.1218
     27 C21        11.9377   -0.9641    3.9676 C.ar      1 <0>        -0.1259
     28 C22        10.8342   -0.2053    4.3547 C.ar      1 <0>        -0.0047
     29 C23        12.3511   -1.5899    2.7086 C.2       1 <0>        -0.1982
     30 C24        13.5211   -2.2044    2.9426 C.2       1 <0>         0.0537
     31 N7         13.8907   -2.0235    4.2476 N.pl3     1 <0>        -0.5913
     32 H1         14.6997   -2.3752    4.6511 H         1 <0>         0.4204
     33 N8          8.4420    2.6571    9.0816 N.pl3     1 <0>        -0.6690
     34 C25         7.7988    1.8441   10.1260 C.3       1 <0>         0.1144
     35 C26         8.7676    1.7204   11.3076 C.3       1 <0>         0.0450
     36 O1          9.2038    3.0249   11.6972 O.3       1 <0>        -0.3759
     37 C27         9.9337    3.7241   10.6862 C.3       1 <0>         0.0448
     38 C28         9.0296    3.9479    9.4738 C.3       1 <0>         0.1146
     39 H2         -0.7364    2.6906   -0.2256 H         1 <0>         0.1514
     40 H3          1.5119    3.7513   -0.1811 H         1 <0>         0.1452
     41 H4          3.2230   -0.1605   -0.1831 H         1 <0>         0.1622
     42 H5         -0.9079    0.2344   -0.2536 H         1 <0>         0.1712
     43 H6          4.6060    1.7845   -0.6562 H         1 <0>         0.1415
     44 H7          3.9009    3.4188   -0.6554 H         1 <0>         0.1417
     45 H8          3.5060    0.7951    1.8195 H         1 <0>         0.1351
     46 H9          5.2345    0.7451    1.3996 H         1 <0>         0.1367
     47 H10         4.0406    2.0931    3.8646 H         1 <0>         0.1019
     48 H11         4.9093    0.5387    3.8486 H         1 <0>         0.1172
     49 H12         6.9420    1.6552    3.0182 H         1 <0>         0.1232
     50 H13         5.2866    4.2144    3.2069 H         1 <0>         0.1029
     51 H14         7.0024    4.1024    2.7437 H         1 <0>         0.1183
     52 H15         6.3848    2.7036    0.7924 H         1 <0>         0.1361
     53 H16         5.5491    4.2738    0.7411 H         1 <0>         0.1403
     54 H17         5.8863    3.7624    7.8255 H         1 <0>         0.2013
     55 H18        11.6752    0.2967    7.6014 H         1 <0>         0.1407
     56 H19        13.6024   -1.0363    6.9323 H         1 <0>         0.1286
     57 H20        10.0570    0.0288    3.6423 H         1 <0>         0.1338
     58 H21        11.8158   -1.5623    1.7710 H         1 <0>         0.1487
     59 H22        14.0869   -2.7600    2.2094 H         1 <0>         0.1748
     60 H23         6.8794    2.3289   10.4543 H         1 <0>         0.0728
     61 H24         7.5716    0.8535    9.7322 H         1 <0>         0.0785
     62 H25         8.2609    1.2407   12.1450 H         1 <0>         0.1049
     63 H26         9.6289    1.1219   11.0110 H         1 <0>         0.0585
     64 H27        10.2661    4.6860   11.0766 H         1 <0>         0.1052
     65 H28        10.7993    3.1329   10.3873 H         1 <0>         0.0580
     66 H29         9.6172    4.3498    8.6484 H         1 <0>         0.0785
     67 H30         8.2363    4.6481    9.7354 H         1 <0>         0.0724
     68 H31         3.6495    3.1904    1.7350 H         1 <0>         0.4240
@<TRIPOS>BOND
     1    1    6 ar
     2    1    2 ar
     3    1   39 1
     4    2    3 ar
     5    2   40 1
     6    3    4 ar
     7    3    7 1
     8    4    5 ar
     9    4   41 1
    10    5    6 ar
    11    6   42 1
    12    7    8 1
    13    7   43 1
    14    7   44 1
    15    8   13 1
    16    8    9 1
    17    8   68 1
    18    9   10 1
    19    9   45 1
    20    9   46 1
    21   10   11 1
    22   10   47 1
    23   10   48 1
    24   11   12 1
    25   11   14 1
    26   11   49 1
    27   12   13 1
    28   12   50 1
    29   12   51 1
    30   13   52 1
    31   13   53 1
    32   14   18 1
    33   14   15 1
    34   15   22 ar
    35   15   16 ar
    36   16   17 1
    37   16   19 ar
    38   17   18 2
    39   17   54 1
    40   19   20 ar
    41   19   33 1
    42   20   21 ar
    43   21   22 ar
    44   21   23 1
    45   23   28 ar
    46   23   24 ar
    47   24   25 ar
    48   24   55 1
    49   25   26 ar
    50   25   56 1
    51   26   31 1
    52   26   27 ar
    53   27   28 ar
    54   27   29 1
    55   28   57 1
    56   29   30 2
    57   29   58 1
    58   30   31 1
    59   30   59 1
    60   31   32 1
    61   33   38 1
    62   33   34 1
    63   34   35 1
    64   34   60 1
    65   34   61 1
    66   35   36 1
    67   35   62 1
    68   35   63 1
    69   36   37 1
    70   37   38 1
    71   37   64 1
    72   37   65 1
    73   38   66 1
    74   38   67 1
@<TRIPOS>MOLECULE
ZINC06906035
   59    62     0     0     0
SMALL
USER_CHARGES
4-[(4,6-dimorpholino-1,3,5-triazin-2-yl)aminoiminomethyl]-2,6-dimethoxy-phenol
@<TRIPOS>ATOM
      1 C1          1.8037   -7.0789   10.7195 C.3       1 <0>         0.0232
      2 O1          3.1569   -6.6842   10.9540 O.3       1 <0>        -0.3011
      3 C2          3.7048   -5.8043   10.0736 C.ar      1 <0>         0.1392
      4 C3          2.9554   -5.3336    9.0103 C.ar      1 <0>        -0.2026
      5 C4          3.5191   -4.4301    8.1061 C.ar      1 <0>         0.0172
      6 C5          4.8403   -4.0091    8.2756 C.ar      1 <0>        -0.1900
      7 C6          5.5827   -4.4789    9.3442 C.ar      1 <0>         0.1384
      8 C7          5.0186   -5.3787   10.2430 C.ar      1 <0>         0.0577
      9 O2          5.7529   -5.8430   11.2900 O.3       1 <0>        -0.4719
     10 O3          6.8672   -4.0652    9.5131 O.3       1 <0>        -0.3011
     11 C8          7.3825   -3.1407    8.5530 C.3       1 <0>         0.0233
     12 C9          2.7231   -3.9266    6.9718 C.2       1 <0>         0.1073
     13 N1          3.2480   -3.0872    6.1325 N.2       1 <0>        -0.2023
     14 N2          2.4916   -2.6087    5.0547 N.pl3     1 <0>        -0.5340
     15 C10         3.0502   -1.7157    4.1618 C.ar      1 <0>         0.6594
     16 N3          4.3058   -1.3095    4.3251 N.ar      1 <0>        -0.6132
     17 C11         4.8431   -0.4495    3.4658 C.ar      1 <0>         0.5820
     18 N4          4.1270    0.0006    2.4401 N.ar      1 <0>        -0.6019
     19 C12         2.8700   -0.4015    2.2795 C.ar      1 <0>         0.5889
     20 N5          2.3323   -1.2615    3.1387 N.ar      1 <0>        -0.6456
     21 N6          2.1251    0.0696    1.2174 N.pl3     1 <0>        -0.4524
     22 C13         0.7721   -0.5054    1.2266 C.3       1 <0>         0.0323
     23 C14         0.0021   -0.0041    0.0020 C.3       1 <0>         0.0605
     24 O4         -0.0173    1.4259    0.0099 O.3       1 <0>        -0.3813
     25 C15         1.2838    2.0194    0.0006 C.3       1 <0>         0.0634
     26 C16         2.0669    1.5386    1.2252 C.3       1 <0>         0.0309
     27 N7          6.1464   -0.0278    3.6353 N.pl3     1 <0>        -0.4525
     28 C17         6.9497   -0.3040    2.4354 C.3       1 <0>         0.0312
     29 C18         8.3687    0.2319    2.6434 C.3       1 <0>         0.0637
     30 O5          8.9291   -0.3603    3.8184 O.3       1 <0>        -0.3810
     31 C19         8.1723   -0.1107    5.0059 C.3       1 <0>         0.0601
     32 C20         6.7513   -0.6502    4.8219 C.3       1 <0>         0.0333
     33 H1          1.1594   -6.2001   10.7445 H         1 <0>         0.0588
     34 H2          1.7287   -7.5568    9.7428 H         1 <0>         0.0583
     35 H3          1.4908   -7.7809   11.4925 H         1 <0>         0.1047
     36 H4          1.9356   -5.6641    8.8795 H         1 <0>         0.1409
     37 H5          5.2803   -3.3144    7.5755 H         1 <0>         0.1486
     38 H6          6.2475   -6.6509   11.0959 H         1 <0>         0.3857
     39 H7          7.3477   -3.5903    7.5606 H         1 <0>         0.0591
     40 H8          6.7789   -2.2332    8.5621 H         1 <0>         0.0595
     41 H9          8.4141   -2.8936    8.8039 H         1 <0>         0.1048
     42 H10         1.7032   -4.2562    6.8393 H         1 <0>         0.1266
     43 H11         1.5756   -2.9047    4.9357 H         1 <0>         0.4064
     44 H12         0.2523   -0.1984    2.1342 H         1 <0>         0.0668
     45 H13         0.8386   -1.5929    1.1946 H         1 <0>         0.1000
     46 H14        -1.0197   -0.3821    0.0348 H         1 <0>         0.1085
     47 H15         0.4916   -0.3564   -0.9059 H         1 <0>         0.0640
     48 H16         1.8113    1.7259   -0.9069 H         1 <0>         0.0673
     49 H17         1.1891    3.1048    0.0324 H         1 <0>         0.1098
     50 H18         1.5678    1.8783    2.1328 H         1 <0>         0.0573
     51 H19         3.0785    1.9431    1.1922 H         1 <0>         0.1097
     52 H20         6.9885   -1.3796    2.2631 H         1 <0>         0.0568
     53 H21         6.4978    0.1872    1.5738 H         1 <0>         0.1089
     54 H22         8.3349    1.3149    2.7624 H         1 <0>         0.0669
     55 H23         8.9839   -0.0204    1.7798 H         1 <0>         0.1093
     56 H24         8.1328    0.9623    5.1936 H         1 <0>         0.0636
     57 H25         8.6451   -0.6115    5.8508 H         1 <0>         0.1076
     58 H26         6.1546   -0.4115    5.7022 H         1 <0>         0.1009
     59 H27         6.7870   -1.7313    4.6876 H         1 <0>         0.0676
@<TRIPOS>BOND
     1    1    2 1
     2    1   33 1
     3    1   34 1
     4    1   35 1
     5    2    3 1
     6    3    8 ar
     7    3    4 ar
     8    4    5 ar
     9    4   36 1
    10    5    6 ar
    11    5   12 1
    12    6    7 ar
    13    6   37 1
    14    7    8 ar
    15    7   10 1
    16    8    9 1
    17    9   38 1
    18   10   11 1
    19   11   39 1
    20   11   40 1
    21   11   41 1
    22   12   13 2
    23   12   42 1
    24   13   14 1
    25   14   15 1
    26   14   43 1
    27   15   20 ar
    28   15   16 ar
    29   16   17 ar
    30   17   18 ar
    31   17   27 1
    32   18   19 ar
    33   19   20 ar
    34   19   21 1
    35   21   26 1
    36   21   22 1
    37   22   23 1
    38   22   44 1
    39   22   45 1
    40   23   24 1
    41   23   46 1
    42   23   47 1
    43   24   25 1
    44   25   26 1
    45   25   48 1
    46   25   49 1
    47   26   50 1
    48   26   51 1
    49   27   32 1
    50   27   28 1
    51   28   29 1
    52   28   52 1
    53   28   53 1
    54   29   30 1
    55   29   54 1
    56   29   55 1
    57   30   31 1
    58   31   32 1
    59   31   56 1
    60   31   57 1
    61   32   58 1
    62   32   59 1
@<TRIPOS>MOLECULE
ZINC49745945
   77    82     0     0     0
SMALL
USER_CHARGES

@<TRIPOS>ATOM
      1 C1          0.4764    1.4025   -0.5215 C.3       1 <0>        -0.1710
      2 C2          0.3294   -0.1120   -0.3620 C.3       1 <0>         0.1291
      3 N1          0.8989   -0.7840   -1.5326 N.pl3     1 <0>        -0.3750
      4 C3          0.2423   -1.1117   -2.6867 C.ar      1 <0>         0.3463
      5 C4          1.1950   -1.7363   -3.5121 C.ar      1 <0>        -0.1689
      6 C5          0.7813   -2.1829   -4.7849 C.ar      1 <0>         0.5412
      7 N2         -0.4811   -1.9946   -5.1443 N.ar      1 <0>        -0.5913
      8 C6         -1.3472   -1.3988   -4.3302 C.ar      1 <0>         0.4621
      9 N3         -1.0023   -0.9643   -3.1279 N.ar      1 <0>        -0.5608
     10 C7         -2.7456   -1.2147   -4.7838 C.ar      1 <0>        -0.0601
     11 C8         -3.1369   -1.6683   -6.0436 C.ar      1 <0>        -0.0411
     12 C9         -4.4382   -1.4964   -6.4630 C.ar      1 <0>        -0.1531
     13 C10        -5.3609   -0.8714   -5.6317 C.ar      1 <0>         0.1785
     14 C11        -4.9733   -0.4180   -4.3759 C.ar      1 <0>        -0.1297
     15 C12        -3.6746   -0.5927   -3.9495 C.ar      1 <0>        -0.0424
     16 N4         -6.6794   -0.6983   -6.0592 N.am      1 <0>        -0.6765
     17 C13        -7.6925   -0.7949   -5.1756 C.2       1 <0>         0.7063
     18 O1         -7.4552   -0.9482   -3.9930 O.2       1 <0>        -0.5481
     19 N5         -8.9686   -0.7216   -5.6028 N.am      1 <0>        -0.6830
     20 C14       -10.0168   -0.9204   -4.7052 C.ar      1 <0>         0.2020
     21 C15        -9.9036   -0.4674   -3.3945 C.ar      1 <0>        -0.1205
     22 C16       -10.9366   -0.6620   -2.5057 C.ar      1 <0>        -0.0366
     23 C17       -12.1000   -1.3155   -2.9212 C.ar      1 <0>        -0.1665
     24 C18       -12.2104   -1.7693   -4.2384 C.ar      1 <0>        -0.0758
     25 C19       -11.1759   -1.5663   -5.1236 C.ar      1 <0>        -0.1504
     26 C20       -13.2093   -1.5264   -1.9709 C.2       1 <0>         0.5768
     27 O2        -13.4955   -0.6590   -1.1683 O.2       1 <0>        -0.5039
     28 N6        -13.9051   -2.6804   -1.9927 N.am      1 <0>        -0.6322
     29 C21       -13.4970   -3.7934   -2.8637 C.3       1 <0>         0.0750
     30 C22       -13.4270   -5.0703   -2.0196 C.3       1 <0>        -0.0229
     31 N7        -14.7103   -5.2749   -1.3360 N.4       1 <0>        -0.3857
     32 C23       -14.9487   -4.1838   -0.3827 C.3       1 <0>        -0.0203
     33 C24       -15.0907   -2.8650   -1.1415 C.3       1 <0>         0.0879
     34 C25       -14.6806   -6.5546   -0.6152 C.3       1 <0>        -0.0472
     35 N8          1.6731   -2.8030   -5.6392 N.pl3     1 <0>        -0.5689
     36 C26         3.0988   -2.9173   -5.2933 C.3       1 <0>         0.0598
     37 C27         3.5241   -4.3791   -5.4725 C.3       1 <0>         0.0500
     38 O3          3.1505   -4.8212   -6.7797 O.3       1 <0>        -0.3769
     39 C28         1.7415   -4.8088   -7.0213 C.3       1 <0>         0.0464
     40 C29         1.2239   -3.3740   -6.9189 C.3       1 <0>         0.0798
     41 N9          2.3617   -1.7633   -2.8461 N.2       1 <0>        -0.1909
     42 N10         2.2259   -1.2114   -1.6910 N.2       1 <0>        -0.0068
     43 H1          1.5325    1.6578   -0.6089 H         1 <0>         0.0670
     44 H2         -0.0511    1.7263   -1.4187 H         1 <0>         0.0640
     45 H3          0.0527    1.9024    0.3495 H         1 <0>         0.0857
     46 H4          0.8569   -0.4358    0.5352 H         1 <0>         0.1062
     47 H5         -0.7267   -0.3673   -0.2745 H         1 <0>         0.1038
     48 H6         -2.4204   -2.1536   -6.6899 H         1 <0>         0.1444
     49 H7         -4.7416   -1.8470   -7.4384 H         1 <0>         0.1337
     50 H8         -5.6917    0.0678   -3.7322 H         1 <0>         0.1451
     51 H9         -3.3752   -0.2447   -2.9720 H         1 <0>         0.1425
     52 H10        -6.8659   -0.5085   -6.9920 H         1 <0>         0.4127
     53 H11        -9.1579   -0.5305   -6.5348 H         1 <0>         0.4148
     54 H12        -9.0041    0.0372   -3.0740 H         1 <0>         0.1533
     55 H13       -10.8479   -0.3105   -1.4883 H         1 <0>         0.1384
     56 H14       -13.1081   -2.2746   -4.5626 H         1 <0>         0.1335
     57 H15       -11.2625   -1.9125   -6.1430 H         1 <0>         0.1380
     58 H16       -14.2285   -3.9214   -3.6615 H         1 <0>         0.0988
     59 H17       -12.5168   -3.5832   -3.2917 H         1 <0>         0.1400
     60 H18       -13.2199   -5.9228   -2.6665 H         1 <0>         0.1455
     61 H19       -12.6324   -4.9739   -1.2797 H         1 <0>         0.1346
     62 H20       -15.8628   -4.3830    0.1765 H         1 <0>         0.1455
     63 H21       -14.1080   -4.1141    0.3076 H         1 <0>         0.1339
     64 H22       -15.1638   -2.0412   -0.4315 H         1 <0>         0.1376
     65 H23       -15.9859   -2.8977   -1.7625 H         1 <0>         0.0963
     66 H24       -13.8753   -6.5394    0.1192 H         1 <0>         0.1223
     67 H25       -15.6328   -6.7077   -0.1073 H         1 <0>         0.1262
     68 H26       -14.5117   -7.3663   -1.3229 H         1 <0>         0.1260
     69 H27         3.6886   -2.2799   -5.9521 H         1 <0>         0.0854
     70 H28         3.2505   -2.6151   -4.2571 H         1 <0>         0.1320
     71 H29         4.6047   -4.4608   -5.3555 H         1 <0>         0.1142
     72 H30         3.0284   -4.9969   -4.7237 H         1 <0>         0.0576
     73 H31         1.5397   -5.1997   -8.0186 H         1 <0>         0.1121
     74 H32         1.2393   -5.4282   -6.2781 H         1 <0>         0.0562
     75 H33         0.1346   -3.3742   -6.9586 H         1 <0>         0.1100
     76 H34         1.6217   -2.7834   -7.7442 H         1 <0>         0.0831
     77 H35       -15.4540   -5.2928   -2.0176 H         1 <0>         0.4254
@<TRIPOS>BOND
     1    1    2 1
     2    1   43 1
     3    1   44 1
     4    1   45 1
     5    2    3 1
     6    2   46 1
     7    2   47 1
     8    3   42 1
     9    3    4 1
    10    4    9 ar
    11    4    5 ar
    12    5    6 ar
    13    5   41 1
    14    6    7 ar
    15    6   35 1
    16    7    8 ar
    17    8    9 ar
    18    8   10 1
    19   10   15 ar
    20   10   11 ar
    21   11   12 ar
    22   11   48 1
    23   12   13 ar
    24   12   49 1
    25   13   14 ar
    26   13   16 1
    27   14   15 ar
    28   14   50 1
    29   15   51 1
    30   16   17 am
    31   16   52 1
    32   17   18 2
    33   17   19 am
    34   19   20 1
    35   19   53 1
    36   20   25 ar
    37   20   21 ar
    38   21   22 ar
    39   21   54 1
    40   22   23 ar
    41   22   55 1
    42   23   24 ar
    43   23   26 1
    44   24   25 ar
    45   24   56 1
    46   25   57 1
    47   26   27 2
    48   26   28 am
    49   28   33 1
    50   28   29 1
    51   29   30 1
    52   29   58 1
    53   29   59 1
    54   30   31 1
    55   30   60 1
    56   30   61 1
    57   31   32 1
    58   31   34 1
    59   31   77 1
    60   32   33 1
    61   32   62 1
    62   32   63 1
    63   33   64 1
    64   33   65 1
    65   34   66 1
    66   34   67 1
    67   34   68 1
    68   35   40 1
    69   35   36 1
    70   36   37 1
    71   36   69 1
    72   36   70 1
    73   37   38 1
    74   37   71 1
    75   37   72 1
    76   38   39 1
    77   39   40 1
    78   39   73 1
    79   39   74 1
    80   40   75 1
    81   40   76 1
    82   41   42 2
@<TRIPOS>MOLECULE
ZINC49745945
   76    81     0     0     0
SMALL
USER_CHARGES

@<TRIPOS>ATOM
      1 C1          0.4870    1.2904   -0.5179 C.3       1 <0>        -0.1705
      2 C2          0.3305   -0.2245   -0.3718 C.3       1 <0>         0.1289
      3 N1          0.8946   -0.8895   -1.5490 N.pl3     1 <0>        -0.3755
      4 C3          0.2347   -1.2027   -2.7053 C.ar      1 <0>         0.3475
      5 C4          1.1826   -1.8259   -3.5373 C.ar      1 <0>        -0.1706
      6 C5          0.7647   -2.2584   -4.8136 C.ar      1 <0>         0.5407
      7 N2         -0.4968   -2.0590   -5.1699 N.ar      1 <0>        -0.5907
      8 C6         -1.3583   -1.4650   -4.3496 C.ar      1 <0>         0.4661
      9 N3         -1.0094   -1.0435   -3.1438 N.ar      1 <0>        -0.5606
     10 C7         -2.7559   -1.2680   -4.8001 C.ar      1 <0>        -0.0670
     11 C8         -3.1514   -1.7078   -6.0635 C.ar      1 <0>        -0.0406
     12 C9         -4.4520   -1.5239   -6.4798 C.ar      1 <0>        -0.1560
     13 C10        -5.3698   -0.9005   -5.6420 C.ar      1 <0>         0.1863
     14 C11        -4.9781   -0.4609   -4.3826 C.ar      1 <0>        -0.1308
     15 C12        -3.6801   -0.6476   -3.9592 C.ar      1 <0>        -0.0410
     16 N4         -6.6877   -0.7153   -6.0665 N.am      1 <0>        -0.6800
     17 C13        -7.7004   -0.8130   -5.1826 C.2       1 <0>         0.7051
     18 O1         -7.4628   -0.9778   -4.0017 O.2       1 <0>        -0.5474
     19 N5         -8.9765   -0.7280   -5.6077 N.am      1 <0>        -0.6801
     20 C14       -10.0250   -0.9276   -4.7107 C.ar      1 <0>         0.1844
     21 C15        -9.9074   -0.4864   -3.3963 C.ar      1 <0>        -0.1229
     22 C16       -10.9407   -0.6820   -2.5080 C.ar      1 <0>        -0.0438
     23 C17       -12.1088   -1.3244   -2.9277 C.ar      1 <0>        -0.1468
     24 C18       -12.2235   -1.7663   -4.2486 C.ar      1 <0>        -0.0700
     25 C19       -11.1887   -1.5625   -5.1332 C.ar      1 <0>        -0.1503
     26 C20       -13.2184   -1.5362   -1.9780 C.2       1 <0>         0.5640
     27 O2        -13.5054   -0.6692   -1.1752 O.2       1 <0>        -0.5333
     28 N6        -13.9136   -2.6906   -2.0005 N.am      1 <0>        -0.6106
     29 C21       -13.5042   -3.8015   -2.8730 C.3       1 <0>         0.1032
     30 C22       -13.4141   -5.0766   -2.0278 C.3       1 <0>         0.0378
     31 N7        -14.6837   -5.2801   -1.3175 N.3       1 <0>        -0.5433
     32 C23       -14.9490   -4.1844   -0.3757 C.3       1 <0>         0.0394
     33 C24       -15.0984   -2.8750   -1.1486 C.3       1 <0>         0.1159
     34 C25       -14.7011   -6.5793   -0.6321 C.3       1 <0>         0.0242
     35 N8          1.6517   -2.8765   -5.6744 N.pl3     1 <0>        -0.5705
     36 C26         3.0770   -3.0028   -5.3312 C.3       1 <0>         0.0607
     37 C27         3.4930   -4.4656   -5.5238 C.3       1 <0>         0.0499
     38 O3          3.1152   -4.8937   -6.8344 O.3       1 <0>        -0.3779
     39 C28         1.7061   -4.8704   -7.0743 C.3       1 <0>         0.0463
     40 C29         1.1976   -3.4333   -6.9586 C.3       1 <0>         0.0802
     41 N9          2.3498   -1.8663   -2.8728 N.2       1 <0>        -0.1918
     42 N10         2.2187   -1.3239   -1.7127 N.2       1 <0>        -0.0095
     43 H1          1.5446    1.5398   -0.6042 H         1 <0>         0.0660
     44 H2         -0.0394    1.6256   -1.4116 H         1 <0>         0.0643
     45 H3          0.0673    1.7852    0.3580 H         1 <0>         0.0854
     46 H4          0.8569   -0.5596    0.5219 H         1 <0>         0.1056
     47 H5         -0.7271   -0.4739   -0.2855 H         1 <0>         0.1048
     48 H6         -2.4387   -2.1918   -6.7148 H         1 <0>         0.1428
     49 H7         -4.7586   -1.8639   -7.4580 H         1 <0>         0.1333
     50 H8         -5.6928    0.0237   -3.7338 H         1 <0>         0.1465
     51 H9         -3.3775   -0.3103   -2.9789 H         1 <0>         0.1417
     52 H10        -6.8740   -0.5163   -6.9974 H         1 <0>         0.4114
     53 H11        -9.1655   -0.5279   -6.5379 H         1 <0>         0.4117
     54 H12        -9.0044    0.0097   -3.0726 H         1 <0>         0.1479
     55 H13       -10.8487   -0.3396   -1.4879 H         1 <0>         0.1354
     56 H14       -13.1248   -2.2632   -4.5760 H         1 <0>         0.1365
     57 H15       -11.2786   -1.8995   -6.1554 H         1 <0>         0.1341
     58 H16       -14.2423   -3.9375   -3.6634 H         1 <0>         0.0805
     59 H17       -12.5303   -3.5831   -3.3112 H         1 <0>         0.0989
     60 H18       -13.2196   -5.9303   -2.6770 H         1 <0>         0.0900
     61 H19       -12.6046   -4.9772   -1.3047 H         1 <0>         0.0404
     62 H20       -15.8676   -4.3911    0.1733 H         1 <0>         0.0904
     63 H21       -14.1181   -4.0974    0.3245 H         1 <0>         0.0396
     64 H22       -15.1780   -2.0444   -0.4473 H         1 <0>         0.0984
     65 H23       -15.9927   -2.9203   -1.7701 H         1 <0>         0.0780
     66 H24       -13.8860   -6.6198    0.0905 H         1 <0>         0.0267
     67 H25       -15.6521   -6.7042   -0.1143 H         1 <0>         0.0714
     68 H26       -14.5781   -7.3778   -1.3638 H         1 <0>         0.0714
     69 H27         3.6701   -2.3633   -5.9850 H         1 <0>         0.0839
     70 H28         3.2318   -2.7108   -4.2924 H         1 <0>         0.1318
     71 H29         4.5732   -4.5551   -5.4087 H         1 <0>         0.1131
     72 H30         2.9942   -5.0869   -4.7800 H         1 <0>         0.0576
     73 H31         1.5007   -5.2511   -8.0748 H         1 <0>         0.1118
     74 H32         1.2008   -5.4932   -6.3361 H         1 <0>         0.0567
     75 H33         0.1083   -3.4263   -6.9971 H         1 <0>         0.1107
     76 H34         1.5982   -2.8379   -7.7790 H         1 <0>         0.0822
@<TRIPOS>BOND
     1    1    2 1
     2    1   43 1
     3    1   44 1
     4    1   45 1
     5    2    3 1
     6    2   46 1
     7    2   47 1
     8    3   42 1
     9    3    4 1
    10    4    9 ar
    11    4    5 ar
    12    5    6 ar
    13    5   41 1
    14    6    7 ar
    15    6   35 1
    16    7    8 ar
    17    8    9 ar
    18    8   10 1
    19   10   15 ar
    20   10   11 ar
    21   11   12 ar
    22   11   48 1
    23   12   13 ar
    24   12   49 1
    25   13   14 ar
    26   13   16 1
    27   14   15 ar
    28   14   50 1
    29   15   51 1
    30   16   17 am
    31   16   52 1
    32   17   18 2
    33   17   19 am
    34   19   20 1
    35   19   53 1
    36   20   25 ar
    37   20   21 ar
    38   21   22 ar
    39   21   54 1
    40   22   23 ar
    41   22   55 1
    42   23   24 ar
    43   23   26 1
    44   24   25 ar
    45   24   56 1
    46   25   57 1
    47   26   27 2
    48   26   28 am
    49   28   33 1
    50   28   29 1
    51   29   30 1
    52   29   58 1
    53   29   59 1
    54   30   31 1
    55   30   60 1
    56   30   61 1
    57   31   32 1
    58   31   34 1
    59   32   33 1
    60   32   62 1
    61   32   63 1
    62   33   64 1
    63   33   65 1
    64   34   66 1
    65   34   67 1
    66   34   68 1
    67   35   40 1
    68   35   36 1
    69   36   37 1
    70   36   69 1
    71   36   70 1
    72   37   38 1
    73   37   71 1
    74   37   72 1
    75   38   39 1
    76   39   40 1
    77   39   73 1
    78   39   74 1
    79   40   75 1
    80   40   76 1
    81   41   42 2
@<TRIPOS>MOLECULE
ZINC49757175
   87    92     0     0     0
SMALL
USER_CHARGES

@<TRIPOS>ATOM
      1 C1          5.3868   -0.8608    6.2673 C.3       1 <0>        -0.0523
      2 N1          4.6902   -1.9659    5.5955 N.4       1 <0>        -0.3860
      3 C2          3.5030   -2.3420    6.3747 C.3       1 <0>        -0.0524
      4 C3          4.2788   -1.5401    4.2511 C.3       1 <0>         0.0238
      5 C4          3.5515   -2.6911    3.5521 C.3       1 <0>        -0.1577
      6 C5          3.0937   -2.2324    2.1640 C.3       1 <0>         0.1161
      7 N2          4.2570   -1.7183    1.4283 N.am      1 <0>        -0.6211
      8 C6          5.0802   -0.6722    2.0502 C.3       1 <0>         0.0940
      9 C7          5.5157   -1.1483    3.4396 C.3       1 <0>        -0.1602
     10 C8          4.5634   -2.1975    0.2065 C.2       1 <0>         0.5707
     11 O1          3.9333   -3.1284   -0.2571 O.2       1 <0>        -0.5171
     12 C9          5.6638   -1.5925   -0.5689 C.ar      1 <0>        -0.1660
     13 C10         6.4434   -2.3861   -1.4148 C.ar      1 <0>        -0.0336
     14 C11         7.4690   -1.8185   -2.1366 C.ar      1 <0>        -0.1317
     15 C12         7.7299   -0.4564   -2.0246 C.ar      1 <0>         0.2027
     16 C13         6.9560    0.3365   -1.1830 C.ar      1 <0>        -0.1586
     17 C14         5.9249   -0.2236   -0.4631 C.ar      1 <0>        -0.0749
     18 N3          8.7695    0.1152   -2.7570 N.am      1 <0>        -0.6792
     19 C15         9.8319   -0.6326   -3.1155 C.2       1 <0>         0.7047
     20 O2          9.9279   -1.7796   -2.7238 O.2       1 <0>        -0.5448
     21 N4         10.7879   -0.1090   -3.9081 N.am      1 <0>        -0.6771
     22 C16        11.8314   -0.9144   -4.3687 C.ar      1 <0>         0.1828
     23 C17        11.5957   -2.2515   -4.6685 C.ar      1 <0>        -0.1308
     24 C18        12.6236   -3.0483   -5.1232 C.ar      1 <0>        -0.0389
     25 C19        13.9019   -2.5125   -5.2826 C.ar      1 <0>        -0.0638
     26 C20        14.1358   -1.1705   -4.9811 C.ar      1 <0>        -0.0386
     27 C21        13.1032   -0.3764   -4.5321 C.ar      1 <0>        -0.1549
     28 C22        15.0090   -3.3670   -5.7708 C.ar      1 <0>         0.4756
     29 N5         14.7839   -4.6454   -6.0629 N.ar      1 <0>        -0.6329
     30 C23        15.7778   -5.4115   -6.5014 C.ar      1 <0>         0.6382
     31 N6         16.9962   -4.9008   -6.6480 N.ar      1 <0>        -0.6569
     32 C24        17.2217   -3.6238   -6.3563 C.ar      1 <0>         0.6381
     33 N7         16.2277   -2.8551   -5.9225 N.ar      1 <0>        -0.6334
     34 N8         18.4872   -3.0943   -6.5088 N.pl3     1 <0>        -0.5758
     35 C25        19.6008   -3.9223   -6.9985 C.3       1 <0>         0.0915
     36 C26        20.2863   -3.1784   -8.1502 C.3       1 <0>         0.0472
     37 O3         20.6189   -1.8549   -7.7240 O.3       1 <0>        -0.3779
     38 C27        19.4890   -1.0501   -7.3784 C.3       1 <0>         0.0468
     39 C28        18.7613   -1.6836   -6.1924 C.3       1 <0>         0.0918
     40 N9         15.5446   -6.7378   -6.8041 N.pl3     1 <0>        -0.5757
     41 C29        16.6300   -7.6072   -7.2852 C.3       1 <0>         0.0914
     42 C30        16.6371   -8.8852   -6.4386 C.3       1 <0>         0.0475
     43 O4         15.3249   -9.4526   -6.4320 O.3       1 <0>        -0.3780
     44 C31        14.3286   -8.6162   -5.8390 C.3       1 <0>         0.0472
     45 C32        14.2046   -7.3258   -6.6495 C.3       1 <0>         0.0914
     46 H1          6.2677   -0.5817    5.6892 H         1 <0>         0.1248
     47 H2          4.7177   -0.0040    6.3464 H         1 <0>         0.1229
     48 H3          5.6921   -1.1766    7.2649 H         1 <0>         0.1256
     49 H4          2.8338   -1.4852    6.4538 H         1 <0>         0.1230
     50 H5          2.9860   -3.1620    5.8762 H         1 <0>         0.1253
     51 H6          3.8082   -2.6579    7.3723 H         1 <0>         0.1257
     52 H7          3.6100   -0.6831    4.3303 H         1 <0>         0.1398
     53 H8          4.2275   -3.5401    3.4502 H         1 <0>         0.0928
     54 H9          2.6838   -2.9851    4.1426 H         1 <0>         0.1023
     55 H10         2.6634   -3.0758    1.6240 H         1 <0>         0.1144
     56 H11         2.3487   -1.4435    2.2671 H         1 <0>         0.0817
     57 H12         5.9606   -0.4862    1.4351 H         1 <0>         0.1242
     58 H13         4.4972    0.2440    2.1440 H         1 <0>         0.0843
     59 H14         6.0460   -0.3444    3.9500 H         1 <0>         0.1029
     60 H15         6.1732   -2.0119    3.3387 H         1 <0>         0.0937
     61 H16         6.2416   -3.4435   -1.5019 H         1 <0>         0.1380
     62 H17         8.0721   -2.4313   -2.7902 H         1 <0>         0.1552
     63 H18         7.1616    1.3933   -1.0978 H         1 <0>         0.1361
     64 H19         5.3214    0.3933    0.1863 H         1 <0>         0.1378
     65 H20         8.7281    1.0511   -3.0086 H         1 <0>         0.4141
     66 H21        10.7511    0.8274   -4.1586 H         1 <0>         0.4123
     67 H22        10.6061   -2.6659   -4.5446 H         1 <0>         0.1394
     68 H23        12.4401   -4.0869   -5.3556 H         1 <0>         0.1418
     69 H24        15.1244   -0.7533   -5.1036 H         1 <0>         0.1434
     70 H25        13.2827    0.6635   -4.3028 H         1 <0>         0.1335
     71 H26        20.3155   -4.0900   -6.1928 H         1 <0>         0.0779
     72 H27        19.2180   -4.8785   -7.3553 H         1 <0>         0.1070
     73 H28        21.1952   -3.7080   -8.4359 H         1 <0>         0.1107
     74 H29        19.6105   -3.1269   -9.0039 H         1 <0>         0.0559
     75 H30        19.8241   -0.0486   -7.1087 H         1 <0>         0.1107
     76 H31        18.8102   -0.9909   -8.2292 H         1 <0>         0.0557
     77 H32        17.8229   -1.1580   -6.0157 H         1 <0>         0.1089
     78 H33        19.3900   -1.6220   -5.3042 H         1 <0>         0.0775
     79 H34        16.4607   -7.8609   -8.3316 H         1 <0>         0.0783
     80 H35        17.5855   -7.0929   -7.1816 H         1 <0>         0.1071
     81 H36        17.3408   -9.6002   -6.8648 H         1 <0>         0.1107
     82 H37        16.9348   -8.6443   -5.4181 H         1 <0>         0.0555
     83 H38        13.3715   -9.1377   -5.8337 H         1 <0>         0.1104
     84 H39        14.6179   -8.3743   -4.8163 H         1 <0>         0.0551
     85 H40        13.5546   -6.6254   -6.1251 H         1 <0>         0.1090
     86 H41        13.7869   -7.5508   -7.6308 H         1 <0>         0.0780
     87 H42         5.3096   -2.7590    5.5223 H         1 <0>         0.4255
@<TRIPOS>BOND
     1    1    2 1
     2    1   46 1
     3    1   47 1
     4    1   48 1
     5    2    3 1
     6    2    4 1
     7    2   87 1
     8    3   49 1
     9    3   50 1
    10    3   51 1
    11    4    9 1
    12    4    5 1
    13    4   52 1
    14    5    6 1
    15    5   53 1
    16    5   54 1
    17    6    7 1
    18    6   55 1
    19    6   56 1
    20    7    8 1
    21    7   10 am
    22    8    9 1
    23    8   57 1
    24    8   58 1
    25    9   59 1
    26    9   60 1
    27   10   11 2
    28   10   12 1
    29   12   17 ar
    30   12   13 ar
    31   13   14 ar
    32   13   61 1
    33   14   15 ar
    34   14   62 1
    35   15   16 ar
    36   15   18 1
    37   16   17 ar
    38   16   63 1
    39   17   64 1
    40   18   19 am
    41   18   65 1
    42   19   20 2
    43   19   21 am
    44   21   22 1
    45   21   66 1
    46   22   27 ar
    47   22   23 ar
    48   23   24 ar
    49   23   67 1
    50   24   25 ar
    51   24   68 1
    52   25   26 ar
    53   25   28 1
    54   26   27 ar
    55   26   69 1
    56   27   70 1
    57   28   33 ar
    58   28   29 ar
    59   29   30 ar
    60   30   31 ar
    61   30   40 1
    62   31   32 ar
    63   32   33 ar
    64   32   34 1
    65   34   39 1
    66   34   35 1
    67   35   36 1
    68   35   71 1
    69   35   72 1
    70   36   37 1
    71   36   73 1
    72   36   74 1
    73   37   38 1
    74   38   39 1
    75   38   75 1
    76   38   76 1
    77   39   77 1
    78   39   78 1
    79   40   45 1
    80   40   41 1
    81   41   42 1
    82   41   79 1
    83   41   80 1
    84   42   43 1
    85   42   81 1
    86   42   82 1
    87   43   44 1
    88   44   45 1
    89   44   83 1
    90   44   84 1
    91   45   85 1
    92   45   86 1
@<TRIPOS>MOLECULE
ZINC45364502
   63    67     0     0     0
SMALL
USER_CHARGES

@<TRIPOS>ATOM
      1 C1         -0.0629    1.6826   -0.7848 C.ar      1 <0>        -0.0354
      2 C2          1.1551    2.3091   -0.6351 C.ar      1 <0>        -0.1350
      3 C3          2.2853    1.5663   -0.3120 C.ar      1 <0>         0.2020
      4 C4          2.1895    0.1900   -0.1391 C.ar      1 <0>        -0.1644
      5 C5          0.9739   -0.4412   -0.2872 C.ar      1 <0>        -0.0375
      6 C6         -0.1617    0.3018   -0.6114 C.ar      1 <0>        -0.0812
      7 C7         -1.4699   -0.3743   -0.7712 C.ar      1 <0>         0.4840
      8 N1         -2.5513    0.3343   -1.0857 N.ar      1 <0>        -0.6314
      9 C8         -3.7250   -0.2730   -1.2289 C.ar      1 <0>         0.6370
     10 N2         -3.8185   -1.5879   -1.0580 N.ar      1 <0>        -0.6610
     11 C9         -2.7387   -2.2964   -0.7438 C.ar      1 <0>         0.6362
     12 N3         -1.5632   -1.6911   -0.6057 N.ar      1 <0>        -0.6340
     13 N4         -2.8368   -3.6617   -0.5666 N.pl3     1 <0>        -0.5784
     14 C10        -4.1245   -4.3557   -0.7261 C.3       1 <0>         0.0930
     15 C11        -3.9187   -5.5456   -1.6704 C.3       1 <0>         0.0478
     16 O1         -2.8253   -6.3369   -1.1991 O.3       1 <0>        -0.3800
     17 C12        -1.5711   -5.6510   -1.1822 C.3       1 <0>         0.0473
     18 C13        -1.6555   -4.4672   -0.2185 C.3       1 <0>         0.0921
     19 N5         -4.8469    0.4619   -1.5547 N.pl3     1 <0>        -0.5771
     20 C14        -6.1581   -0.1871   -1.7126 C.3       1 <0>         0.0931
     21 C15        -7.1820    0.5798   -0.8679 C.3       1 <0>         0.0473
     22 O2         -7.1177    1.9695   -1.1973 O.3       1 <0>        -0.3796
     23 C16        -5.8589    2.5820   -0.9073 C.3       1 <0>         0.0466
     24 C17        -4.7684    1.9185   -1.7485 C.3       1 <0>         0.0911
     25 N6          3.5184    2.2036   -0.1613 N.am      1 <0>        -0.6854
     26 C18         3.5736    3.4569    0.3312 C.2       1 <0>         0.6993
     27 O3          2.5612    3.9977    0.7319 O.2       1 <0>        -0.5458
     28 N7          4.7511    4.1108    0.3794 N.am      1 <0>        -0.6724
     29 C19         4.8285    5.3624    0.9861 C.ar      1 <0>         0.1373
     30 C20         5.7093    6.3202    0.4917 C.ar      1 <0>        -0.1584
     31 C21         5.7883    7.5532    1.0861 C.ar      1 <0>        -0.0688
     32 C22         4.9818    7.8483    2.1908 C.ar      1 <0>        -0.1417
     33 C23         4.0974    6.8829    2.6846 C.ar      1 <0>        -0.0681
     34 C24         4.0207    5.6539    2.0817 C.ar      1 <0>        -0.1321
     35 C25         5.0639    9.1708    2.8323 C.2       1 <0>         0.5194
     36 O4          5.8380   10.0135    2.3996 O.co2     1 <0>        -0.6893
     37 O5          4.3580    9.4271    3.7981 O.co2     1 <0>        -0.6875
     38 H1         -0.9412    2.2605   -1.0317 H         1 <0>         0.1393
     39 H2          1.2321    3.3780   -0.7692 H         1 <0>         0.1448
     40 H3          3.0690   -0.3849    0.1111 H         1 <0>         0.1317
     41 H4          0.9001   -1.5103   -0.1532 H         1 <0>         0.1391
     42 H5         -4.4720   -4.7122    0.2435 H         1 <0>         0.0757
     43 H6         -4.8596   -3.6724   -1.1515 H         1 <0>         0.1062
     44 H7         -4.8238   -6.1526   -1.6938 H         1 <0>         0.1082
     45 H8         -3.6983   -5.1806   -2.6735 H         1 <0>         0.0551
     46 H9         -0.7871   -6.3337   -0.8544 H         1 <0>         0.1098
     47 H10        -1.3420   -5.2863   -2.1835 H         1 <0>         0.0555
     48 H11        -0.7563   -3.8577   -0.3079 H         1 <0>         0.1104
     49 H12        -1.7502   -4.8351    0.8031 H         1 <0>         0.0763
     50 H13        -6.4557   -0.1634   -2.7609 H         1 <0>         0.0756
     51 H14        -6.0999   -1.2203   -1.3703 H         1 <0>         0.1056
     52 H15        -8.1828    0.2020   -1.0772 H         1 <0>         0.1079
     53 H16        -6.9551    0.4455    0.1898 H         1 <0>         0.0553
     54 H17        -5.9078    3.6447   -1.1449 H         1 <0>         0.1117
     55 H18        -5.6272    2.4550    0.1502 H         1 <0>         0.0569
     56 H19        -3.7903    2.2790   -1.4299 H         1 <0>         0.1117
     57 H20        -4.9236    2.1578   -2.8005 H         1 <0>         0.0770
     58 H21         4.3355    1.7442   -0.4111 H         1 <0>         0.4087
     59 H22         5.5448    3.7099   -0.0083 H         1 <0>         0.4041
     60 H23         6.3314    6.0917   -0.3610 H         1 <0>         0.1166
     61 H24         6.4725    8.2956    0.7023 H         1 <0>         0.1307
     62 H25         3.4735    7.1067    3.5373 H         1 <0>         0.1295
     63 H26         3.3354    4.9096    2.4596 H         1 <0>         0.1273
@<TRIPOS>BOND
     1    1    6 ar
     2    1    2 ar
     3    1   38 1
     4    2    3 ar
     5    2   39 1
     6    3    4 ar
     7    3   25 1
     8    4    5 ar
     9    4   40 1
    10    5    6 ar
    11    5   41 1
    12    6    7 1
    13    7   12 ar
    14    7    8 ar
    15    8    9 ar
    16    9   10 ar
    17    9   19 1
    18   10   11 ar
    19   11   12 ar
    20   11   13 1
    21   13   18 1
    22   13   14 1
    23   14   15 1
    24   14   42 1
    25   14   43 1
    26   15   16 1
    27   15   44 1
    28   15   45 1
    29   16   17 1
    30   17   18 1
    31   17   46 1
    32   17   47 1
    33   18   48 1
    34   18   49 1
    35   19   24 1
    36   19   20 1
    37   20   21 1
    38   20   50 1
    39   20   51 1
    40   21   22 1
    41   21   52 1
    42   21   53 1
    43   22   23 1
    44   23   24 1
    45   23   54 1
    46   23   55 1
    47   24   56 1
    48   24   57 1
    49   25   26 am
    50   25   58 1
    51   26   27 2
    52   26   28 am
    53   28   29 1
    54   28   59 1
    55   29   34 ar
    56   29   30 ar
    57   30   31 ar
    58   30   60 1
    59   31   32 ar
    60   31   61 1
    61   32   33 ar
    62   32   35 1
    63   33   34 ar
    64   33   62 1
    65   34   63 1
    66   35   36 2
    67   35   37 1
@<TRIPOS>MOLECULE
ZINC45358032
   67    71     0     0     0
SMALL
USER_CHARGES

@<TRIPOS>ATOM
      1 C1         -4.4510   -0.4416   -3.6416 C.3       1 <0>         0.0344
      2 O1         -3.7026   -1.6511   -3.5034 O.3       1 <0>        -0.3500
      3 C2         -2.9237   -1.7670   -2.4100 C.2       1 <0>         0.5093
      4 O2         -2.8810   -0.8658   -1.5961 O.2       1 <0>        -0.5059
      5 C3         -2.1231   -2.9875   -2.2011 C.ar      1 <0>        -0.1468
      6 C4         -2.1665   -4.0231   -3.1395 C.ar      1 <0>        -0.0369
      7 C5         -1.4175   -5.1607   -2.9415 C.ar      1 <0>        -0.1358
      8 C6         -0.6177   -5.2809   -1.8090 C.ar      1 <0>         0.2023
      9 C7         -0.5725   -4.2524   -0.8728 C.ar      1 <0>        -0.1587
     10 C8         -1.3143   -3.1094   -1.0672 C.ar      1 <0>        -0.0295
     11 N1          0.1394   -6.4345   -1.6118 N.am      1 <0>        -0.6800
     12 C9          0.6546   -7.0914   -2.6699 C.2       1 <0>         0.7044
     13 O3          0.5395   -6.6281   -3.7880 O.2       1 <0>        -0.5437
     14 N2          1.2975   -8.2620   -2.4884 N.am      1 <0>        -0.6789
     15 C10         1.9245   -8.8887   -3.5671 C.ar      1 <0>         0.1891
     16 C11         2.5012   -8.1236   -4.5747 C.ar      1 <0>        -0.1333
     17 C12         3.1205   -8.7395   -5.6402 C.ar      1 <0>        -0.0374
     18 C13         3.1691  -10.1323   -5.7073 C.ar      1 <0>        -0.0701
     19 C14         2.5901  -10.8977   -4.6947 C.ar      1 <0>        -0.0379
     20 C15         1.9762  -10.2769   -3.6289 C.ar      1 <0>        -0.1581
     21 C16         3.8339  -10.7971   -6.8520 C.ar      1 <0>         0.4787
     22 N3          4.3902  -10.0663   -7.8147 N.ar      1 <0>        -0.6323
     23 C17         4.9865  -10.6637   -8.8416 C.ar      1 <0>         0.6377
     24 N4          5.0272  -11.9906   -8.9069 N.ar      1 <0>        -0.6584
     25 C18         4.4717  -12.7213   -7.9454 C.ar      1 <0>         0.6375
     26 N5          3.8798  -12.1253   -6.9151 N.ar      1 <0>        -0.6335
     27 N6          4.5144  -14.0992   -8.0141 N.pl3     1 <0>        -0.5767
     28 C19         5.1745  -14.7815   -9.1383 C.3       1 <0>         0.0920
     29 C20         6.1451  -15.8228   -8.5693 C.3       1 <0>         0.0475
     30 O4          5.4488  -16.6574   -7.6407 O.3       1 <0>        -0.3787
     31 C21         4.9342  -15.9633   -6.5017 C.3       1 <0>         0.0470
     32 C22         3.9065  -14.9292   -6.9620 C.3       1 <0>         0.0919
     33 N7          5.5633   -9.9057   -9.8406 N.pl3     1 <0>        -0.5763
     34 C23         6.2237  -10.5441  -10.9902 C.3       1 <0>         0.0921
     35 C24         5.6684   -9.9191  -12.2751 C.3       1 <0>         0.0474
     36 O5          5.7760   -8.4960  -12.1909 O.3       1 <0>        -0.3787
     37 C25         5.0138   -7.9131  -11.1312 C.3       1 <0>         0.0469
     38 C26         5.5306   -8.4354   -9.7906 C.3       1 <0>         0.0914
     39 H1         -5.1227   -0.3307   -2.7904 H         1 <0>         0.0619
     40 H2         -3.7673    0.4065   -3.6779 H         1 <0>         0.0620
     41 H3         -5.0338   -0.4781   -4.5620 H         1 <0>         0.1043
     42 H4         -2.7873   -3.9306   -4.0184 H         1 <0>         0.1433
     43 H5         -1.4508   -5.9612   -3.6657 H         1 <0>         0.1461
     44 H6          0.0491   -4.3491    0.0051 H         1 <0>         0.1380
     45 H7         -1.2753   -2.3097   -0.3424 H         1 <0>         0.1436
     46 H8          0.2956   -6.7644   -0.7131 H         1 <0>         0.4130
     47 H9          1.3245   -8.6691   -1.6083 H         1 <0>         0.4119
     48 H10         2.4633   -7.0455   -4.5223 H         1 <0>         0.1425
     49 H11         3.5677   -8.1448   -6.4230 H         1 <0>         0.1409
     50 H12         2.6264  -11.9760   -4.7444 H         1 <0>         0.1420
     51 H13         1.5311  -10.8689   -2.8429 H         1 <0>         0.1333
     52 H14         4.4265  -15.2767   -9.7575 H         1 <0>         0.0771
     53 H15         5.7247  -14.0552   -9.7366 H         1 <0>         0.1066
     54 H16         6.5414  -16.4329   -9.3810 H         1 <0>         0.1097
     55 H17         6.9649  -15.3163   -8.0599 H         1 <0>         0.0555
     56 H18         4.4594  -16.6745   -5.8258 H         1 <0>         0.1104
     57 H19         5.7496  -15.4573   -5.9847 H         1 <0>         0.0556
     58 H20         3.6174  -14.3007   -6.1197 H         1 <0>         0.1096
     59 H21         3.0287  -15.4395   -7.3583 H         1 <0>         0.0772
     60 H22         7.2993  -10.3763  -10.9355 H         1 <0>         0.0771
     61 H23         6.0178  -11.6145  -10.9840 H         1 <0>         0.1065
     62 H24         6.2404  -10.2774  -13.1310 H         1 <0>         0.1096
     63 H25         4.6215  -10.1987  -12.3931 H         1 <0>         0.0556
     64 H26         5.1148   -6.8283  -11.1641 H         1 <0>         0.1109
     65 H27         3.9645   -8.1854  -11.2450 H         1 <0>         0.0560
     66 H28         4.8659   -8.1100   -8.9903 H         1 <0>         0.1101
     67 H29         6.5352   -8.0517   -9.6129 H         1 <0>         0.0775
@<TRIPOS>BOND
     1    1    2 1
     2    1   39 1
     3    1   40 1
     4    1   41 1
     5    2    3 1
     6    3    4 2
     7    3    5 1
     8    5   10 ar
     9    5    6 ar
    10    6    7 ar
    11    6   42 1
    12    7    8 ar
    13    7   43 1
    14    8    9 ar
    15    8   11 1
    16    9   10 ar
    17    9   44 1
    18   10   45 1
    19   11   12 am
    20   11   46 1
    21   12   13 2
    22   12   14 am
    23   14   15 1
    24   14   47 1
    25   15   20 ar
    26   15   16 ar
    27   16   17 ar
    28   16   48 1
    29   17   18 ar
    30   17   49 1
    31   18   19 ar
    32   18   21 1
    33   19   20 ar
    34   19   50 1
    35   20   51 1
    36   21   26 ar
    37   21   22 ar
    38   22   23 ar
    39   23   24 ar
    40   23   33 1
    41   24   25 ar
    42   25   26 ar
    43   25   27 1
    44   27   32 1
    45   27   28 1
    46   28   29 1
    47   28   52 1
    48   28   53 1
    49   29   30 1
    50   29   54 1
    51   29   55 1
    52   30   31 1
    53   31   32 1
    54   31   56 1
    55   31   57 1
    56   32   58 1
    57   32   59 1
    58   33   38 1
    59   33   34 1
    60   34   35 1
    61   34   60 1
    62   34   61 1
    63   35   36 1
    64   35   62 1
    65   35   63 1
    66   36   37 1
    67   37   38 1
    68   37   64 1
    69   37   65 1
    70   38   66 1
    71   38   67 1
@<TRIPOS>MOLECULE
ZINC45371737
   71    77     0     0     0
SMALL
USER_CHARGES

@<TRIPOS>ATOM
      1 C1         -1.1535    1.1668   -0.4486 C.3       1 <0>         0.1041
      2 N1         -0.5395   -0.1431   -0.2174 N.am      1 <0>        -0.7448
      3 C2          0.0369   -0.8069   -1.2390 C.2       1 <0>         0.7012
      4 O1          0.0472   -0.3187   -2.3524 O.2       1 <0>        -0.5673
      5 N2          0.6017   -2.0120   -1.0263 N.am      1 <0>        -0.6865
      6 C3          1.1133   -2.7431   -2.1011 C.ar      1 <0>         0.1879
      7 C4          1.7203   -2.0828   -3.1633 C.ar      1 <0>        -0.1319
      8 C5          2.2258   -2.8016   -4.2247 C.ar      1 <0>        -0.0457
      9 C6          2.1279   -4.1932   -4.2328 C.ar      1 <0>        -0.0682
     10 C7          1.5184   -4.8534   -3.1657 C.ar      1 <0>        -0.0432
     11 C8          1.0196   -4.1302   -2.1041 C.ar      1 <0>        -0.1593
     12 C9          2.6700   -4.9685   -5.3729 C.ar      1 <0>         0.4264
     13 N3          3.2478   -4.3170   -6.3698 N.ar      1 <0>        -0.5354
     14 C10         3.7473   -4.9768   -7.4114 C.ar      1 <0>         0.3533
     15 C11         3.6520   -6.3828   -7.4375 C.ar      1 <0>        -0.2861
     16 C12         4.2528   -6.8153   -8.6388 C.2       1 <0>         0.1057
     17 N4          4.6772   -5.7690   -9.2887 N.2       1 <0>        -0.2336
     18 N5          4.3828   -4.6093   -8.5608 N.pl3     1 <0>        -0.3717
     19 C13         4.7021   -3.2378   -8.9647 C.3       1 <0>         0.1710
     20 C14         6.2164   -3.0939   -9.1286 C.3       1 <0>        -0.1199
     21 C15         6.5501   -1.6603   -9.5464 C.3       1 <0>        -0.1324
     22 C16         5.8565   -1.3418  -10.8720 C.3       1 <0>         0.2568
     23 C17         4.3424   -1.4901  -10.7138 C.3       1 <0>        -0.1160
     24 C18         4.0122   -2.9240  -10.2937 C.3       1 <0>        -0.1199
     25 O2          6.1672    0.0057  -11.2625 O.3       1 <0>        -0.3698
     26 C19         7.2900   -0.1214  -12.1680 C.3       1 <0>         0.0147
     27 C20         6.9472   -1.4364  -12.9119 C.3       1 <0>         0.0189
     28 O3          6.3246   -2.2381  -11.8876 O.3       1 <0>        -0.3696
     29 C21         3.0286   -7.0330   -6.3534 C.ar      1 <0>         0.5242
     30 N6          2.5632   -6.2940   -5.3547 N.ar      1 <0>        -0.5506
     31 N7          2.9086   -8.4088   -6.3294 N.pl3     1 <0>        -0.6601
     32 C22         3.8986   -9.2432   -5.6277 C.3       1 <0>         0.1260
     33 C23         3.1330  -10.2784   -4.7861 C.3       1 <0>         0.0569
     34 H1          3.8077  -10.9230   -4.2228 H         1 <0>         0.1159
     35 C24         2.1570   -9.5152   -3.8620 C.3       1 <0>        -0.1389
     36 C25         0.8604   -9.4062   -4.6948 C.3       1 <0>        -0.1370
     37 C26         1.2072  -10.1164   -6.0231 C.3       1 <0>         0.0564
     38 H2          0.3477  -10.6398   -6.4420 H         1 <0>         0.1165
     39 C27         1.7837   -9.0827   -6.9996 C.3       1 <0>         0.1275
     40 O4          2.2901  -11.0325   -5.6858 O.3       1 <0>        -0.3639
     41 H3         -0.4000    1.8605   -0.8217 H         1 <0>         0.0616
     42 H4         -1.9527    1.0688   -1.1833 H         1 <0>         0.0615
     43 H5         -1.5646    1.5456    0.4871 H         1 <0>         0.0791
     44 H6         -0.5478   -0.5326    0.6709 H         1 <0>         0.4000
     45 H7          0.6530   -2.3716   -0.1268 H         1 <0>         0.4088
     46 H8          1.7955   -1.0054   -3.1567 H         1 <0>         0.1456
     47 H9          2.6969   -2.2881   -5.0498 H         1 <0>         0.1387
     48 H10         1.4414   -5.9307   -3.1696 H         1 <0>         0.1411
     49 H11         0.5515   -4.6412   -1.2756 H         1 <0>         0.1309
     50 H12         4.3452   -7.8408   -8.9646 H         1 <0>         0.1965
     51 H13         4.3519   -2.5434   -8.2009 H         1 <0>         0.1089
     52 H14         6.7074   -3.3202   -8.1821 H         1 <0>         0.0711
     53 H15         6.5664   -3.7864   -9.8942 H         1 <0>         0.0879
     54 H16         6.2033   -0.9680   -8.7792 H         1 <0>         0.0855
     55 H17         7.6287   -1.5586   -9.6671 H         1 <0>         0.0784
     56 H18         3.9870   -0.7971   -9.9512 H         1 <0>         0.0850
     57 H19         3.8544   -1.2679  -11.6628 H         1 <0>         0.0832
     58 H20         4.3641   -3.6167  -11.0582 H         1 <0>         0.0883
     59 H21         2.9336   -3.0291  -10.1769 H         1 <0>         0.0732
     60 H22         7.3301    0.7195  -12.8603 H         1 <0>         0.1104
     61 H23         8.2261   -0.2170  -11.6179 H         1 <0>         0.0766
     62 H24         6.2509   -1.2465  -13.7288 H         1 <0>         0.0772
     63 H25         7.8530   -1.9178  -13.2805 H         1 <0>         0.1009
     64 H26         4.5317   -9.7535   -6.3536 H         1 <0>         0.0685
     65 H27         4.5116   -8.6195   -4.9769 H         1 <0>         0.0775
     66 H28         1.9770  -10.0795   -2.9470 H         1 <0>         0.0683
     67 H29         2.5466   -8.5239   -3.6303 H         1 <0>         0.0848
     68 H30         0.0392   -9.9167   -4.1917 H         1 <0>         0.0691
     69 H31         0.6087   -8.3610   -4.8748 H         1 <0>         0.0823
     70 H32         1.0119   -8.3540   -7.2472 H         1 <0>         0.0763
     71 H33         2.1352   -9.5716   -7.9082 H         1 <0>         0.0712
@<TRIPOS>BOND
     1    1    2 1
     2    1   41 1
     3    1   42 1
     4    1   43 1
     5    2    3 am
     6    2   44 1
     7    3    4 2
     8    3    5 am
     9    5    6 1
    10    5   45 1
    11    6   11 ar
    12    6    7 ar
    13    7    8 ar
    14    7   46 1
    15    8    9 ar
    16    8   47 1
    17    9   10 ar
    18    9   12 1
    19   10   11 ar
    20   10   48 1
    21   11   49 1
    22   12   30 ar
    23   12   13 ar
    24   13   14 ar
    25   14   18 1
    26   14   15 ar
    27   15   16 1
    28   15   29 ar
    29   16   17 2
    30   16   50 1
    31   17   18 1
    32   18   19 1
    33   19   24 1
    34   19   20 1
    35   19   51 1
    36   20   21 1
    37   20   52 1
    38   20   53 1
    39   21   22 1
    40   21   54 1
    41   21   55 1
    42   22   28 1
    43   22   23 1
    44   22   25 1
    45   23   24 1
    46   23   56 1
    47   23   57 1
    48   24   58 1
    49   24   59 1
    50   25   26 1
    51   26   27 1
    52   26   60 1
    53   26   61 1
    54   27   28 1
    55   27   62 1
    56   27   63 1
    57   29   30 ar
    58   29   31 1
    59   31   39 1
    60   31   32 1
    61   32   33 1
    62   32   64 1
    63   32   65 1
    64   33   34 1
    65   33   40 1
    66   33   35 1
    67   35   36 1
    68   35   66 1
    69   35   67 1
    70   36   37 1
    71   36   68 1
    72   36   69 1
    73   37   38 1
    74   37   39 1
    75   37   40 1
    76   39   70 1
    77   39   71 1
@<TRIPOS>MOLECULE
ZINC37858693
   41    44     0     0     0
SMALL
USER_CHARGES

@<TRIPOS>ATOM
      1 C1          0.5160    2.1016    0.8389 C.ar      1 <0>        -0.0994
      2 C2          1.7856    2.6500    0.8665 C.ar      1 <0>        -0.1121
      3 C3          2.8922    1.8441    0.6914 C.ar      1 <0>        -0.0943
      4 C4          2.7287    0.4752    0.4869 C.ar      1 <0>        -0.0732
      5 C5          1.4472   -0.0719    0.4605 C.ar      1 <0>        -0.1006
      6 C6          0.3478    0.7436    0.6363 C.ar      1 <0>        -0.1173
      7 C7          3.9141   -0.3959    0.2976 C.ar      1 <0>        -0.0335
      8 C8          4.8973   -0.0477   -0.6237 C.ar      1 <0>        -0.0260
      9 C9          6.0057   -0.8554   -0.8057 C.ar      1 <0>        -0.1150
     10 C10         6.1509   -2.0173   -0.0765 C.ar      1 <0>        -0.0276
     11 C11         5.1749   -2.3827    0.8521 C.ar      1 <0>        -0.1580
     12 C12         4.0513   -1.5679    1.0483 C.ar      1 <0>         0.1530
     13 O1          3.1107   -1.9210    1.9513 O.3       1 <0>        -0.2119
     14 C13         3.2233   -3.0458    2.6842 C.2       1 <0>         0.5161
     15 C14         4.3307   -3.9124    2.5453 C.2       1 <0>        -0.3925
     16 C15         5.3074   -3.6191    1.6424 C.2       1 <0>         0.3444
     17 O2          6.3792   -4.4322    1.4880 O.3       1 <0>        -0.4181
     18 N1          2.2825   -3.3434    3.5479 N.pl3     1 <0>        -0.4926
     19 C16         2.4343   -4.4783    4.4722 C.3       1 <0>         0.0520
     20 C17         2.1323   -3.9883    5.8930 C.3       1 <0>         0.0436
     21 O3          0.8653   -3.3262    5.9032 O.3       1 <0>        -0.3612
     22 C18         0.8098   -2.1560    5.0839 C.3       1 <0>         0.0453
     23 C19         1.0465   -2.5487    3.6254 C.3       1 <0>         0.0388
     24 H1         -0.3469    2.7354    0.9805 H         1 <0>         0.1315
     25 H2          1.9111    3.7109    1.0251 H         1 <0>         0.1335
     26 H3          3.8830    2.2735    0.7124 H         1 <0>         0.1299
     27 H4          1.3146   -1.1320    0.3020 H         1 <0>         0.1182
     28 H5         -0.6458    0.3207    0.6159 H         1 <0>         0.1304
     29 H6          4.7942    0.8593   -1.2010 H         1 <0>         0.1606
     30 H7          6.7620   -0.5746   -1.5237 H         1 <0>         0.1586
     31 H8          7.0184   -2.6435   -0.2242 H         1 <0>         0.1605
     32 H9          4.3974   -4.8082    3.1449 H         1 <0>         0.1871
     33 H10         1.7353   -5.2692    4.2004 H         1 <0>         0.1243
     34 H11         3.4552   -4.8572    4.4238 H         1 <0>         0.1224
     35 H12         2.1038   -4.8394    6.5733 H         1 <0>         0.1345
     36 H13         2.9091   -3.2929    6.2111 H         1 <0>         0.0713
     37 H14        -0.1702   -1.6889    5.1820 H         1 <0>         0.1322
     38 H15         1.5817   -1.4539    5.3990 H         1 <0>         0.0698
     39 H16         1.1488   -1.6504    3.0165 H         1 <0>         0.1219
     40 H17         0.2054   -3.1421    3.2669 H         1 <0>         0.1210
     41 H18         6.3643   -5.2148    2.0559 H         1 <0>         0.4327
@<TRIPOS>BOND
     1    1    6 ar
     2    1    2 ar
     3    1   24 1
     4    2    3 ar
     5    2   25 1
     6    3    4 ar
     7    3   26 1
     8    4    5 ar
     9    4    7 1
    10    5    6 ar
    11    5   27 1
    12    6   28 1
    13    7   12 ar
    14    7    8 ar
    15    8    9 ar
    16    8   29 1
    17    9   10 ar
    18    9   30 1
    19   10   11 ar
    20   10   31 1
    21   11   16 1
    22   11   12 ar
    23   12   13 1
    24   13   14 1
    25   14   15 1
    26   14   18 2
    27   15   16 2
    28   15   32 1
    29   16   17 1
    30   17   41 1
    31   18   23 1
    32   18   19 1
    33   19   20 1
    34   19   33 1
    35   19   34 1
    36   20   21 1
    37   20   35 1
    38   20   36 1
    39   21   22 1
    40   22   23 1
    41   22   37 1
    42   22   38 1
    43   23   39 1
    44   23   40 1
@<TRIPOS>MOLECULE
ZINC37858693
   40    43     0     0     0
SMALL
USER_CHARGES

@<TRIPOS>ATOM
      1 C1          0.2876    1.8369    0.5003 C.ar      1 <0>        -0.1138
      2 C2          1.5256    2.4537    0.5196 C.ar      1 <0>        -0.1178
      3 C3          2.6766    1.7000    0.4106 C.ar      1 <0>        -0.1031
      4 C4          2.5899    0.3150    0.2813 C.ar      1 <0>        -0.0464
      5 C5          1.3398   -0.3010    0.2629 C.ar      1 <0>        -0.0972
      6 C6          0.1955    0.4627    0.3722 C.ar      1 <0>        -0.1190
      7 C7          3.8233   -0.5002    0.1633 C.ar      1 <0>        -0.0659
      8 C8          4.8057   -0.1521   -0.7576 C.ar      1 <0>        -0.0509
      9 C9          5.9596   -0.9073   -0.8735 C.ar      1 <0>        -0.1421
     10 C10         6.1511   -2.0171   -0.0767 C.ar      1 <0>        -0.0303
     11 C11         5.1771   -2.3805    0.8515 C.ar      1 <0>        -0.2132
     12 C12         4.0070   -1.6203    0.9822 C.ar      1 <0>         0.1636
     13 O1          3.0722   -1.9773    1.8869 O.3       1 <0>        -0.2401
     14 C13         3.2188   -3.0440    2.6844 C.2       1 <0>         0.4332
     15 C14         4.3202   -3.8451    2.6409 C.2       1 <0>        -0.4014
     16 C15         5.3485   -3.5630    1.7210 C.2       1 <0>         0.4330
     17 O2          6.3487   -4.2595    1.6546 O.2       1 <0>        -0.4871
     18 N1          2.2228   -3.3404    3.5787 N.pl3     1 <0>        -0.6054
     19 C16         2.5307   -3.9598    4.8776 C.3       1 <0>         0.0933
     20 C17         1.8423   -3.1437    5.9776 C.3       1 <0>         0.0440
     21 O3          0.4569   -2.9961    5.6571 O.3       1 <0>        -0.3749
     22 C18         0.2096   -2.2766    4.4468 C.3       1 <0>         0.0453
     23 C19         0.8149   -3.0430    3.2707 C.3       1 <0>         0.0807
     24 H1         -0.6104    2.4302    0.5900 H         1 <0>         0.1241
     25 H2          1.5916    3.5270    0.6198 H         1 <0>         0.1260
     26 H3          3.6427    2.1826    0.4251 H         1 <0>         0.1253
     27 H4          1.2668   -1.3738    0.1627 H         1 <0>         0.1192
     28 H5         -0.7737   -0.0136    0.3580 H         1 <0>         0.1249
     29 H6          4.6668    0.7142   -1.3874 H         1 <0>         0.1424
     30 H7          6.7148   -0.6263   -1.5926 H         1 <0>         0.1401
     31 H8          7.0533   -2.6030   -0.1722 H         1 <0>         0.1447
     32 H9          4.4000   -4.6957    3.3015 H         1 <0>         0.1539
     33 H10         2.1587   -4.9842    4.8932 H         1 <0>         0.0888
     34 H11         3.6087   -3.9576    5.0390 H         1 <0>         0.1017
     35 H12         1.9421   -3.6615    6.9316 H         1 <0>         0.1144
     36 H13         2.3070   -2.1601    6.0461 H         1 <0>         0.0589
     37 H14        -0.8652   -2.1705    4.2994 H         1 <0>         0.1109
     38 H15         0.6683   -1.2898    4.5097 H         1 <0>         0.0586
     39 H16         0.7573   -2.4341    2.3685 H         1 <0>         0.0961
     40 H17         0.2673   -3.9736    3.1217 H         1 <0>         0.0853
@<TRIPOS>BOND
     1    1    6 ar
     2    1    2 ar
     3    1   24 1
     4    2    3 ar
     5    2   25 1
     6    3    4 ar
     7    3   26 1
     8    4    5 ar
     9    4    7 1
    10    5    6 ar
    11    5   27 1
    12    6   28 1
    13    7   12 ar
    14    7    8 ar
    15    8    9 ar
    16    8   29 1
    17    9   10 ar
    18    9   30 1
    19   10   11 ar
    20   10   31 1
    21   11   16 1
    22   11   12 ar
    23   12   13 1
    24   13   14 1
    25   14   15 2
    26   14   18 1
    27   15   16 1
    28   15   32 1
    29   16   17 2
    30   18   23 1
    31   18   19 1
    32   19   20 1
    33   19   33 1
    34   19   34 1
    35   20   21 1
    36   20   35 1
    37   20   36 1
    38   21   22 1
    39   22   23 1
    40   22   37 1
    41   22   38 1
    42   23   39 1
    43   23   40 1
