@<TRIPOS>MOLECULE
ZINC02510569
   50    53     0     0     0
SMALL
USER_CHARGES

@<TRIPOS>ATOM
      1 C1         -0.0187    1.5258    0.0104 C.3       1 <0>        -0.1538
      2 C2          0.0021   -0.0041    0.0020 C.3       1 <0>        -0.1105
      3 C3          0.7182   -0.4975   -1.2568 C.3       1 <0>        -0.1409
      4 C4          0.7386   -2.0043   -1.2651 C.2       1 <0>         0.5096
      5 O1          0.2305   -2.6227   -0.3539 O.2       1 <0>        -0.5384
      6 N1          1.3217   -2.6648   -2.2851 N.am      1 <0>        -0.7346
      7 C5          1.3415   -4.1296   -2.2931 C.3       1 <0>         0.1237
      8 C6          2.0577   -4.6230   -3.5519 C.3       1 <0>        -0.0535
      9 C7          2.0781   -6.1299   -3.5602 C.2       1 <0>        -0.1403
     10 C8          3.1097   -6.9868   -2.9817 C.ar      1 <0>        -0.0524
     11 C9          4.3033   -6.7373   -2.2963 C.ar      1 <0>        -0.1087
     12 C10         5.0773   -7.7967   -1.8682 C.ar      1 <0>         0.1038
     13 C11         4.6748   -9.1068   -2.1162 C.ar      1 <0>        -0.1738
     14 C12         3.5018   -9.3644   -2.7905 C.ar      1 <0>        -0.0892
     15 C13         2.7070   -8.3110   -3.2295 C.ar      1 <0>         0.1039
     16 N2          1.5073   -8.2588   -3.9148 N.pl3     1 <0>        -0.5019
     17 C14         1.1354   -6.9487   -4.1033 C.2       1 <0>         0.1126
     18 C15        -0.1538   -6.8996   -4.8306 C.ar      1 <0>        -0.0407
     19 C16        -0.9402   -5.8292   -5.2607 C.ar      1 <0>        -0.0816
     20 C17        -2.1213   -6.0723   -5.9308 C.ar      1 <0>        -0.1101
     21 C18        -2.5286   -7.3715   -6.1778 C.ar      1 <0>        -0.1066
     22 C19        -1.7536   -8.4371   -5.7535 C.ar      1 <0>        -0.0875
     23 C20        -0.5723   -8.2052   -5.0840 C.ar      1 <0>        -0.1104
     24 C21         0.4793   -9.1224   -4.5145 C.3       1 <0>         0.1579
     25 O2          6.2387   -7.5603   -1.2014 O.3       1 <0>        -0.3177
     26 C22         6.9922   -8.7013   -0.7861 C.3       1 <0>         0.0278
     27 H1          1.0039    1.9031    0.0027 H         1 <0>         0.0547
     28 H2         -0.5459    1.8868   -0.8726 H         1 <0>         0.0544
     29 H3         -0.5289    1.8773    0.9072 H         1 <0>         0.0581
     30 H4          0.5293   -0.3651    0.8851 H         1 <0>         0.0691
     31 H5         -1.0205   -0.3814    0.0098 H         1 <0>         0.0687
     32 H6          0.1910   -0.1364   -2.1398 H         1 <0>         0.0928
     33 H7          1.7408   -0.1202   -1.2645 H         1 <0>         0.0934
     34 H8          1.7281   -2.1702   -3.0138 H         1 <0>         0.4005
     35 H9          1.8687   -4.4907   -1.4101 H         1 <0>         0.0698
     36 H10         0.3189   -4.5069   -2.2854 H         1 <0>         0.0663
     37 H11         1.5305   -4.2619   -4.4350 H         1 <0>         0.0756
     38 H12         3.0803   -4.2457   -3.5597 H         1 <0>         0.0809
     39 H13         4.6174   -5.7221   -2.1036 H         1 <0>         0.1335
     40 H14         5.2884   -9.9282   -1.7770 H         1 <0>         0.1339
     41 H15         3.1990  -10.3841   -2.9775 H         1 <0>         0.1246
     42 H16        -0.6251   -4.8141   -5.0692 H         1 <0>         0.1294
     43 H17        -2.7308   -5.2451   -6.2638 H         1 <0>         0.1330
     44 H18        -3.4544   -7.5547   -6.7029 H         1 <0>         0.1335
     45 H19        -2.0750   -9.4498   -5.9474 H         1 <0>         0.1314
     46 H20         0.9193   -9.7367   -5.3001 H         1 <0>         0.1016
     47 H21         0.0320   -9.7572   -3.7496 H         1 <0>         0.0995
     48 H22         6.3878   -9.3110   -0.1145 H         1 <0>         0.0545
     49 H23         7.2708   -9.2903   -1.6599 H         1 <0>         0.0544
     50 H24         7.8927   -8.3728   -0.2672 H         1 <0>         0.0999
@<TRIPOS>BOND
     1    1    2 1
     2    1   27 1
     3    1   28 1
     4    1   29 1
     5    2    3 1
     6    2   30 1
     7    2   31 1
     8    3    4 1
     9    3   32 1
    10    3   33 1
    11    4    5 2
    12    4    6 am
    13    6    7 1
    14    6   34 1
    15    7    8 1
    16    7   35 1
    17    7   36 1
    18    8    9 1
    19    8   37 1
    20    8   38 1
    21    9   17 2
    22    9   10 1
    23   10   15 ar
    24   10   11 ar
    25   11   12 ar
    26   11   39 1
    27   12   13 ar
    28   12   25 1
    29   13   14 ar
    30   13   40 1
    31   14   15 ar
    32   14   41 1
    33   15   16 1
    34   16   24 1
    35   16   17 1
    36   17   18 1
    37   18   23 ar
    38   18   19 ar
    39   19   20 ar
    40   19   42 1
    41   20   21 ar
    42   20   43 1
    43   21   22 ar
    44   21   44 1
    45   22   23 ar
    46   22   45 1
    47   23   24 1
    48   24   46 1
    49   24   47 1
    50   25   26 1
    51   26   48 1
    52   26   49 1
    53   26   50 1
@<TRIPOS>MOLECULE
ZINC00005608
   35    36     0     0     0
SMALL
USER_CHARGES
N-[2-(7-methoxy-1-naphthyl)ethyl]acetamide
@<TRIPOS>ATOM
      1 C1         -2.9574    6.9806    6.3042 C.3       1 <0>        -0.1716
      2 C2         -3.5914    6.1077    5.2520 C.2       1 <0>         0.5089
      3 O1         -4.0873    6.6099    4.2657 O.2       1 <0>        -0.5456
      4 N1         -3.6074    4.7690    5.4071 N.am      1 <0>        -0.7329
      5 C3         -4.2238    3.9205    4.3842 C.3       1 <0>         0.1210
      6 C4         -4.1077    2.4530    4.8012 C.3       1 <0>        -0.0915
      7 C5         -4.7418    1.5801    3.7490 C.ar      1 <0>        -0.0814
      8 C6         -6.0350    1.1769    3.8829 C.ar      1 <0>        -0.0960
      9 C7         -6.6377    0.3691    2.9208 C.ar      1 <0>        -0.1265
     10 C8         -5.9511   -0.0396    1.8186 C.ar      1 <0>        -0.0921
     11 C9         -4.6144    0.3562    1.6455 C.ar      1 <0>        -0.0828
     12 C10        -4.0008    1.1778    2.6246 C.ar      1 <0>        -0.0046
     13 C11        -2.6623    1.5691    2.4561 C.ar      1 <0>        -0.1585
     14 C12        -1.9747    1.1631    1.3482 C.ar      1 <0>         0.1326
     15 C13        -2.5823    0.3530    0.3835 C.ar      1 <0>        -0.1906
     16 C14        -3.8745   -0.0476    0.5202 C.ar      1 <0>        -0.0626
     17 O2         -0.6816    1.5467    1.1837 O.3       1 <0>        -0.3173
     18 C15        -0.0127    1.0858    0.0080 C.3       1 <0>         0.0256
     19 H1         -2.5689    6.3560    7.1087 H         1 <0>         0.0758
     20 H2         -2.1411    7.5503    5.8601 H         1 <0>         0.0954
     21 H3         -3.7034    7.6668    6.7049 H         1 <0>         0.0953
     22 H4         -3.2108    4.3673    6.1959 H         1 <0>         0.4015
     23 H5         -3.7132    4.0693    3.4327 H         1 <0>         0.0711
     24 H6         -5.2756    4.1858    4.2775 H         1 <0>         0.0701
     25 H7         -4.6183    2.3041    5.7526 H         1 <0>         0.0825
     26 H8         -3.0559    2.1876    4.9078 H         1 <0>         0.0830
     27 H9         -6.6022    1.4874    4.7479 H         1 <0>         0.1247
     28 H10        -7.6651    0.0628    3.0513 H         1 <0>         0.1250
     29 H11        -6.4316   -0.6653    1.0811 H         1 <0>         0.1275
     30 H12        -2.1809    2.1906    3.1965 H         1 <0>         0.1349
     31 H13        -2.0170    0.0409   -0.4822 H         1 <0>         0.1314
     32 H14        -4.3306   -0.6737   -0.2324 H         1 <0>         0.1329
     33 H15         0.0021   -0.0041    0.0020 H         1 <0>         0.0564
     34 H16         1.0099    1.4631    0.0003 H         1 <0>         0.1018
     35 H17        -0.5399    1.4469   -0.8751 H         1 <0>         0.0565
@<TRIPOS>BOND
     1    1    2 1
     2    1   19 1
     3    1   20 1
     4    1   21 1
     5    2    3 2
     6    2    4 am
     7    4    5 1
     8    4   22 1
     9    5    6 1
    10    5   23 1
    11    5   24 1
    12    6    7 1
    13    6   25 1
    14    6   26 1
    15    7   12 ar
    16    7    8 ar
    17    8    9 ar
    18    8   27 1
    19    9   10 ar
    20    9   28 1
    21   10   11 ar
    22   10   29 1
    23   11   16 ar
    24   11   12 ar
    25   12   13 ar
    26   13   14 ar
    27   13   30 1
    28   14   15 ar
    29   14   17 1
    30   15   16 ar
    31   15   31 1
    32   16   32 1
    33   17   18 1
    34   18   33 1
    35   18   34 1
    36   18   35 1
@<TRIPOS>MOLECULE
ZINC13738655
   32    33     0     0     0
SMALL
USER_CHARGES
N-[2-(7-hydroxy-1-naphthyl)ethyl]acetamide
@<TRIPOS>ATOM
      1 C1          1.3172   -0.7397   -0.0145 C.3       1 <0>        -0.1718
      2 C2          0.0021   -0.0041    0.0020 C.2       1 <0>         0.5092
      3 O1         -1.0399   -0.6247    0.0086 O.2       1 <0>        -0.5455
      4 N1         -0.0162    1.3436    0.0094 N.am      1 <0>        -0.7335
      5 C3         -1.2947    2.0587    0.0194 C.3       1 <0>         0.1217
      6 C4         -1.0356    3.5666    0.0263 C.3       1 <0>        -0.0932
      7 C5         -2.3508    4.3023    0.0366 C.ar      1 <0>        -0.0746
      8 C6         -2.9006    4.7371   -1.1303 C.ar      1 <0>        -0.1026
      9 C7         -4.1180    5.4147   -1.1410 C.ar      1 <0>        -0.1162
     10 C8         -4.7879    5.6708    0.0162 C.ar      1 <0>        -0.1003
     11 C9         -4.2493    5.2422    1.2409 C.ar      1 <0>        -0.0604
     12 C10        -3.0131    4.5481    1.2514 C.ar      1 <0>        -0.0289
     13 C11        -2.4738    4.1187    2.4753 C.ar      1 <0>        -0.1399
     14 C12        -3.1459    4.3751    3.6361 C.ar      1 <0>         0.1136
     15 C13        -4.3652    5.0600    3.6232 C.ar      1 <0>        -0.1404
     16 C14        -4.9138    5.4888    2.4552 C.ar      1 <0>        -0.0858
     17 O2         -2.6231    3.9591    4.8194 O.3       1 <0>        -0.5003
     18 H1          2.1360   -0.0202   -0.0184 H         1 <0>         0.0761
     19 H2          1.3919   -1.3703    0.8714 H         1 <0>         0.0957
     20 H3          1.3749   -1.3607   -0.9084 H         1 <0>         0.0958
     21 H4          0.8172    1.8399    0.0041 H         1 <0>         0.4019
     22 H5         -1.8669    1.7925   -0.8694 H         1 <0>         0.0707
     23 H6         -1.8585    1.7828    0.9106 H         1 <0>         0.0699
     24 H7         -0.4634    3.8328    0.9151 H         1 <0>         0.0827
     25 H8         -0.4719    3.8425   -0.8648 H         1 <0>         0.0839
     26 H9         -2.3874    4.5505   -2.0621 H         1 <0>         0.1254
     27 H10        -4.5344    5.7454   -2.0810 H         1 <0>         0.1263
     28 H11        -5.7288    6.2003   -0.0073 H         1 <0>         0.1294
     29 H12        -1.5332    3.5886    2.4980 H         1 <0>         0.1336
     30 H13        -4.8782    5.2514    4.5541 H         1 <0>         0.1310
     31 H14        -5.8562    6.0162    2.4602 H         1 <0>         0.1337
     32 H15        -2.9020    3.0713    5.0823 H         1 <0>         0.3928
@<TRIPOS>BOND
     1    1    2 1
     2    1   18 1
     3    1   19 1
     4    1   20 1
     5    2    3 2
     6    2    4 am
     7    4    5 1
     8    4   21 1
     9    5    6 1
    10    5   22 1
    11    5   23 1
    12    6    7 1
    13    6   24 1
    14    6   25 1
    15    7   12 ar
    16    7    8 ar
    17    8    9 ar
    18    8   26 1
    19    9   10 ar
    20    9   27 1
    21   10   11 ar
    22   10   28 1
    23   11   16 ar
    24   11   12 ar
    25   12   13 ar
    26   13   14 ar
    27   13   29 1
    28   14   15 ar
    29   14   17 1
    30   15   16 ar
    31   15   30 1
    32   16   31 1
    33   17   32 1
@<TRIPOS>MOLECULE
ZINC03960338
   40    42     0     0     0
SMALL
USER_CHARGES

@<TRIPOS>ATOM
      1 C1         -0.0187    1.5258    0.0104 C.3       1 <0>        -0.1387
      2 C2          0.0021   -0.0041    0.0020 C.3       1 <0>        -0.1449
      3 C3         -1.4117   -0.5257    0.0127 C.2       1 <0>         0.5093
      4 O1         -2.3441    0.2498    0.0258 O.2       1 <0>        -0.5386
      5 N1         -1.6400   -1.8540    0.0078 N.am      1 <0>        -0.7350
      6 C4         -3.0144   -2.3611    0.0182 C.3       1 <0>         0.1170
      7 C5         -2.9937   -3.8909    0.0097 C.3       1 <0>        -0.1182
      8 C6         -4.4290   -4.4205    0.0206 C.3       1 <0>        -0.0444
      9 H1         -4.9976   -3.9869   -0.8021 H         1 <0>         0.0843
     10 C7         -5.1081   -4.0990    1.3687 C.3       1 <0>        -0.1209
     11 C8         -4.8222   -5.3706    2.1955 C.3       1 <0>        -0.0770
     12 C9         -4.6587   -6.4773    1.1763 C.ar      1 <0>        -0.1212
     13 C10        -4.4322   -5.9313   -0.0776 C.ar      1 <0>        -0.0444
     14 C11        -4.2565   -6.7602   -1.1667 C.ar      1 <0>        -0.1576
     15 C12        -4.2932   -8.1409   -1.0282 C.ar      1 <0>         0.1040
     16 C13        -4.5240   -8.6833    0.2332 C.ar      1 <0>        -0.1354
     17 C14        -4.7052   -7.8529    1.3263 C.ar      1 <0>        -0.0731
     18 O2         -4.0739   -8.7621   -2.2196 O.3       1 <0>        -0.3042
     19 C15        -4.3201   -7.8336   -3.2895 C.3       1 <0>         0.0508
     20 C16        -4.0117   -6.4665   -2.6342 C.3       1 <0>        -0.1107
     21 H2          1.0039    1.9031    0.0027 H         1 <0>         0.0622
     22 H3         -0.5459    1.8868   -0.8726 H         1 <0>         0.0616
     23 H4         -0.5289    1.8773    0.9072 H         1 <0>         0.0618
     24 H5          0.5123   -0.3556   -0.8948 H         1 <0>         0.0930
     25 H6          0.5293   -0.3651    0.8851 H         1 <0>         0.0932
     26 H7         -0.8943   -2.4742   -0.0027 H         1 <0>         0.4010
     27 H8         -3.5246   -2.0095    0.9150 H         1 <0>         0.0713
     28 H9         -3.5416   -2.0000   -0.8649 H         1 <0>         0.0679
     29 H10        -2.4835   -4.2424   -0.8870 H         1 <0>         0.0713
     30 H11        -2.4665   -4.2520    0.8928 H         1 <0>         0.0737
     31 H12        -4.6526   -3.2244    1.8331 H         1 <0>         0.0820
     32 H13        -6.1806   -3.9551    1.2377 H         1 <0>         0.0765
     33 H14        -3.9051   -5.2487    2.7718 H         1 <0>         0.0793
     34 H15        -5.6602   -5.5874    2.8580 H         1 <0>         0.0766
     35 H16        -4.5616   -9.7551    0.3602 H         1 <0>         0.1308
     36 H17        -4.8851   -8.2793    2.3021 H         1 <0>         0.1310
     37 H18        -3.6473   -8.0214   -4.1262 H         1 <0>         0.1074
     38 H19        -5.3606   -7.8819   -3.6108 H         1 <0>         0.0779
     39 H20        -4.6942   -5.6979   -2.9968 H         1 <0>         0.0910
     40 H21        -2.9749   -6.1773   -2.8060 H         1 <0>         0.0895
@<TRIPOS>BOND
     1    1    2 1
     2    1   21 1
     3    1   22 1
     4    1   23 1
     5    2    3 1
     6    2   24 1
     7    2   25 1
     8    3    4 2
     9    3    5 am
    10    5    6 1
    11    5   26 1
    12    6    7 1
    13    6   27 1
    14    6   28 1
    15    7    8 1
    16    7   29 1
    17    7   30 1
    18    8    9 1
    19    8   13 1
    20    8   10 1
    21   10   11 1
    22   10   31 1
    23   10   32 1
    24   11   12 1
    25   11   33 1
    26   11   34 1
    27   12   17 ar
    28   12   13 ar
    29   13   14 ar
    30   14   20 1
    31   14   15 ar
    32   15   16 ar
    33   15   18 1
    34   16   17 ar
    35   16   35 1
    36   17   36 1
    37   18   19 1
    38   19   20 1
    39   19   37 1
    40   19   38 1
    41   20   39 1
    42   20   40 1
@<TRIPOS>MOLECULE
ZINC58245446
   26    26     0     0     0
SMALL
USER_CHARGES

@<TRIPOS>ATOM
      1 C1         -0.0184    1.5028    0.0103 C.3       1 <0>        -0.1742
      2 C2          0.0021   -0.0041    0.0020 C.2       1 <0>         0.5114
      3 O1          1.0605   -0.5961   -0.0113 O.2       1 <0>        -0.5404
      4 N1         -1.1558   -0.6938    0.0094 N.am      1 <0>        -0.7325
      5 C3         -1.1360   -2.1586    0.0013 C.3       1 <0>         0.1348
      6 C4         -2.5713   -2.6882    0.0122 C.3       1 <0>        -0.1283
      7 S1         -2.5467   -4.5020    0.0022 S.3       1 <0>        -0.0914
      8 C5         -4.2504   -4.9515    0.0161 C.ar      1 <0>        -0.0858
      9 C6         -5.2306   -3.9664    0.0250 C.ar      1 <0>        -0.1347
     10 C7         -6.5647   -4.3224    0.0358 C.ar      1 <0>        -0.1001
     11 C8         -6.9259   -5.6574    0.0379 C.ar      1 <0>        -0.1234
     12 C9         -5.9532   -6.6405    0.0295 C.ar      1 <0>        -0.0993
     13 C10        -4.6172   -6.2920    0.0124 C.ar      1 <0>        -0.0989
     14 H1          1.0042    1.8801    0.0026 H         1 <0>         0.0949
     15 H2         -0.5455    1.8639   -0.8728 H         1 <0>         0.0895
     16 H3         -0.5286    1.8543    0.9071 H         1 <0>         0.0895
     17 H4         -2.0023   -0.2203    0.0200 H         1 <0>         0.4026
     18 H5         -0.6258   -2.5101   -0.8955 H         1 <0>         0.0802
     19 H6         -0.6088   -2.5197    0.8844 H         1 <0>         0.0803
     20 H7         -3.0815   -2.3367    0.9090 H         1 <0>         0.0959
     21 H8         -3.0985   -2.3271   -0.8709 H         1 <0>         0.0958
     22 H9         -4.9493   -2.9237    0.0237 H         1 <0>         0.1216
     23 H10        -7.3270   -3.5574    0.0431 H         1 <0>         0.1265
     24 H11        -7.9702   -5.9329    0.0464 H         1 <0>         0.1266
     25 H12        -6.2389   -7.6820    0.0315 H         1 <0>         0.1300
     26 H13        -3.8581   -7.0601    0.0006 H         1 <0>         0.1293
@<TRIPOS>BOND
     1    1    2 1
     2    1   14 1
     3    1   15 1
     4    1   16 1
     5    2    3 2
     6    2    4 am
     7    4    5 1
     8    4   17 1
     9    5    6 1
    10    5   18 1
    11    5   19 1
    12    6    7 1
    13    6   20 1
    14    6   21 1
    15    7    8 1
    16    8   13 ar
    17    8    9 ar
    18    9   10 ar
    19    9   22 1
    20   10   11 ar
    21   10   23 1
    22   11   12 ar
    23   11   24 1
    24   12   13 ar
    25   12   25 1
    26   13   26 1
@<TRIPOS>MOLECULE
ZINC02022527
   54    55     0     0     0
SMALL
USER_CHARGES

@<TRIPOS>ATOM
      1 C1         -3.0730    2.2881   -4.2693 C.3       1 <0>        -0.1569
      2 C2         -2.3049    1.5870   -3.1471 C.3       1 <0>        -0.1270
      3 C3         -2.8110    2.0874   -1.7927 C.3       1 <0>        -0.1231
      4 C4         -2.0429    1.3862   -0.6705 C.3       1 <0>        -0.1174
      5 C5         -2.5490    1.8867    0.6839 C.3       1 <0>        -0.1006
      6 C6         -2.2117    3.3722    0.8391 C.3       1 <0>        -0.1451
      7 C7         -2.6658    3.8518    2.2196 C.3       1 <0>        -0.0114
      8 C8         -2.3347    1.6429    3.1595 C.3       1 <0>        -0.0001
      9 C9         -1.8707    1.0973    1.8070 C.3       1 <0>        -0.1442
     10 C10        -2.2939    3.5901    4.5974 C.3       1 <0>        -0.0052
     11 C11        -2.1583    5.1140    4.5919 C.3       1 <0>        -0.1459
     12 C12        -2.4764    5.6593    5.9856 C.3       1 <0>        -0.1543
     13 C13        -2.3428    7.1604    5.9803 C.2       1 <0>         0.3987
     14 O1         -2.0245    7.7371    4.9623 O.2       1 <0>        -0.4456
     15 C14        -2.5986    7.9263    7.2106 C.ar      1 <0>        -0.1885
     16 C15        -3.0878    7.2813    8.3513 C.ar      1 <0>        -0.0705
     17 C16        -3.3195    8.0047    9.5018 C.ar      1 <0>        -0.1389
     18 C17        -3.0801    9.3679    9.5265 C.ar      1 <0>        -0.0729
     19 C18        -2.6016   10.0143    8.4004 C.ar      1 <0>        -0.1345
     20 C19        -2.3594    9.3036    7.2436 C.ar      1 <0>        -0.0178
     21 C20        -1.8387   10.0095    6.0182 C.3       1 <0>        -0.1264
     22 H1         -4.1363    2.0676   -4.1746 H         1 <0>         0.0549
     23 H2         -2.9175    3.3647   -4.1985 H         1 <0>         0.0540
     24 H3         -2.7125    1.9316   -5.2342 H         1 <0>         0.0581
     25 H4         -1.2417    1.8075   -3.2417 H         1 <0>         0.0621
     26 H5         -2.4605    0.5104   -3.2179 H         1 <0>         0.0631
     27 H6         -3.8743    1.8669   -1.6981 H         1 <0>         0.0644
     28 H7         -2.6555    3.1639   -1.7219 H         1 <0>         0.0632
     29 H8         -2.1984    0.3097   -0.7413 H         1 <0>         0.0733
     30 H9         -0.9796    1.6067   -0.7651 H         1 <0>         0.0688
     31 H10        -3.6287    1.7492    0.7427 H         1 <0>         0.0884
     32 H11        -1.1354    3.5132    0.7407 H         1 <0>         0.0881
     33 H12        -2.7264    3.9447    0.0675 H         1 <0>         0.1133
     34 H13        -3.7442    3.7233    2.3122 H         1 <0>         0.1295
     35 H14        -2.4142    4.9057    2.3388 H         1 <0>         0.1342
     36 H15        -3.4146    1.5248    3.2476 H         1 <0>         0.1293
     37 H16        -1.8426    1.0924    3.9613 H         1 <0>         0.1282
     38 H17        -2.1418    0.0446    1.7270 H         1 <0>         0.1118
     39 H18        -0.7890    1.2025    1.7239 H         1 <0>         0.0880
     40 H19        -3.3133    3.3170    4.8704 H         1 <0>         0.1315
     41 H20        -1.5979    3.1659    5.3211 H         1 <0>         0.1302
     42 H21        -1.1389    5.3871    4.3190 H         1 <0>         0.0944
     43 H22        -2.8542    5.5382    3.8682 H         1 <0>         0.0968
     44 H23        -3.4115    5.4088    6.2361 H         1 <0>         0.0981
     45 H24        -1.7805    5.2352    6.7093 H         1 <0>         0.1100
     46 H25        -3.2793    6.2186    8.3321 H         1 <0>         0.1290
     47 H26        -3.6933    7.5074   10.3846 H         1 <0>         0.1322
     48 H27        -3.2682    9.9300   10.4293 H         1 <0>         0.1326
     49 H28        -2.4176   11.0782    8.4274 H         1 <0>         0.1332
     50 H29        -2.6709   10.2515    5.3572 H         1 <0>         0.0784
     51 H30        -1.3321   10.9277    6.3156 H         1 <0>         0.0652
     52 H31        -1.1365    9.3600    5.4956 H         1 <0>         0.0893
     53 N1         -1.9588    3.0696    3.2558 N.4       1 <0>        -0.3931
     54 H32        -0.9467    3.1581    3.1071 H         1 <0>         0.4272
@<TRIPOS>BOND
     1    1    2 1
     2    1   22 1
     3    1   23 1
     4    1   24 1
     5    2    3 1
     6    2   25 1
     7    2   26 1
     8    3    4 1
     9    3   27 1
    10    3   28 1
    11    4    5 1
    12    4   29 1
    13    4   30 1
    14    5    9 1
    15    5    6 1
    16    5   31 1
    17    6    7 1
    18    6   32 1
    19    6   33 1
    20    7   34 1
    21    7   35 1
    22    7   53 1
    23    8    9 1
    24    8   36 1
    25    8   37 1
    26    8   53 1
    27    9   38 1
    28    9   39 1
    29   10   11 1
    30   10   40 1
    31   10   41 1
    32   10   53 1
    33   11   12 1
    34   11   42 1
    35   11   43 1
    36   12   13 1
    37   12   44 1
    38   12   45 1
    39   13   14 2
    40   13   15 1
    41   15   20 ar
    42   15   16 ar
    43   16   17 ar
    44   16   46 1
    45   17   18 ar
    46   17   47 1
    47   18   19 ar
    48   18   48 1
    49   19   20 ar
    50   19   49 1
    51   20   21 1
    52   21   50 1
    53   21   51 1
    54   21   52 1
    55   53   54 1
@<TRIPOS>MOLECULE
ZINC13491249
   37    38     0     0     0
SMALL
USER_CHARGES
N-[(2E)-2-(6-methoxyindan-1-ylidene)ethyl]propanamide
@<TRIPOS>ATOM
      1 C1          9.8308   -3.1084   -2.6082 C.3       1 <0>        -0.1387
      2 C2          8.7496   -2.0260   -2.5914 C.3       1 <0>        -0.1444
      3 C3          7.8292   -2.2535   -1.4200 C.2       1 <0>         0.5097
      4 O1          8.0193   -3.1893   -0.6722 O.2       1 <0>        -0.5392
      5 N1          6.7948   -1.4172   -1.2034 N.am      1 <0>        -0.7307
      6 C4          5.9000   -1.6384   -0.0647 C.3       1 <0>         0.1510
      7 C5          4.8350   -0.5722   -0.0481 C.2       1 <0>        -0.1606
      8 C6          3.5545   -0.9147   -0.0379 C.2       1 <0>        -0.0567
      9 C7          3.0125   -2.3236   -0.0406 C.3       1 <0>        -0.0946
     10 C8          1.4856   -2.1712   -0.0248 C.3       1 <0>        -0.0778
     11 C9          1.2045   -0.6876   -0.0136 C.ar      1 <0>        -0.1173
     12 C10         2.4054    0.0166   -0.0214 C.ar      1 <0>        -0.0351
     13 C11         2.3829    1.4159   -0.0132 C.ar      1 <0>        -0.1295
     14 C12         1.1748    2.0893    0.0021 C.ar      1 <0>         0.1249
     15 C13        -0.0167    1.3773    0.0096 C.ar      1 <0>        -0.1966
     16 C14         0.0021   -0.0041    0.0020 C.ar      1 <0>        -0.0699
     17 O2          1.1544    3.4482    0.0091 O.3       1 <0>        -0.3174
     18 C15        -0.1284    4.0777    0.0244 C.3       1 <0>         0.0268
     19 H1         10.4966   -2.9438   -3.4554 H         1 <0>         0.0622
     20 H2         10.4037   -3.0641   -1.6819 H         1 <0>         0.0618
     21 H3          9.3625   -4.0884   -2.6991 H         1 <0>         0.0617
     22 H4          8.1767   -2.0703   -3.5176 H         1 <0>         0.0934
     23 H5          9.2180   -1.0460   -2.5004 H         1 <0>         0.0936
     24 H6          6.6427   -0.6687   -1.8014 H         1 <0>         0.4025
     25 H7          6.4729   -1.5940    0.8616 H         1 <0>         0.0789
     26 H8          5.4316   -2.6184   -0.1556 H         1 <0>         0.0753
     27 H9          5.1151    0.4708   -0.0445 H         1 <0>         0.1242
     28 H10         3.3304   -2.8488   -0.9414 H         1 <0>         0.0868
     29 H11         3.3492   -2.8595    0.8468 H         1 <0>         0.0878
     30 H12         1.0725   -2.6369    0.8700 H         1 <0>         0.0824
     31 H13         1.0551   -2.6267   -0.9167 H         1 <0>         0.0818
     32 H14         3.3097    1.9704   -0.0191 H         1 <0>         0.1298
     33 H15        -0.9596    1.9038    0.0169 H         1 <0>         0.1322
     34 H16        -0.9277   -0.5535    0.0080 H         1 <0>         0.1271
     35 H17        -0.0019    5.1603    0.0287 H         1 <0>         0.1020
     36 H18        -0.6893    3.7810   -0.8619 H         1 <0>         0.0564
     37 H19        -0.6726    3.7719    0.9179 H         1 <0>         0.0565
@<TRIPOS>BOND
     1    1    2 1
     2    1   19 1
     3    1   20 1
     4    1   21 1
     5    2    3 1
     6    2   22 1
     7    2   23 1
     8    3    4 2
     9    3    5 am
    10    5    6 1
    11    5   24 1
    12    6    7 1
    13    6   25 1
    14    6   26 1
    15    7    8 2
    16    7   27 1
    17    8   12 1
    18    8    9 1
    19    9   10 1
    20    9   28 1
    21    9   29 1
    22   10   11 1
    23   10   30 1
    24   10   31 1
    25   11   16 ar
    26   11   12 ar
    27   12   13 ar
    28   13   14 ar
    29   13   32 1
    30   14   15 ar
    31   14   17 1
    32   15   16 ar
    33   15   33 1
    34   16   34 1
    35   17   18 1
    36   18   35 1
    37   18   36 1
    38   18   37 1
@<TRIPOS>MOLECULE
ZINC00007031
   40    42     0     0     0
SMALL
USER_CHARGES

@<TRIPOS>ATOM
      1 C1         -0.0187    1.5258    0.0104 C.3       1 <0>        -0.1388
      2 C2          0.0021   -0.0041    0.0020 C.3       1 <0>        -0.1448
      3 C3         -1.4117   -0.5257    0.0127 C.2       1 <0>         0.5091
      4 O1         -2.3441    0.2498    0.0258 O.2       1 <0>        -0.5383
      5 N1         -1.6400   -1.8540    0.0078 N.am      1 <0>        -0.7353
      6 C4         -3.0144   -2.3611    0.0182 C.3       1 <0>         0.1175
      7 C5         -2.9937   -3.8909    0.0097 C.3       1 <0>        -0.1264
      8 C6         -4.4290   -4.4205    0.0206 C.3       1 <0>        -0.0446
      9 H1         -4.9818   -3.9958    0.8586 H         1 <0>         0.0919
     10 C7         -5.1337   -4.0846   -1.3108 C.3       1 <0>        -0.1180
     11 C8         -6.0440   -5.3128   -1.5231 C.3       1 <0>        -0.0779
     12 C9         -5.3594   -6.4450   -0.7884 C.ar      1 <0>        -0.1225
     13 C10        -4.4305   -5.9323    0.1027 C.ar      1 <0>        -0.0437
     14 C11        -3.6827   -6.7893    0.8838 C.ar      1 <0>        -0.1583
     15 C12        -3.8521   -8.1646    0.8008 C.ar      1 <0>         0.1042
     16 C13        -4.7862   -8.6730   -0.0978 C.ar      1 <0>        -0.1359
     17 C14        -5.5304   -7.8154   -0.8872 C.ar      1 <0>        -0.0722
     18 O2         -3.0335   -8.8159    1.6721 O.3       1 <0>        -0.3039
     19 C15        -1.9638   -7.9379    2.0624 C.3       1 <0>         0.0509
     20 C16        -2.6011   -6.5357    1.9162 C.3       1 <0>        -0.1128
     21 H2          1.0039    1.9031    0.0027 H         1 <0>         0.0622
     22 H3         -0.5459    1.8868   -0.8726 H         1 <0>         0.0618
     23 H4         -0.5289    1.8773    0.9072 H         1 <0>         0.0617
     24 H5          0.5123   -0.3556   -0.8948 H         1 <0>         0.0931
     25 H6          0.5293   -0.3651    0.8851 H         1 <0>         0.0929
     26 H7         -0.8943   -2.4742   -0.0027 H         1 <0>         0.4004
     27 H8         -3.5246   -2.0095    0.9150 H         1 <0>         0.0678
     28 H9         -3.5416   -2.0000   -0.8649 H         1 <0>         0.0704
     29 H10        -2.4835   -4.2424   -0.8870 H         1 <0>         0.0731
     30 H11        -2.4665   -4.2520    0.8928 H         1 <0>         0.0738
     31 H12        -5.7264   -3.1747   -1.2166 H         1 <0>         0.0806
     32 H13        -4.4095   -3.9945   -2.1204 H         1 <0>         0.0757
     33 H14        -7.0314   -5.1295   -1.0995 H         1 <0>         0.0810
     34 H15        -6.1243   -5.5450   -2.5851 H         1 <0>         0.0765
     35 H16        -4.9285   -9.7404   -0.1808 H         1 <0>         0.1308
     36 H17        -6.2530   -8.2160   -1.5827 H         1 <0>         0.1310
     37 H18        -1.6701   -8.1226    3.0957 H         1 <0>         0.1071
     38 H19        -1.1111   -8.0463    1.3922 H         1 <0>         0.0774
     39 H20        -1.8727   -5.8133    1.5479 H         1 <0>         0.0918
     40 H21        -3.0337   -6.2040    2.8601 H         1 <0>         0.0904
@<TRIPOS>BOND
     1    1    2 1
     2    1   21 1
     3    1   22 1
     4    1   23 1
     5    2    3 1
     6    2   24 1
     7    2   25 1
     8    3    4 2
     9    3    5 am
    10    5    6 1
    11    5   26 1
    12    6    7 1
    13    6   27 1
    14    6   28 1
    15    7    8 1
    16    7   29 1
    17    7   30 1
    18    8    9 1
    19    8   13 1
    20    8   10 1
    21   10   11 1
    22   10   31 1
    23   10   32 1
    24   11   12 1
    25   11   33 1
    26   11   34 1
    27   12   17 ar
    28   12   13 ar
    29   13   14 ar
    30   14   20 1
    31   14   15 ar
    32   15   16 ar
    33   15   18 1
    34   16   17 ar
    35   16   35 1
    36   17   36 1
    37   18   19 1
    38   19   20 1
    39   19   37 1
    40   19   38 1
    41   20   39 1
    42   20   40 1
@<TRIPOS>MOLECULE
ZINC13491250
   37    38     0     0     0
SMALL
USER_CHARGES
N-[(2Z)-2-(6-methoxyindan-1-ylidene)ethyl]propanamide
@<TRIPOS>ATOM
      1 C1         -5.3960    0.4066    1.6875 C.3       1 <0>        -0.1387
      2 C2         -4.3998   -0.0674    2.7476 C.3       1 <0>        -0.1438
      3 C3         -3.2746    0.9286    2.8606 C.2       1 <0>         0.5086
      4 O1         -3.2699    1.9200    2.1620 O.2       1 <0>        -0.5373
      5 N1         -2.2735    0.7178    3.7380 N.am      1 <0>        -0.7302
      6 C4         -1.1796    1.6861    3.8478 C.3       1 <0>         0.1291
      7 C5         -0.1984    1.2192    4.8920 C.2       1 <0>        -0.1579
      8 C6          0.3019    2.0827    5.7645 C.2       1 <0>        -0.0637
      9 C7          1.1374    1.7389    6.9739 C.3       1 <0>        -0.0884
     10 C8          1.4592    3.0833    7.6403 C.3       1 <0>        -0.0775
     11 C9          0.7937    4.1468    6.7999 C.ar      1 <0>        -0.1193
     12 C10         0.1344    3.5519    5.7277 C.ar      1 <0>        -0.0373
     13 C11        -0.5557    4.3550    4.8127 C.ar      1 <0>        -0.1454
     14 C12        -0.5790    5.7283    4.9760 C.ar      1 <0>         0.1275
     15 C13         0.0821    6.3111    6.0483 C.ar      1 <0>        -0.1976
     16 C14         0.7635    5.5211    6.9539 C.ar      1 <0>        -0.0697
     17 O2         -1.2489    6.5072    4.0861 O.3       1 <0>        -0.3148
     18 C15        -1.2307    7.9174    4.3159 C.3       1 <0>         0.0266
     19 H1         -4.8897    0.4934    0.7262 H         1 <0>         0.0618
     20 H2         -6.2099   -0.3139    1.6058 H         1 <0>         0.0620
     21 H3         -5.7982    1.3779    1.9754 H         1 <0>         0.0618
     22 H4         -4.9061   -0.1542    3.7090 H         1 <0>         0.0932
     23 H5         -3.9977   -1.0388    2.4598 H         1 <0>         0.0933
     24 H6         -2.2773   -0.0752    4.2967 H         1 <0>         0.4012
     25 H7         -0.6733    1.7729    2.8865 H         1 <0>         0.0779
     26 H8         -1.5818    2.6574    4.1357 H         1 <0>         0.0939
     27 H9          0.0971    0.1811    4.9295 H         1 <0>         0.1290
     28 H10         0.5718    1.1034    7.6553 H         1 <0>         0.0877
     29 H11         2.0577    1.2412    6.6681 H         1 <0>         0.0856
     30 H12         2.5369    3.2448    7.6630 H         1 <0>         0.0817
     31 H13         1.0573    3.1014    8.6534 H         1 <0>         0.0814
     32 H14        -1.0699    3.9021    3.9779 H         1 <0>         0.1461
     33 H15         0.0634    7.3835    6.1752 H         1 <0>         0.1321
     34 H16         1.2760    5.9793    7.7868 H         1 <0>         0.1267
     35 H17        -1.8012    8.4202    3.5350 H         1 <0>         0.1022
     36 H18        -1.6760    8.1331    5.2872 H         1 <0>         0.0560
     37 H19        -0.2011    8.2748    4.3009 H         1 <0>         0.0563
@<TRIPOS>BOND
     1    1    2 1
     2    1   19 1
     3    1   20 1
     4    1   21 1
     5    2    3 1
     6    2   22 1
     7    2   23 1
     8    3    4 2
     9    3    5 am
    10    5    6 1
    11    5   24 1
    12    6    7 1
    13    6   25 1
    14    6   26 1
    15    7    8 2
    16    7   27 1
    17    8   12 1
    18    8    9 1
    19    9   10 1
    20    9   28 1
    21    9   29 1
    22   10   11 1
    23   10   30 1
    24   10   31 1
    25   11   16 ar
    26   11   12 ar
    27   12   13 ar
    28   13   14 ar
    29   13   32 1
    30   14   15 ar
    31   14   17 1
    32   15   16 ar
    33   15   33 1
    34   16   34 1
    35   17   18 1
    36   18   35 1
    37   18   36 1
    38   18   37 1
@<TRIPOS>MOLECULE
ZINC02568228
   43    45     0     0     0
SMALL
USER_CHARGES

@<TRIPOS>ATOM
      1 C1         -0.1884    1.1328   -6.0867 C.3       1 <0>        -0.1734
      2 C2         -0.1745   -0.3623   -5.8979 C.2       1 <0>         0.5083
      3 O1         -0.2377   -1.0958   -6.8617 O.2       1 <0>        -0.5462
      4 N1         -0.0918   -0.8842   -4.6581 N.am      1 <0>        -0.7322
      5 C3         -0.0783   -2.3376   -4.4745 C.3       1 <0>         0.1239
      6 C4          0.0208   -2.6624   -2.9827 C.3       1 <0>        -0.0569
      7 C5         -0.0870   -4.1525   -2.7847 C.2       1 <0>        -0.1548
      8 C6          1.0228   -5.0959   -2.6597 C.ar      1 <0>        -0.0582
      9 C7          2.4144   -4.9596   -2.6782 C.ar      1 <0>        -0.1108
     10 C8          3.2110   -6.0767   -2.5300 C.ar      1 <0>         0.1028
     11 C9          2.6341   -7.3333   -2.3629 C.ar      1 <0>        -0.1751
     12 C10         1.2649   -7.4801   -2.3435 C.ar      1 <0>        -0.0889
     13 C11         0.4435   -6.3674   -2.4907 C.ar      1 <0>         0.0733
     14 N2         -0.9260   -6.2025   -2.5122 N.pl3     1 <0>        -0.5868
     15 H1         -1.5755   -6.9165   -2.4167 H         1 <0>         0.4164
     16 C12        -1.2318   -4.8722   -2.6828 C.2       1 <0>         0.1382
     17 C13        -2.5994   -4.3132   -2.7490 C.ar      1 <0>        -0.0381
     18 C14        -2.9343   -3.1892   -1.9929 C.ar      1 <0>        -0.0938
     19 C15        -4.2117   -2.6723   -2.0594 C.ar      1 <0>        -0.1167
     20 C16        -5.1598   -3.2660   -2.8736 C.ar      1 <0>        -0.1098
     21 C17        -4.8343   -4.3809   -3.6254 C.ar      1 <0>        -0.1162
     22 C18        -3.5588   -4.9041   -3.5723 C.ar      1 <0>        -0.1043
     23 O2          4.5649   -5.9501   -2.5476 O.3       1 <0>        -0.3185
     24 C19         5.3304   -7.1462   -2.3889 C.3       1 <0>         0.0279
     25 H2         -1.2171    1.4923   -6.0643 H         1 <0>         0.0932
     26 H3          0.3793    1.6055   -5.2852 H         1 <0>         0.0798
     27 H4          0.2627    1.3819   -7.0472 H         1 <0>         0.0931
     28 H5         -0.0413   -0.2976   -3.8872 H         1 <0>         0.4005
     29 H6         -0.9967   -2.7634   -4.8788 H         1 <0>         0.0665
     30 H7          0.7794   -2.7618   -4.9965 H         1 <0>         0.0687
     31 H8          0.9789   -2.3131   -2.5977 H         1 <0>         0.0798
     32 H9         -0.7886   -2.1654   -2.4481 H         1 <0>         0.0789
     33 H10         2.8631   -3.9858   -2.8080 H         1 <0>         0.1309
     34 H11         3.2666   -8.2011   -2.2478 H         1 <0>         0.1328
     35 H12         0.8289   -8.4596   -2.2141 H         1 <0>         0.1250
     36 H13        -2.1952   -2.7251   -1.3567 H         1 <0>         0.1296
     37 H14        -4.4723   -1.8026   -1.4745 H         1 <0>         0.1282
     38 H15        -6.1584   -2.8575   -2.9222 H         1 <0>         0.1256
     39 H16        -5.5791   -4.8398   -4.2588 H         1 <0>         0.1268
     40 H17        -3.3047   -5.7717   -4.1630 H         1 <0>         0.1223
     41 H18         5.0907   -7.8406   -3.1942 H         1 <0>         0.0543
     42 H19         6.3928   -6.9047   -2.4217 H         1 <0>         0.0995
     43 H20         5.0917   -7.6058   -1.4298 H         1 <0>         0.0542
@<TRIPOS>BOND
     1    1    2 1
     2    1   25 1
     3    1   26 1
     4    1   27 1
     5    2    3 2
     6    2    4 am
     7    4    5 1
     8    4   28 1
     9    5    6 1
    10    5   29 1
    11    5   30 1
    12    6    7 1
    13    6   31 1
    14    6   32 1
    15    7   16 2
    16    7    8 1
    17    8   13 ar
    18    8    9 ar
    19    9   10 ar
    20    9   33 1
    21   10   11 ar
    22   10   23 1
    23   11   12 ar
    24   11   34 1
    25   12   13 ar
    26   12   35 1
    27   13   14 1
    28   14   15 1
    29   14   16 1
    30   16   17 1
    31   17   22 ar
    32   17   18 ar
    33   18   19 ar
    34   18   36 1
    35   19   20 ar
    36   19   37 1
    37   20   21 ar
    38   20   38 1
    39   21   22 ar
    40   21   39 1
    41   22   40 1
    42   23   24 1
    43   24   41 1
    44   24   42 1
    45   24   43 1
@<TRIPOS>MOLECULE
ZINC71319387
   35    37     0     0     0
SMALL
USER_CHARGES

@<TRIPOS>ATOM
      1 C1         -0.0184    1.5028    0.0103 C.3       1 <0>        -0.1751
      2 C2          0.0021   -0.0041    0.0020 C.2       1 <0>         0.5095
      3 O1          1.0605   -0.5961   -0.0113 O.2       1 <0>        -0.5426
      4 N1         -1.1558   -0.6938    0.0094 N.am      1 <0>        -0.7335
      5 C3         -1.1360   -2.1586    0.0013 C.3       1 <0>         0.1265
      6 C4         -2.5713   -2.6882    0.0122 C.3       1 <0>        -0.0939
      7 C5         -2.5509   -4.1950    0.0039 C.2       1 <0>        -0.0368
      8 C6         -2.6311   -4.9505    1.0867 C.2       1 <0>        -0.1297
      9 C7         -2.5775   -6.3986    0.6589 C.3       1 <0>        -0.0393
     10 C8         -2.4539   -6.3699   -0.8446 C.ar      1 <0>        -0.1164
     11 C9         -2.4452   -5.0213   -1.2130 C.ar      1 <0>        -0.0242
     12 C10        -2.3469   -4.6892   -2.5613 C.ar      1 <0>        -0.1430
     13 C11        -2.2534   -5.6758   -3.5304 C.ar      1 <0>         0.1064
     14 C12        -2.2712   -7.0142   -3.1407 C.ar      1 <0>        -0.1232
     15 C13        -2.3648   -7.3513   -1.8035 C.ar      1 <0>        -0.0635
     16 O2         -2.1428   -5.1341   -4.7753 O.3       1 <0>        -0.3015
     17 C14        -2.6021   -3.7722   -4.7415 C.3       1 <0>         0.0513
     18 C15        -2.3222   -3.3538   -3.2786 C.3       1 <0>        -0.1127
     19 Br1        -2.7854   -4.3255    2.8647 Br        1 <0>        -0.0152
     20 H1          1.0042    1.8801    0.0026 H         1 <0>         0.0934
     21 H2         -0.5455    1.8639   -0.8728 H         1 <0>         0.0885
     22 H3         -0.5286    1.8543    0.9071 H         1 <0>         0.0889
     23 H4         -2.0023   -0.2203    0.0200 H         1 <0>         0.4018
     24 H5         -0.6258   -2.5101   -0.8955 H         1 <0>         0.0698
     25 H6         -0.6088   -2.5197    0.8844 H         1 <0>         0.0717
     26 H7         -3.0815   -2.3367    0.9090 H         1 <0>         0.0893
     27 H8         -3.0985   -2.3271   -0.8709 H         1 <0>         0.0858
     28 H9         -1.7101   -6.8901    1.0994 H         1 <0>         0.1102
     29 H10        -3.4927   -6.9127    0.9525 H         1 <0>         0.1097
     30 H11        -2.2052   -7.7919   -3.8872 H         1 <0>         0.1363
     31 H12        -2.3798   -8.3909   -1.5113 H         1 <0>         0.1377
     32 H13        -2.0319   -3.1548   -5.4357 H         1 <0>         0.1091
     33 H14        -3.6684   -3.7185   -4.9614 H         1 <0>         0.0794
     34 H15        -3.1067   -2.6960   -2.9046 H         1 <0>         0.0920
     35 H16        -1.3440   -2.8814   -3.1889 H         1 <0>         0.0930
@<TRIPOS>BOND
     1    1    2 1
     2    1   20 1
     3    1   21 1
     4    1   22 1
     5    2    3 2
     6    2    4 am
     7    4    5 1
     8    4   23 1
     9    5    6 1
    10    5   24 1
    11    5   25 1
    12    6    7 1
    13    6   26 1
    14    6   27 1
    15    7   11 1
    16    7    8 2
    17    8    9 1
    18    8   19 1
    19    9   10 1
    20    9   28 1
    21    9   29 1
    22   10   15 ar
    23   10   11 ar
    24   11   12 ar
    25   12   18 1
    26   12   13 ar
    27   13   14 ar
    28   13   16 1
    29   14   15 ar
    30   14   30 1
    31   15   31 1
    32   16   17 1
    33   17   18 1
    34   17   32 1
    35   17   33 1
    36   18   34 1
    37   18   35 1
@<TRIPOS>MOLECULE
ZINC00024150
   37    38     0     0     0
SMALL
USER_CHARGES

@<TRIPOS>ATOM
      1 C1          1.5849   -2.1492   -1.5243 C.3       1 <0>        -0.1397
      2 C2          1.7828   -0.8700   -0.7086 C.3       1 <0>        -0.1424
      3 C3          0.4649   -0.1518   -0.5730 C.2       1 <0>         0.5098
      4 O1         -0.5344   -0.6173   -1.0789 O.2       1 <0>        -0.5196
      5 N1          0.3965    1.0078    0.1105 N.am      1 <0>        -0.6747
      6 C4         -0.8108    1.7160    0.1696 C.ar      1 <0>         0.1120
      7 C5         -0.8017    3.1044    0.1832 C.ar      1 <0>        -0.1057
      8 C6         -1.9922    3.8019    0.2351 C.ar      1 <0>        -0.1728
      9 C7         -3.1970    3.1156    0.2858 C.ar      1 <0>         0.1073
     10 C8         -3.2064    1.7281    0.2785 C.ar      1 <0>        -0.1233
     11 C9         -2.0168    1.0296    0.2203 C.ar      1 <0>        -0.0826
     12 O2         -4.3686    3.8028    0.3431 O.3       1 <0>        -0.2537
     13 C10        -4.3209    5.1558    0.2271 C.ar      1 <0>         0.1285
     14 C11        -4.6677    5.9582    1.3055 C.ar      1 <0>        -0.1592
     15 C12        -4.6142    7.3338    1.1896 C.ar      1 <0>        -0.0613
     16 C13        -4.2257    7.9146   -0.0027 C.ar      1 <0>        -0.2112
     17 C14        -3.8835    7.1170   -1.0853 C.ar      1 <0>         0.1451
     18 C15        -3.9312    5.7362   -0.9702 C.ar      1 <0>        -0.1769
     19 O3         -3.5024    7.6889   -2.2577 O.3       1 <0>        -0.3143
     20 C16        -3.4762    9.1169   -2.3047 C.3       1 <0>         0.0257
     21 H1          2.5381   -2.6687   -1.6224 H         1 <0>         0.0644
     22 H2          0.8690   -2.7962   -1.0173 H         1 <0>         0.0631
     23 H3          1.2066   -1.8941   -2.5142 H         1 <0>         0.0629
     24 H4          2.4987   -0.2230   -1.2155 H         1 <0>         0.0968
     25 H5          2.1611   -1.1251    0.2813 H         1 <0>         0.0969
     26 H6          1.1823    1.3500    0.5648 H         1 <0>         0.4113
     27 H7          0.1363    3.6387    0.1482 H         1 <0>         0.1300
     28 H8         -1.9854    4.8819    0.2409 H         1 <0>         0.1338
     29 H9         -4.1445    1.1944    0.3180 H         1 <0>         0.1379
     30 H10        -2.0243   -0.0503    0.2139 H         1 <0>         0.1473
     31 H11        -4.9756    5.5067    2.2370 H         1 <0>         0.1358
     32 H12        -4.8809    7.9564    2.0309 H         1 <0>         0.1363
     33 H13        -4.1887    8.9903   -0.0920 H         1 <0>         0.1344
     34 H14        -3.6656    5.1137   -1.8119 H         1 <0>         0.1386
     35 H15        -4.4738    9.5055   -2.0999 H         1 <0>         0.0583
     36 H16        -2.7792    9.4924   -1.5555 H         1 <0>         0.0578
     37 H17        -3.1557    9.4421   -3.2944 H         1 <0>         0.1033
@<TRIPOS>BOND
     1    1    2 1
     2    1   21 1
     3    1   22 1
     4    1   23 1
     5    2    3 1
     6    2   24 1
     7    2   25 1
     8    3    4 2
     9    3    5 am
    10    5    6 1
    11    5   26 1
    12    6   11 ar
    13    6    7 ar
    14    7    8 ar
    15    7   27 1
    16    8    9 ar
    17    8   28 1
    18    9   10 ar
    19    9   12 1
    20   10   11 ar
    21   10   29 1
    22   11   30 1
    23   12   13 1
    24   13   18 ar
    25   13   14 ar
    26   14   15 ar
    27   14   31 1
    28   15   16 ar
    29   15   32 1
    30   16   17 ar
    31   16   33 1
    32   17   18 ar
    33   17   19 1
    34   18   34 1
    35   19   20 1
    36   20   35 1
    37   20   36 1
    38   20   37 1
@<TRIPOS>MOLECULE
ZINC02511691
   56    59     0     0     0
SMALL
USER_CHARGES

@<TRIPOS>ATOM
      1 C1         -0.0187    1.5258    0.0104 C.3       1 <0>        -0.1537
      2 C2          0.0021   -0.0041    0.0020 C.3       1 <0>        -0.1103
      3 C3         -1.4333   -0.5336    0.0129 C.3       1 <0>        -0.1410
      4 C4         -1.4129   -2.0405    0.0046 C.2       1 <0>         0.5098
      5 O1         -0.3545   -2.6325   -0.0087 O.2       1 <0>        -0.5389
      6 N1         -2.5708   -2.7302    0.0119 N.am      1 <0>        -0.7339
      7 C5         -2.5509   -4.1950    0.0039 C.3       1 <0>         0.1256
      8 C6         -3.9863   -4.7246    0.0147 C.3       1 <0>        -0.0538
      9 C7         -3.9659   -6.2314    0.0065 C.2       1 <0>        -0.1497
     10 C8         -3.9588   -7.0948   -1.1611 C.ar      1 <0>        -0.0647
     11 C9         -3.9667   -6.8155   -2.5326 C.ar      1 <0>        -0.1026
     12 C10        -3.9515   -7.9056   -3.3901 C.ar      1 <0>         0.0970
     13 C11        -3.9301   -9.2109   -2.9135 C.ar      1 <0>        -0.1785
     14 C12        -3.9239   -9.5046   -1.5613 C.ar      1 <0>        -0.0920
     15 C13        -3.9401   -8.4284   -0.6763 C.ar      1 <0>         0.0826
     16 N2         -3.9463   -8.3712    0.6895 N.pl3     1 <0>        -0.4733
     17 C14        -3.9446   -7.0452    1.0823 C.2       1 <0>         0.1330
     18 C15        -3.9132   -6.6851    2.5193 C.ar      1 <0>        -0.0391
     19 C16        -4.7405   -5.7071    3.0540 C.ar      1 <0>        -0.0904
     20 C17        -4.7044   -5.4586    4.4133 C.ar      1 <0>        -0.1200
     21 C18        -3.8555   -6.1855    5.2294 C.ar      1 <0>        -0.1087
     22 C19        -3.0133   -7.1456    4.6944 C.ar      1 <0>        -0.1127
     23 C20        -3.0160   -7.3795    3.3372 C.ar      1 <0>        -0.0667
     24 C21        -2.0123   -8.2888    2.6943 C.3       1 <0>        -0.0865
     25 C22        -2.5848   -9.6560    2.3067 C.3       1 <0>        -0.1277
     26 C23        -3.9581   -9.4819    1.6394 C.3       1 <0>         0.1114
     27 O2         -3.9584   -7.6914   -4.7330 O.3       1 <0>        -0.3209
     28 C24        -3.9422   -8.8464   -5.5743 C.3       1 <0>         0.0279
     29 H1          1.0039    1.9031    0.0027 H         1 <0>         0.0581
     30 H2         -0.5459    1.8868   -0.8726 H         1 <0>         0.0547
     31 H3         -0.5289    1.8773    0.9072 H         1 <0>         0.0543
     32 H4          0.5123   -0.3556   -0.8948 H         1 <0>         0.0691
     33 H5          0.5293   -0.3651    0.8851 H         1 <0>         0.0686
     34 H6         -1.9435   -0.1821    0.9097 H         1 <0>         0.0926
     35 H7         -1.9605   -0.1726   -0.8702 H         1 <0>         0.0932
     36 H8         -3.4173   -2.2567    0.0226 H         1 <0>         0.4001
     37 H9         -2.0407   -4.5465   -0.8929 H         1 <0>         0.0688
     38 H10        -2.0237   -4.5561    0.8869 H         1 <0>         0.0654
     39 H11        -4.4965   -4.3731    0.9115 H         1 <0>         0.0769
     40 H12        -4.5135   -4.3635   -0.8683 H         1 <0>         0.0801
     41 H13        -3.9840   -5.8018   -2.9046 H         1 <0>         0.1373
     42 H14        -3.9181  -10.0247   -3.6234 H         1 <0>         0.1282
     43 H15        -3.9076  -10.5247   -1.2069 H         1 <0>         0.1294
     44 H16        -5.4059   -5.1461    2.4145 H         1 <0>         0.1294
     45 H17        -5.3399   -4.6962    4.8391 H         1 <0>         0.1277
     46 H18        -3.8496   -6.0019    6.2937 H         1 <0>         0.1251
     47 H19        -2.3564   -7.7099    5.3398 H         1 <0>         0.1264
     48 H20        -1.6274   -7.8046    1.7967 H         1 <0>         0.0753
     49 H21        -1.1849   -8.4408    3.3874 H         1 <0>         0.0770
     50 H22        -1.9037  -10.1501    1.6138 H         1 <0>         0.0762
     51 H23        -2.6953  -10.2687    3.2015 H         1 <0>         0.0839
     52 H24        -4.7121   -9.2898    2.4027 H         1 <0>         0.0851
     53 H25        -4.2139  -10.4001    1.1107 H         1 <0>         0.0893
     54 H26        -4.8220   -9.4566   -5.3706 H         1 <0>         0.0535
     55 H27        -3.9498   -8.5351   -6.6189 H         1 <0>         0.0985
     56 H28        -3.0423   -9.4283   -5.3751 H         1 <0>         0.0535
@<TRIPOS>BOND
     1    1    2 1
     2    1   29 1
     3    1   30 1
     4    1   31 1
     5    2    3 1
     6    2   32 1
     7    2   33 1
     8    3    4 1
     9    3   34 1
    10    3   35 1
    11    4    5 2
    12    4    6 am
    13    6    7 1
    14    6   36 1
    15    7    8 1
    16    7   37 1
    17    7   38 1
    18    8    9 1
    19    8   39 1
    20    8   40 1
    21    9   17 2
    22    9   10 1
    23   10   15 ar
    24   10   11 ar
    25   11   12 ar
    26   11   41 1
    27   12   13 ar
    28   12   27 1
    29   13   14 ar
    30   13   42 1
    31   14   15 ar
    32   14   43 1
    33   15   16 1
    34   16   26 1
    35   16   17 1
    36   17   18 1
    37   18   23 ar
    38   18   19 ar
    39   19   20 ar
    40   19   44 1
    41   20   21 ar
    42   20   45 1
    43   21   22 ar
    44   21   46 1
    45   22   23 ar
    46   22   47 1
    47   23   24 1
    48   24   25 1
    49   24   48 1
    50   24   49 1
    51   25   26 1
    52   25   50 1
    53   25   51 1
    54   26   52 1
    55   26   53 1
    56   27   28 1
    57   28   54 1
    58   28   55 1
    59   28   56 1
@<TRIPOS>MOLECULE
ZINC00077354
   32    33     0     0     0
SMALL
USER_CHARGES
N-[2-(5-methyl-1H-indol-3-yl)ethyl]acetamide
@<TRIPOS>ATOM
      1 C1          1.2016   -2.2028   -0.0207 C.3       1 <0>        -0.1109
      2 C2          1.2057   -0.6959   -0.0132 C.ar      1 <0>        -0.1106
      3 C3          0.0021   -0.0041    0.0020 C.ar      1 <0>        -0.0967
      4 C4         -0.0166    1.3733    0.0096 C.ar      1 <0>        -0.1260
      5 C5          1.1814    2.0806    0.0020 C.ar      1 <0>         0.0904
      6 C6          2.3982    1.3749   -0.0135 C.ar      1 <0>        -0.0960
      7 C7          2.3938   -0.0213   -0.0209 C.ar      1 <0>        -0.0729
      8 C8          3.4546    2.3898   -0.0173 C.2       1 <0>        -0.1744
      9 C9          2.8483    3.5874   -0.0047 C.2       1 <0>         0.0617
     10 N1          1.4900    3.4224    0.0070 N.pl3     1 <0>        -0.5944
     11 H1          0.8412    4.1434    0.0172 H         1 <0>         0.4169
     12 C10         4.9402    2.1372   -0.0326 C.3       1 <0>        -0.0516
     13 C11         5.4086    1.9362   -1.4752 C.3       1 <0>         0.1218
     14 N2          6.8528    1.6907   -1.4901 N.am      1 <0>        -0.7339
     15 C12         7.4892    1.4843   -2.6600 C.2       1 <0>         0.5081
     16 O1          6.8664    1.5018   -3.7005 O.2       1 <0>        -0.5462
     17 C13         8.9748    1.2318   -2.6753 C.3       1 <0>        -0.1736
     18 H2          1.1906   -2.5610   -1.0502 H         1 <0>         0.0678
     19 H3          2.0956   -2.5711    0.4826 H         1 <0>         0.0640
     20 H4          0.3157   -2.5664    0.4999 H         1 <0>         0.0647
     21 H5         -0.9290   -0.5513    0.0083 H         1 <0>         0.1254
     22 H6         -0.9581    1.9023    0.0169 H         1 <0>         0.1204
     23 H7          3.3262   -0.5662   -0.0331 H         1 <0>         0.1199
     24 H8          3.3572    4.5400   -0.0041 H         1 <0>         0.1704
     25 H9          5.4585    2.9920    0.4020 H         1 <0>         0.0761
     26 H10         5.1627    1.2430    0.5496 H         1 <0>         0.0765
     27 H11         4.8902    1.0815   -1.9097 H         1 <0>         0.0683
     28 H12         5.1860    2.8305   -2.0574 H         1 <0>         0.0670
     29 H13         7.3509    1.6767   -0.6579 H         1 <0>         0.4010
     30 H14         9.1622    0.1611   -2.5937 H         1 <0>         0.0939
     31 H15         9.3972    1.6045   -3.6084 H         1 <0>         0.0932
     32 H16         9.4396    1.7471   -1.8347 H         1 <0>         0.0798
@<TRIPOS>BOND
     1    1    2 1
     2    1   18 1
     3    1   19 1
     4    1   20 1
     5    2    7 ar
     6    2    3 ar
     7    3    4 ar
     8    3   21 1
     9    4    5 ar
    10    4   22 1
    11    5   10 1
    12    5    6 ar
    13    6    7 ar
    14    6    8 1
    15    7   23 1
    16    8    9 2
    17    8   12 1
    18    9   10 1
    19    9   24 1
    20   10   11 1
    21   12   13 1
    22   12   25 1
    23   12   26 1
    24   13   14 1
    25   13   27 1
    26   13   28 1
    27   14   15 am
    28   14   29 1
    29   15   16 2
    30   15   17 1
    31   17   30 1
    32   17   31 1
    33   17   32 1
@<TRIPOS>MOLECULE
ZINC00077351
   29    30     0     0     0
SMALL
USER_CHARGES
N-[2-(5-fluoro-1H-indol-3-yl)ethyl]acetamide
@<TRIPOS>ATOM
      1 C1         -0.9970    1.7576   -3.6299 C.3       1 <0>        -0.1754
      2 C2         -0.2681    1.2584   -2.4090 C.2       1 <0>         0.5083
      3 O1          0.7262    0.5752   -2.5335 O.2       1 <0>        -0.5452
      4 N1         -0.7213    1.5711   -1.1789 N.am      1 <0>        -0.7349
      5 C3         -0.0127    1.0858    0.0080 C.3       1 <0>         0.1213
      6 C4         -0.7288    1.5792    1.2668 C.3       1 <0>        -0.0533
      7 C5          0.0000    1.0800    2.4877 C.2       1 <0>        -0.1735
      8 C6         -0.2850   -0.0277    3.1904 C.2       1 <0>         0.0718
      9 N2          0.5922   -0.1579    4.2322 N.pl3     1 <0>        -0.5914
     10 H1          0.5857   -0.8806    4.8792 H         1 <0>         0.4199
     11 C7          1.4868    0.8905    4.2250 C.ar      1 <0>         0.0856
     12 C8          1.1578    1.7082    3.1288 C.ar      1 <0>        -0.0749
     13 C9          1.8999    2.8629    2.8726 C.ar      1 <0>        -0.1077
     14 C10         2.9584    3.1887    3.6931 C.ar      1 <0>         0.0744
     15 C11         3.2851    2.3770    4.7730 C.ar      1 <0>        -0.1307
     16 C12         2.5588    1.2373    5.0399 C.ar      1 <0>        -0.0974
     17 F1          3.6822    4.3024    3.4461 F         1 <0>        -0.1407
     18 H2         -1.0118    2.8475   -3.6239 H         1 <0>         0.0884
     19 H3         -0.4868    1.4061   -4.5267 H         1 <0>         0.0925
     20 H4         -2.0196    1.3803   -3.6222 H         1 <0>         0.0882
     21 H5         -1.5165    2.1175   -1.0793 H         1 <0>         0.4014
     22 H6          0.0021   -0.0041    0.0020 H         1 <0>         0.0677
     23 H7          1.0099    1.4631    0.0003 H         1 <0>         0.0685
     24 H8         -0.7436    2.6691    1.2728 H         1 <0>         0.0781
     25 H9         -1.7514    1.2020    1.2746 H         1 <0>         0.0786
     26 H10        -1.0880   -0.7143    2.9665 H         1 <0>         0.1745
     27 H11         1.6483    3.4951    2.0339 H         1 <0>         0.1344
     28 H12         4.1169    2.6422    5.4088 H         1 <0>         0.1397
     29 H13         2.8215    0.6139    5.8818 H         1 <0>         0.1318
@<TRIPOS>BOND
     1    1    2 1
     2    1   18 1
     3    1   19 1
     4    1   20 1
     5    2    3 2
     6    2    4 am
     7    4    5 1
     8    4   21 1
     9    5    6 1
    10    5   22 1
    11    5   23 1
    12    6    7 1
    13    6   24 1
    14    6   25 1
    15    7   12 1
    16    7    8 2
    17    8    9 1
    18    8   26 1
    19    9   10 1
    20    9   11 1
    21   11   16 ar
    22   11   12 ar
    23   12   13 ar
    24   13   14 ar
    25   13   27 1
    26   14   15 ar
    27   14   17 1
    28   15   16 ar
    29   15   28 1
    30   16   29 1
@<TRIPOS>MOLECULE
ZINC00014092
   42    44     0     0     0
SMALL
USER_CHARGES

@<TRIPOS>ATOM
      1 C1         -0.0187    1.5258    0.0104 C.3       1 <0>        -0.1377
      2 C2          0.0021   -0.0041    0.0020 C.3       1 <0>        -0.1459
      3 C3         -1.4117   -0.5257    0.0127 C.2       1 <0>         0.5121
      4 O1         -2.3441    0.2498    0.0258 O.2       1 <0>        -0.5388
      5 N1         -1.6400   -1.8540    0.0078 N.am      1 <0>        -0.7258
      6 C4         -3.0144   -2.3611    0.0182 C.3       1 <0>         0.1471
      7 H1         -3.6441   -1.7025    0.6164 H         1 <0>         0.0975
      8 C5         -3.5496   -2.4260   -1.4109 C.3       1 <0>        -0.0950
      9 C6         -2.8344   -3.4942   -2.1960 C.ar      1 <0>        -0.0650
     10 C7         -2.9154   -3.4418   -3.5818 C.ar      1 <0>        -0.1222
     11 C8         -2.2875   -4.3943   -4.3571 C.ar      1 <0>        -0.1152
     12 C9         -1.5718   -5.4101   -3.7508 C.ar      1 <0>        -0.1243
     13 C10        -1.4878   -5.4622   -2.3751 C.ar      1 <0>        -0.1061
     14 C11        -2.1168   -4.5021   -1.5926 C.ar      1 <0>        -0.0769
     15 C12        -1.9714   -4.6107   -0.0972 C.3       1 <0>        -0.0065
     16 H2         -0.9840   -4.2530    0.1948 H         1 <0>         0.0860
     17 C13        -3.0385   -3.7756    0.6091 C.3       1 <0>        -0.1191
     18 C14        -2.1186   -6.0533    0.3129 C.ar      1 <0>        -0.0745
     19 C15        -3.2876   -6.7357    0.0326 C.ar      1 <0>        -0.1059
     20 C16        -3.4227   -8.0590    0.4088 C.ar      1 <0>        -0.1172
     21 C17        -2.3884   -8.7001    1.0648 C.ar      1 <0>        -0.1211
     22 C18        -1.2191   -8.0179    1.3443 C.ar      1 <0>        -0.1177
     23 C19        -1.0824   -6.6959    0.9643 C.ar      1 <0>        -0.1175
     24 H3          1.0039    1.9031    0.0027 H         1 <0>         0.0615
     25 H4         -0.5459    1.8868   -0.8726 H         1 <0>         0.0614
     26 H5         -0.5289    1.8773    0.9072 H         1 <0>         0.0618
     27 H6          0.5123   -0.3556   -0.8948 H         1 <0>         0.0922
     28 H7          0.5293   -0.3651    0.8851 H         1 <0>         0.0924
     29 H8         -0.8943   -2.4742   -0.0027 H         1 <0>         0.3990
     30 H9         -4.6157   -2.6515   -1.3855 H         1 <0>         0.0873
     31 H10        -3.3982   -1.4615   -1.8955 H         1 <0>         0.0818
     32 H11        -3.4748   -2.6490   -4.0560 H         1 <0>         0.1200
     33 H12        -2.3545   -4.3465   -5.4340 H         1 <0>         0.1212
     34 H13        -1.0804   -6.1604   -4.3525 H         1 <0>         0.1207
     35 H14        -0.9288   -6.2562   -1.9023 H         1 <0>         0.1197
     36 H15        -2.8238   -3.7311    1.6768 H         1 <0>         0.0789
     37 H16        -4.0194   -4.2233    0.4498 H         1 <0>         0.0862
     38 H17        -4.0956   -6.2349   -0.4800 H         1 <0>         0.1198
     39 H18        -4.3363   -8.5920    0.1904 H         1 <0>         0.1217
     40 H19        -2.4942   -9.7337    1.3594 H         1 <0>         0.1213
     41 H20        -0.4112   -8.5186    1.8571 H         1 <0>         0.1222
     42 H21        -0.1674   -6.1640    1.1793 H         1 <0>         0.1210
@<TRIPOS>BOND
     1    1    2 1
     2    1   24 1
     3    1   25 1
     4    1   26 1
     5    2    3 1
     6    2   27 1
     7    2   28 1
     8    3    4 2
     9    3    5 am
    10    5    6 1
    11    5   29 1
    12    6    7 1
    13    6   17 1
    14    6    8 1
    15    8    9 1
    16    8   30 1
    17    8   31 1
    18    9   14 ar
    19    9   10 ar
    20   10   11 ar
    21   10   32 1
    22   11   12 ar
    23   11   33 1
    24   12   13 ar
    25   12   34 1
    26   13   14 ar
    27   13   35 1
    28   14   15 1
    29   15   16 1
    30   15   17 1
    31   15   18 1
    32   17   36 1
    33   17   37 1
    34   18   23 ar
    35   18   19 ar
    36   19   20 ar
    37   19   38 1
    38   20   21 ar
    39   20   39 1
    40   21   22 ar
    41   21   40 1
    42   22   23 ar
    43   22   41 1
    44   23   42 1
@<TRIPOS>MOLECULE
ZINC03791923
   42    44     0     0     0
SMALL
USER_CHARGES

@<TRIPOS>ATOM
      1 C1         -0.0187    1.5258    0.0104 C.3       1 <0>        -0.1377
      2 C2          0.0021   -0.0041    0.0020 C.3       1 <0>        -0.1459
      3 C3         -1.4117   -0.5257    0.0127 C.2       1 <0>         0.5121
      4 O1         -2.3441    0.2498    0.0258 O.2       1 <0>        -0.5388
      5 N1         -1.6400   -1.8540    0.0078 N.am      1 <0>        -0.7258
      6 C4         -3.0144   -2.3611    0.0182 C.3       1 <0>         0.1471
      7 H1         -3.6553   -1.6962   -0.5609 H         1 <0>         0.0975
      8 C5         -3.5222   -2.4414    1.4564 C.3       1 <0>        -0.0950
      9 C6         -2.7923   -3.5179    2.2162 C.ar      1 <0>        -0.0650
     10 C7         -2.8467   -3.4804    3.6037 C.ar      1 <0>        -0.1222
     11 C8         -2.2036   -4.4405    4.3567 C.ar      1 <0>        -0.1152
     12 C9         -1.4996   -5.4497    3.7260 C.ar      1 <0>        -0.1244
     13 C10        -1.4427   -5.4876    2.3484 C.ar      1 <0>        -0.1061
     14 C11        -2.0864   -4.5192    1.5884 C.ar      1 <0>        -0.0768
     15 C12        -1.9696   -4.6117    0.0895 C.3       1 <0>        -0.0065
     16 H2         -0.9880   -4.2508   -0.2175 H         1 <0>         0.0859
     17 C13        -3.0499   -3.7692   -0.5874 C.3       1 <0>        -0.1192
     18 C14        -2.1248   -6.0499   -0.3332 C.ar      1 <0>        -0.0745
     19 C15        -3.2928   -6.7319   -0.0480 C.ar      1 <0>        -0.1060
     20 C16        -3.4351   -8.0511   -0.4357 C.ar      1 <0>        -0.1172
     21 C17        -2.4096   -8.6881   -1.1091 C.ar      1 <0>        -0.1212
     22 C18        -1.2419   -8.0058   -1.3951 C.ar      1 <0>        -0.1177
     23 C19        -1.1013   -6.6853   -1.0112 C.ar      1 <0>        -0.1175
     24 H3          1.0039    1.9031    0.0027 H         1 <0>         0.0615
     25 H4         -0.5459    1.8868   -0.8726 H         1 <0>         0.0618
     26 H5         -0.5289    1.8773    0.9072 H         1 <0>         0.0614
     27 H6          0.5123   -0.3556   -0.8948 H         1 <0>         0.0924
     28 H7          0.5293   -0.3651    0.8851 H         1 <0>         0.0922
     29 H8         -0.8943   -2.4742   -0.0027 H         1 <0>         0.3990
     30 H9         -3.3615   -1.4821    1.9484 H         1 <0>         0.0818
     31 H10        -4.5886   -2.6667    1.4490 H         1 <0>         0.0873
     32 H11        -3.3969   -2.6927    4.0970 H         1 <0>         0.1200
     33 H12        -2.2499   -4.4044    5.4351 H         1 <0>         0.1213
     34 H13        -0.9957   -6.2056    4.3101 H         1 <0>         0.1207
     35 H14        -0.8929   -6.2764    1.8565 H         1 <0>         0.1197
     36 H15        -4.0277   -4.2187   -0.4142 H         1 <0>         0.0862
     37 H16        -2.8556   -3.7132   -1.6585 H         1 <0>         0.0789
     38 H17        -4.0940   -6.2343    0.4781 H         1 <0>         0.1198
     39 H18        -4.3474   -8.5843   -0.2122 H         1 <0>         0.1217
     40 H19        -2.5205   -9.7190   -1.4114 H         1 <0>         0.1213
     41 H20        -0.4405   -8.5035   -1.9209 H         1 <0>         0.1222
     42 H21        -0.1905   -6.1510   -1.2379 H         1 <0>         0.1210
@<TRIPOS>BOND
     1    1    2 1
     2    1   24 1
     3    1   25 1
     4    1   26 1
     5    2    3 1
     6    2   27 1
     7    2   28 1
     8    3    4 2
     9    3    5 am
    10    5    6 1
    11    5   29 1
    12    6    7 1
    13    6   17 1
    14    6    8 1
    15    8    9 1
    16    8   30 1
    17    8   31 1
    18    9   14 ar
    19    9   10 ar
    20   10   11 ar
    21   10   32 1
    22   11   12 ar
    23   11   33 1
    24   12   13 ar
    25   12   34 1
    26   13   14 ar
    27   13   35 1
    28   14   15 1
    29   15   16 1
    30   15   17 1
    31   15   18 1
    32   17   36 1
    33   17   37 1
    34   18   23 ar
    35   18   19 ar
    36   19   20 ar
    37   19   38 1
    38   20   21 ar
    39   20   39 1
    40   21   22 ar
    41   21   40 1
    42   22   23 ar
    43   22   41 1
    44   23   42 1
@<TRIPOS>MOLECULE
ZINC03995796
   42    44     0     0     0
SMALL
USER_CHARGES

@<TRIPOS>ATOM
      1 C1         -0.0187    1.5258    0.0104 C.3       1 <0>        -0.1387
      2 C2          0.0021   -0.0041    0.0020 C.3       1 <0>        -0.1450
      3 C3         -1.4117   -0.5257    0.0127 C.2       1 <0>         0.5113
      4 O1         -2.3441    0.2498    0.0258 O.2       1 <0>        -0.5360
      5 N1         -1.6400   -1.8540    0.0078 N.am      1 <0>        -0.7301
      6 C4         -3.0144   -2.3611    0.0182 C.3       1 <0>         0.1468
      7 H1         -3.6553   -1.6962   -0.5609 H         1 <0>         0.0932
      8 C5         -3.5222   -2.4414    1.4564 C.3       1 <0>        -0.0911
      9 C6         -4.8426   -3.1641    1.5120 C.ar      1 <0>        -0.0686
     10 C7         -5.6213   -3.0017    2.6508 C.ar      1 <0>        -0.1195
     11 C8         -6.8378   -3.6417    2.7653 C.ar      1 <0>        -0.1165
     12 C9         -7.2865   -4.4521    1.7388 C.ar      1 <0>        -0.1225
     13 C10        -6.5160   -4.6124    0.6060 C.ar      1 <0>        -0.1067
     14 C11        -5.2921   -3.9662    0.4874 C.ar      1 <0>        -0.0738
     15 C12        -4.5095   -4.1735   -0.7828 C.3       1 <0>        -0.0023
     16 H2         -4.9463   -3.5679   -1.5769 H         1 <0>         0.0925
     17 C13        -3.0499   -3.7692   -0.5874 C.3       1 <0>        -0.1178
     18 C14        -4.5737   -5.6274   -1.1743 C.ar      1 <0>        -0.0741
     19 C15        -4.0924   -6.5966   -0.3142 C.ar      1 <0>        -0.1061
     20 C16        -4.1513   -7.9302   -0.6733 C.ar      1 <0>        -0.1181
     21 C17        -4.6919   -8.2946   -1.8922 C.ar      1 <0>        -0.1212
     22 C18        -5.1740   -7.3254   -2.7519 C.ar      1 <0>        -0.1178
     23 C19        -5.1190   -5.9921   -2.3910 C.ar      1 <0>        -0.1163
     24 H3          1.0039    1.9031    0.0027 H         1 <0>         0.0620
     25 H4         -0.5459    1.8868   -0.8726 H         1 <0>         0.0617
     26 H5         -0.5289    1.8773    0.9072 H         1 <0>         0.0616
     27 H6          0.5123   -0.3556   -0.8948 H         1 <0>         0.0933
     28 H7          0.5293   -0.3651    0.8851 H         1 <0>         0.0933
     29 H8         -0.8943   -2.4742   -0.0027 H         1 <0>         0.4014
     30 H9         -2.7936   -2.9764    2.0655 H         1 <0>         0.0785
     31 H10        -3.6476   -1.4327    1.8501 H         1 <0>         0.0811
     32 H11        -5.2712   -2.3694    3.4533 H         1 <0>         0.1207
     33 H12        -7.4379   -3.5100    3.6535 H         1 <0>         0.1221
     34 H13        -8.2371   -4.9575    1.8235 H         1 <0>         0.1215
     35 H14        -6.8671   -5.2457   -0.1952 H         1 <0>         0.1204
     36 H15        -2.5369   -3.7682   -1.5491 H         1 <0>         0.0786
     37 H16        -2.5624   -4.4718    0.0885 H         1 <0>         0.0760
     38 H17        -3.6701   -6.3120    0.6382 H         1 <0>         0.1192
     39 H18        -3.7746   -8.6874   -0.0016 H         1 <0>         0.1213
     40 H19        -4.7372   -9.3365   -2.1731 H         1 <0>         0.1212
     41 H20        -5.5960   -7.6100   -3.7045 H         1 <0>         0.1223
     42 H21        -5.4991   -5.2352   -3.0611 H         1 <0>         0.1220
@<TRIPOS>BOND
     1    1    2 1
     2    1   24 1
     3    1   25 1
     4    1   26 1
     5    2    3 1
     6    2   27 1
     7    2   28 1
     8    3    4 2
     9    3    5 am
    10    5    6 1
    11    5   29 1
    12    6    7 1
    13    6   17 1
    14    6    8 1
    15    8    9 1
    16    8   30 1
    17    8   31 1
    18    9   14 ar
    19    9   10 ar
    20   10   11 ar
    21   10   32 1
    22   11   12 ar
    23   11   33 1
    24   12   13 ar
    25   12   34 1
    26   13   14 ar
    27   13   35 1
    28   14   15 1
    29   15   16 1
    30   15   17 1
    31   15   18 1
    32   17   36 1
    33   17   37 1
    34   18   23 ar
    35   18   19 ar
    36   19   20 ar
    37   19   38 1
    38   20   21 ar
    39   20   39 1
    40   21   22 ar
    41   21   40 1
    42   22   23 ar
    43   22   41 1
    44   23   42 1
@<TRIPOS>MOLECULE
ZINC03995799
   42    44     0     0     0
SMALL
USER_CHARGES

@<TRIPOS>ATOM
      1 C1         -0.0187    1.5258    0.0104 C.3       1 <0>        -0.1387
      2 C2          0.0021   -0.0041    0.0020 C.3       1 <0>        -0.1450
      3 C3         -1.4117   -0.5257    0.0127 C.2       1 <0>         0.5113
      4 O1         -2.3441    0.2498    0.0258 O.2       1 <0>        -0.5360
      5 N1         -1.6400   -1.8540    0.0078 N.am      1 <0>        -0.7301
      6 C4         -3.0144   -2.3611    0.0182 C.3       1 <0>         0.1468
      7 H1         -3.6441   -1.7025    0.6164 H         1 <0>         0.0932
      8 C5         -3.5496   -2.4260   -1.4109 C.3       1 <0>        -0.0911
      9 C6         -4.8709   -3.1482   -1.4491 C.ar      1 <0>        -0.0686
     10 C7         -5.6712   -2.9737   -2.5710 C.ar      1 <0>        -0.1195
     11 C8         -6.8897   -3.6125   -2.6691 C.ar      1 <0>        -0.1165
     12 C9         -7.3188   -4.4339   -1.6429 C.ar      1 <0>        -0.1225
     13 C10        -6.5268   -4.6063   -0.5269 C.ar      1 <0>        -0.1067
     14 C11        -5.3008   -3.9613   -0.4247 C.ar      1 <0>        -0.0737
     15 C12        -4.4942   -4.1822    0.8281 C.3       1 <0>        -0.0023
     16 H2         -4.9156   -3.5852    1.6368 H         1 <0>         0.0925
     17 C13        -3.0385   -3.7756    0.6091 C.3       1 <0>        -0.1179
     18 C14        -4.5510   -5.6401    1.2050 C.ar      1 <0>        -0.0740
     19 C15        -4.0759   -6.5993    0.3302 C.ar      1 <0>        -0.1062
     20 C16        -4.1281   -7.9366    0.6760 C.ar      1 <0>        -0.1181
     21 C17        -4.6549   -8.3149    1.8968 C.ar      1 <0>        -0.1213
     22 C18        -5.1291   -7.3557    2.7720 C.ar      1 <0>        -0.1178
     23 C19        -5.0730   -6.0180    2.4280 C.ar      1 <0>        -0.1163
     24 H3          1.0039    1.9031    0.0027 H         1 <0>         0.0620
     25 H4         -0.5459    1.8868   -0.8726 H         1 <0>         0.0616
     26 H5         -0.5289    1.8773    0.9072 H         1 <0>         0.0617
     27 H6          0.5123   -0.3556   -0.8948 H         1 <0>         0.0933
     28 H7          0.5293   -0.3651    0.8851 H         1 <0>         0.0933
     29 H8         -0.8943   -2.4742   -0.0027 H         1 <0>         0.4014
     30 H9         -3.6824   -1.4132   -1.7913 H         1 <0>         0.0811
     31 H10        -2.8328   -2.9543   -2.0395 H         1 <0>         0.0785
     32 H11        -5.3364   -2.3327   -3.3732 H         1 <0>         0.1207
     33 H12        -7.5066   -3.4714   -3.5442 H         1 <0>         0.1221
     34 H13        -8.2706   -4.9391   -1.7152 H         1 <0>         0.1215
     35 H14        -6.8626   -5.2483    0.2741 H         1 <0>         0.1204
     36 H15        -2.5640   -4.4709   -0.0835 H         1 <0>         0.0761
     37 H16        -2.5072   -3.7849    1.5608 H         1 <0>         0.0786
     38 H17        -3.6644   -6.3038   -0.6236 H         1 <0>         0.1192
     39 H18        -3.7576   -8.6860   -0.0078 H         1 <0>         0.1213
     40 H19        -4.6962   -9.3598    2.1666 H         1 <0>         0.1212
     41 H20        -5.5410   -7.6512    3.7256 H         1 <0>         0.1223
     42 H21        -5.4401   -5.2683    3.1133 H         1 <0>         0.1220
@<TRIPOS>BOND
     1    1    2 1
     2    1   24 1
     3    1   25 1
     4    1   26 1
     5    2    3 1
     6    2   27 1
     7    2   28 1
     8    3    4 2
     9    3    5 am
    10    5    6 1
    11    5   29 1
    12    6    7 1
    13    6   17 1
    14    6    8 1
    15    8    9 1
    16    8   30 1
    17    8   31 1
    18    9   14 ar
    19    9   10 ar
    20   10   11 ar
    21   10   32 1
    22   11   12 ar
    23   11   33 1
    24   12   13 ar
    25   12   34 1
    26   13   14 ar
    27   13   35 1
    28   14   15 1
    29   15   16 1
    30   15   17 1
    31   15   18 1
    32   17   36 1
    33   17   37 1
    34   18   23 ar
    35   18   19 ar
    36   19   20 ar
    37   19   38 1
    38   20   21 ar
    39   20   39 1
    40   21   22 ar
    41   21   40 1
    42   22   23 ar
    43   22   41 1
    44   23   42 1
@<TRIPOS>MOLECULE
ZINC00003941
   42    44     0     0     0
SMALL
USER_CHARGES

@<TRIPOS>ATOM
      1 C1         -0.9050    1.1872   -1.1858 C.3       1 <0>        -0.1756
      2 C2         -0.6871   -0.2827   -0.9351 C.2       1 <0>         0.5083
      3 O1          0.4373   -0.7373   -0.9322 O.2       1 <0>        -0.5449
      4 N1         -1.7418   -1.0922   -0.7140 N.am      1 <0>        -0.7344
      5 C3         -1.5299   -2.5212   -0.4703 C.3       1 <0>         0.1220
      6 C4         -2.8800   -3.2068   -0.2509 C.3       1 <0>        -0.0557
      7 C5         -2.6622   -4.6767   -0.0001 C.2       1 <0>        -0.1621
      8 C6         -2.6761   -5.7433   -1.0041 C.ar      1 <0>        -0.0971
      9 C7         -2.8738   -5.7729   -2.3860 C.ar      1 <0>        -0.0718
     10 C8         -2.8238   -6.9643   -3.0530 C.ar      1 <0>        -0.1445
     11 C9         -2.5779   -8.1464   -2.3677 C.ar      1 <0>        -0.0983
     12 C10        -2.3801   -8.1401   -1.0045 C.ar      1 <0>        -0.1296
     13 C11        -2.4267   -6.9383   -0.3051 C.ar      1 <0>         0.0995
     14 N2         -2.2744   -6.6079    1.0229 N.pl3     1 <0>        -0.5888
     15 H1         -2.0926   -7.2389    1.7368 H         1 <0>         0.4141
     16 C12        -2.4127   -5.2563    1.1847 C.2       1 <0>         0.0994
     17 C13        -2.3038   -4.5267    2.4988 C.3       1 <0>        -0.0233
     18 C14        -3.6739   -4.3860    3.1103 C.ar      1 <0>        -0.0799
     19 C15        -4.3968   -3.2222    2.9264 C.ar      1 <0>        -0.1108
     20 C16        -5.6536   -3.0932    3.4873 C.ar      1 <0>        -0.1161
     21 C17        -6.1878   -4.1282    4.2318 C.ar      1 <0>        -0.1199
     22 C18        -5.4653   -5.2924    4.4150 C.ar      1 <0>        -0.1165
     23 C19        -4.2102   -5.4231    3.8505 C.ar      1 <0>        -0.1143
     24 H2          0.0569    1.6756   -1.3421 H         1 <0>         0.0924
     25 H3         -1.5264    1.3164   -2.0719 H         1 <0>         0.0882
     26 H4         -1.4030    1.6328   -0.3246 H         1 <0>         0.0880
     27 H5         -2.6411   -0.7287   -0.7163 H         1 <0>         0.4009
     28 H6         -1.0319   -2.9668   -1.3314 H         1 <0>         0.0692
     29 H7         -0.9085   -2.6504    0.4158 H         1 <0>         0.0663
     30 H8         -3.3781   -2.7612    0.6103 H         1 <0>         0.0768
     31 H9         -3.5014   -3.0775   -1.1370 H         1 <0>         0.0774
     32 H10        -3.0659   -4.8574   -2.9257 H         1 <0>         0.1199
     33 H11        -2.9771   -6.9867   -4.1218 H         1 <0>         0.1223
     34 H12        -2.5418   -9.0803   -2.9088 H         1 <0>         0.1252
     35 H13        -2.1895   -9.0649   -0.4804 H         1 <0>         0.1194
     36 H14        -1.6603   -5.0897    3.1748 H         1 <0>         0.0859
     37 H15        -1.8775   -3.5376    2.3310 H         1 <0>         0.0996
     38 H16        -3.9795   -2.4136    2.3447 H         1 <0>         0.1233
     39 H17        -6.2181   -2.1836    3.3442 H         1 <0>         0.1238
     40 H18        -7.1694   -4.0272    4.6706 H         1 <0>         0.1225
     41 H19        -5.8825   -6.1009    4.9970 H         1 <0>         0.1222
     42 H20        -3.6473   -6.3341    3.9905 H         1 <0>         0.1167
@<TRIPOS>BOND
     1    1    2 1
     2    1   24 1
     3    1   25 1
     4    1   26 1
     5    2    3 2
     6    2    4 am
     7    4    5 1
     8    4   27 1
     9    5    6 1
    10    5   28 1
    11    5   29 1
    12    6    7 1
    13    6   30 1
    14    6   31 1
    15    7   16 2
    16    7    8 1
    17    8   13 ar
    18    8    9 ar
    19    9   10 ar
    20    9   32 1
    21   10   11 ar
    22   10   33 1
    23   11   12 ar
    24   11   34 1
    25   12   13 ar
    26   12   35 1
    27   13   14 1
    28   14   15 1
    29   14   16 1
    30   16   17 1
    31   17   18 1
    32   17   36 1
    33   17   37 1
    34   18   23 ar
    35   18   19 ar
    36   19   20 ar
    37   19   38 1
    38   20   21 ar
    39   20   39 1
    40   21   22 ar
    41   21   40 1
    42   22   23 ar
    43   22   41 1
    44   23   42 1
@<TRIPOS>MOLECULE
ZINC00488387
   29    30     0     0     0
SMALL
USER_CHARGES
N-[2-(5-chloro-1H-indol-3-yl)ethyl]acetamide
@<TRIPOS>ATOM
      1 C1         -0.9970    1.7576   -3.6299 C.3       1 <0>        -0.1754
      2 C2         -0.2681    1.2584   -2.4090 C.2       1 <0>         0.5084
      3 O1          0.7262    0.5752   -2.5335 O.2       1 <0>        -0.5450
      4 N1         -0.7213    1.5711   -1.1789 N.am      1 <0>        -0.7348
      5 C3         -0.0127    1.0858    0.0080 C.3       1 <0>         0.1216
      6 C4         -0.7288    1.5792    1.2668 C.3       1 <0>        -0.0537
      7 C5          0.0000    1.0800    2.4877 C.2       1 <0>        -0.1693
      8 C6         -0.2849   -0.0276    3.1905 C.2       1 <0>         0.0678
      9 N2          0.5922   -0.1576    4.2325 N.pl3     1 <0>        -0.5916
     10 H1          0.5856   -0.8803    4.8795 H         1 <0>         0.4199
     11 C7          1.4863    0.8904    4.2255 C.ar      1 <0>         0.0992
     12 C8          1.1578    1.7081    3.1288 C.ar      1 <0>        -0.0906
     13 C9          1.8997    2.8629    2.8734 C.ar      1 <0>        -0.0603
     14 C10         2.9575    3.1883    3.6935 C.ar      1 <0>        -0.0583
     15 C11         3.2845    2.3772    4.7727 C.ar      1 <0>        -0.0898
     16 C12         2.5584    1.2375    5.0403 C.ar      1 <0>        -0.1150
     17 Cl1         3.8873    4.6196    3.3763 Cl        1 <0>        -0.0710
     18 H2         -1.0118    2.8475   -3.6239 H         1 <0>         0.0884
     19 H3         -0.4868    1.4061   -4.5267 H         1 <0>         0.0925
     20 H4         -2.0196    1.3803   -3.6222 H         1 <0>         0.0881
     21 H5         -1.5165    2.1175   -1.0793 H         1 <0>         0.4014
     22 H6          0.0021   -0.0041    0.0020 H         1 <0>         0.0676
     23 H7          1.0099    1.4631    0.0003 H         1 <0>         0.0686
     24 H8         -0.7436    2.6691    1.2728 H         1 <0>         0.0783
     25 H9         -1.7514    1.2020    1.2746 H         1 <0>         0.0786
     26 H10        -1.0878   -0.7145    2.9665 H         1 <0>         0.1743
     27 H11         1.6484    3.4953    2.0347 H         1 <0>         0.1325
     28 H12         4.1165    2.6425    5.4081 H         1 <0>         0.1372
     29 H13         2.8213    0.6144    5.8823 H         1 <0>         0.1306
@<TRIPOS>BOND
     1    1    2 1
     2    1   18 1
     3    1   19 1
     4    1   20 1
     5    2    3 2
     6    2    4 am
     7    4    5 1
     8    4   21 1
     9    5    6 1
    10    5   22 1
    11    5   23 1
    12    6    7 1
    13    6   24 1
    14    6   25 1
    15    7   12 1
    16    7    8 2
    17    8    9 1
    18    8   26 1
    19    9   10 1
    20    9   11 1
    21   11   16 ar
    22   11   12 ar
    23   12   13 ar
    24   13   14 ar
    25   13   27 1
    26   14   15 ar
    27   14   17 1
    28   15   16 ar
    29   15   28 1
    30   16   29 1
@<TRIPOS>MOLECULE
ZINC02516056
   33    34     0     0     0
SMALL
USER_CHARGES

@<TRIPOS>ATOM
      1 C1         -0.0184    1.5028    0.0103 C.3       1 <0>        -0.1751
      2 C2          0.0021   -0.0041    0.0020 C.2       1 <0>         0.5091
      3 O1          1.0605   -0.5961   -0.0113 O.2       1 <0>        -0.5443
      4 N1         -1.1558   -0.6938    0.0094 N.am      1 <0>        -0.7329
      5 C3         -1.1360   -2.1586    0.0013 C.3       1 <0>         0.1234
      6 C4         -2.5713   -2.6882    0.0122 C.3       1 <0>        -0.0646
      7 C5         -2.5509   -4.1950    0.0039 C.2       1 <0>        -0.1197
      8 C6         -2.5444   -5.0596   -1.1786 C.ar      1 <0>        -0.0618
      9 C7         -2.5538   -4.8197   -2.5546 C.ar      1 <0>        -0.1044
     10 C8         -2.5433   -5.8848   -3.4326 C.ar      1 <0>         0.1043
     11 C9         -2.5235   -7.1914   -2.9510 C.ar      1 <0>        -0.1675
     12 C10        -2.5140   -7.4395   -1.5966 C.ar      1 <0>        -0.0883
     13 C11        -2.5244   -6.3801   -0.6955 C.ar      1 <0>         0.0816
     14 N2         -2.5192   -6.3087    0.6820 N.pl3     1 <0>        -0.5767
     15 H1         -2.5058   -7.0726    1.2797 H         1 <0>         0.4199
     16 C12        -2.5293   -4.9995    1.0794 C.2       1 <0>         0.0694
     17 I1         -2.5174   -4.3465    3.0700 I         1 <0>         0.0309
     18 O2         -2.5529   -5.6574   -4.7733 O.3       1 <0>        -0.3172
     19 C13        -2.5411   -6.8041   -5.6260 C.3       1 <0>         0.0272
     20 H2          1.0042    1.8801    0.0026 H         1 <0>         0.0924
     21 H3         -0.5455    1.8639   -0.8728 H         1 <0>         0.0884
     22 H4         -0.5286    1.8543    0.9071 H         1 <0>         0.0883
     23 H5         -2.0023   -0.2203    0.0200 H         1 <0>         0.4017
     24 H6         -0.6258   -2.5101   -0.8955 H         1 <0>         0.0709
     25 H7         -0.6088   -2.5197    0.8844 H         1 <0>         0.0688
     26 H8         -3.0815   -2.3367    0.9090 H         1 <0>         0.0819
     27 H9         -3.0985   -2.3271   -0.8709 H         1 <0>         0.0867
     28 H10        -2.5696   -3.8069   -2.9293 H         1 <0>         0.1334
     29 H11        -2.5158   -8.0177   -3.6463 H         1 <0>         0.1355
     30 H12        -2.4990   -8.4567   -1.2341 H         1 <0>         0.1280
     31 H13        -2.5505   -6.4825   -6.6674 H         1 <0>         0.1006
     32 H14        -1.6420   -7.3899   -5.4347 H         1 <0>         0.0551
     33 H15        -3.4218   -7.4144   -5.4262 H         1 <0>         0.0550
@<TRIPOS>BOND
     1    1    2 1
     2    1   20 1
     3    1   21 1
     4    1   22 1
     5    2    3 2
     6    2    4 am
     7    4    5 1
     8    4   23 1
     9    5    6 1
    10    5   24 1
    11    5   25 1
    12    6    7 1
    13    6   26 1
    14    6   27 1
    15    7   16 2
    16    7    8 1
    17    8   13 ar
    18    8    9 ar
    19    9   10 ar
    20    9   28 1
    21   10   11 ar
    22   10   18 1
    23   11   12 ar
    24   11   29 1
    25   12   13 ar
    26   12   30 1
    27   13   14 1
    28   14   15 1
    29   14   16 1
    30   16   17 1
    31   18   19 1
    32   19   31 1
    33   19   32 1
    34   19   33 1
@<TRIPOS>MOLECULE
ZINC01514066
   35    36     0     0     0
SMALL
USER_CHARGES
N-[2-(5-methoxy-6-nitro-1H-indol-3-yl)ethyl]acetamide
@<TRIPOS>ATOM
      1 C1         -0.9970    1.7576   -3.6299 C.3       1 <0>        -0.1757
      2 C2         -0.2681    1.2584   -2.4090 C.2       1 <0>         0.5088
      3 O1          0.7262    0.5752   -2.5335 O.2       1 <0>        -0.5440
      4 N1         -0.7213    1.5711   -1.1789 N.am      1 <0>        -0.7356
      5 C3         -0.0127    1.0858    0.0080 C.3       1 <0>         0.1205
      6 C4         -0.7288    1.5792    1.2668 C.3       1 <0>        -0.0530
      7 C5          0.0000    1.0800    2.4877 C.2       1 <0>        -0.1880
      8 C6         -0.2891   -0.0243    3.1941 C.2       1 <0>         0.1049
      9 N2          0.5907   -0.1572    4.2332 N.pl3     1 <0>        -0.5849
     10 H1          0.5835   -0.8793    4.8808 H         1 <0>         0.4257
     11 C7          1.4860    0.8917    4.2259 C.ar      1 <0>         0.0591
     12 C8          1.1542    1.7114    3.1321 C.ar      1 <0>        -0.0141
     13 C9          1.8987    2.8638    2.8724 C.ar      1 <0>        -0.1728
     14 C10         2.9587    3.1908    3.6945 C.ar      1 <0>         0.1656
     15 C11         3.2844    2.3776    4.7766 C.ar      1 <0>        -0.0560
     16 C12         2.5570    1.2386    5.0422 C.ar      1 <0>        -0.0171
     17 N3          4.4228    2.7407    5.6503 N.pl3     1 <0>         0.0369
     18 O2          4.7126    2.0334    6.5985 O.2       1 <0>        -0.1827
     19 O3          5.0697    3.7469    5.4209 O.3       1 <0>        -0.1298
     20 O4          3.6874    4.3119    3.4465 O.3       1 <0>        -0.2839
     21 C13         3.2995    5.1019    2.3206 C.3       1 <0>         0.0204
     22 H2         -1.0118    2.8475   -3.6239 H         1 <0>         0.0886
     23 H3         -0.4868    1.4061   -4.5267 H         1 <0>         0.0931
     24 H4         -2.0196    1.3803   -3.6222 H         1 <0>         0.0888
     25 H5         -1.5165    2.1175   -1.0793 H         1 <0>         0.4019
     26 H6          0.0021   -0.0041    0.0020 H         1 <0>         0.0689
     27 H7          1.0099    1.4631    0.0003 H         1 <0>         0.0676
     28 H8         -0.7436    2.6691    1.2728 H         1 <0>         0.0793
     29 H9         -1.7514    1.2020    1.2746 H         1 <0>         0.0823
     30 H10        -1.0954   -0.7080    2.9732 H         1 <0>         0.1833
     31 H11         1.6470    3.4955    2.0333 H         1 <0>         0.1504
     32 H12         2.8184    0.6150    5.8843 H         1 <0>         0.1596
     33 H13         2.2728    5.4431    2.4526 H         1 <0>         0.0603
     34 H14         3.9610    5.9641    2.2366 H         1 <0>         0.1112
     35 H15         3.3689    4.5009    1.4139 H         1 <0>         0.0607
@<TRIPOS>BOND
     1    1    2 1
     2    1   22 1
     3    1   23 1
     4    1   24 1
     5    2    3 2
     6    2    4 am
     7    4    5 1
     8    4   25 1
     9    5    6 1
    10    5   26 1
    11    5   27 1
    12    6    7 1
    13    6   28 1
    14    6   29 1
    15    7   12 1
    16    7    8 2
    17    8    9 1
    18    8   30 1
    19    9   10 1
    20    9   11 1
    21   11   16 ar
    22   11   12 ar
    23   12   13 ar
    24   13   14 ar
    25   13   31 1
    26   14   15 ar
    27   14   20 1
    28   15   16 ar
    29   15   17 1
    30   16   32 1
    31   17   18 2
    32   17   19 1
    33   20   21 1
    34   21   33 1
    35   21   34 1
    36   21   35 1
@<TRIPOS>MOLECULE
ZINC13473194
   36    37     0     0     0
SMALL
USER_CHARGES
N-[2-(2-iodo-5-methoxy-1-methyl-indol-3-yl)ethyl]acetamide
@<TRIPOS>ATOM
      1 C1          0.1619    0.9601   -4.8946 C.3       1 <0>        -0.1716
      2 C2         -0.5435    1.4461   -3.6547 C.2       1 <0>         0.5092
      3 O1         -1.5399    2.1304   -3.7528 O.2       1 <0>        -0.5458
      4 N1         -0.0670    1.1202   -2.4368 N.am      1 <0>        -0.7314
      5 C3         -0.7527    1.5927   -1.2315 C.3       1 <0>         0.1232
      6 C4         -0.0127    1.0858    0.0080 C.3       1 <0>        -0.0630
      7 C5         -0.7181    1.5718    1.2479 C.2       1 <0>        -0.1230
      8 C6         -1.7926    0.8820    1.9657 C.ar      1 <0>        -0.0617
      9 C7         -2.4636   -0.3282    1.7758 C.ar      1 <0>        -0.1037
     10 C8         -3.4579   -0.7024    2.6573 C.ar      1 <0>         0.1032
     11 C9         -3.7911    0.1208    3.7300 C.ar      1 <0>        -0.1680
     12 C10        -3.1363    1.3160    3.9268 C.ar      1 <0>        -0.0874
     13 C11        -2.1315    1.7110    3.0499 C.ar      1 <0>         0.0824
     14 N2         -1.3147    2.8205    2.9838 N.pl3     1 <0>        -0.4685
     15 C12        -0.4765    2.7168    1.9074 C.2       1 <0>         0.0695
     16 I1          0.9665    4.1356    1.3655 I         1 <0>         0.0290
     17 C13        -1.3370    3.9399    3.9287 C.3       1 <0>         0.0701
     18 O2         -4.1149   -1.8793    2.4772 O.3       1 <0>        -0.3173
     19 C14        -5.1327   -2.2059    3.4257 C.3       1 <0>         0.0275
     20 H1          1.0292    0.3646   -4.6094 H         1 <0>         0.0758
     21 H2         -0.5206    0.3484   -5.4847 H         1 <0>         0.0950
     22 H3          0.4872    1.8156   -5.4865 H         1 <0>         0.0949
     23 H4          0.7300    0.5728   -2.3584 H         1 <0>         0.4014
     24 H5         -1.7753    1.2154   -1.2238 H         1 <0>         0.0708
     25 H6         -0.7675    2.6825   -1.2255 H         1 <0>         0.0685
     26 H7          0.0021   -0.0041    0.0020 H         1 <0>         0.0861
     27 H8          1.0099    1.4631    0.0003 H         1 <0>         0.0812
     28 H9         -2.2058   -0.9676    0.9445 H         1 <0>         0.1331
     29 H10        -4.5708   -0.1808    4.4138 H         1 <0>         0.1349
     30 H11        -3.4025    1.9465    4.7622 H         1 <0>         0.1261
     31 H12        -0.6452    3.7388    4.7466 H         1 <0>         0.0760
     32 H13        -1.0378    4.8541    3.4161 H         1 <0>         0.0849
     33 H14        -2.3448    4.0596    4.3264 H         1 <0>         0.0885
     34 H15        -4.6953   -2.2642    4.4224 H         1 <0>         0.0547
     35 H16        -5.9033   -1.4351    3.4116 H         1 <0>         0.0548
     36 H17        -5.5758   -3.1675    3.1666 H         1 <0>         0.1004
@<TRIPOS>BOND
     1    1    2 1
     2    1   20 1
     3    1   21 1
     4    1   22 1
     5    2    3 2
     6    2    4 am
     7    4    5 1
     8    4   23 1
     9    5    6 1
    10    5   24 1
    11    5   25 1
    12    6    7 1
    13    6   26 1
    14    6   27 1
    15    7   15 2
    16    7    8 1
    17    8   13 ar
    18    8    9 ar
    19    9   10 ar
    20    9   28 1
    21   10   11 ar
    22   10   18 1
    23   11   12 ar
    24   11   29 1
    25   12   13 ar
    26   12   30 1
    27   13   14 1
    28   14   15 1
    29   14   17 1
    30   15   16 1
    31   17   31 1
    32   17   32 1
    33   17   33 1
    34   18   19 1
    35   19   34 1
    36   19   35 1
    37   19   36 1
@<TRIPOS>MOLECULE
ZINC13473198
   38    39     0     0     0
SMALL
USER_CHARGES
N-[2-(2-iodo-5-methoxy-1-methyl-4-nitro-indol-3-yl)ethyl]acetamide
@<TRIPOS>ATOM
      1 C1         -0.9970    1.7576   -3.6299 C.3       1 <0>        -0.1707
      2 C2         -0.2681    1.2584   -2.4090 C.2       1 <0>         0.5121
      3 O1          0.7262    0.5752   -2.5335 O.2       1 <0>        -0.5452
      4 N1         -0.7213    1.5711   -1.1789 N.am      1 <0>        -0.7289
      5 C3         -0.0127    1.0858    0.0080 C.3       1 <0>         0.1236
      6 C4         -0.7288    1.5792    1.2668 C.3       1 <0>        -0.0734
      7 C5          0.0000    1.0800    2.4877 C.2       1 <0>        -0.1254
      8 C6          1.0882    1.7622    3.1923 C.ar      1 <0>        -0.0364
      9 C7          1.4480    0.9211    4.2607 C.ar      1 <0>         0.0902
     10 C8          2.4694    1.3063    5.1220 C.ar      1 <0>        -0.0401
     11 C9          3.1208    2.5039    4.9256 C.ar      1 <0>        -0.1705
     12 C10         2.7670    3.3386    3.8691 C.ar      1 <0>         0.1671
     13 C11         1.7552    2.9743    3.0030 C.ar      1 <0>        -0.0227
     14 N2          1.3806    3.8628    1.8797 N.pl3     1 <0>         0.0315
     15 O2          0.5220    4.7125    2.0355 O.2       1 <0>        -0.1411
     16 O3          1.9311    3.7441    0.7997 O.3       1 <0>        -0.1313
     17 O4          3.4204    4.5176    3.6895 O.3       1 <0>        -0.3107
     18 C12         4.4565    4.8337    4.6215 C.3       1 <0>         0.0247
     19 N3          0.6300   -0.1878    4.1980 N.pl3     1 <0>        -0.4576
     20 C13        -0.2290   -0.0720    3.1393 C.2       1 <0>         0.0843
     21 I1         -1.6824   -1.4849    2.6097 I         1 <0>         0.0526
     22 C14         0.6704   -1.3176    5.1297 C.3       1 <0>         0.0661
     23 H1         -1.8587    2.3499   -3.3218 H         1 <0>         0.0760
     24 H2         -0.3259    2.3756   -4.2264 H         1 <0>         0.0964
     25 H3         -1.3337    0.9085   -4.2246 H         1 <0>         0.0943
     26 H4         -1.5165    2.1175   -1.0793 H         1 <0>         0.4018
     27 H5          0.0021   -0.0041    0.0020 H         1 <0>         0.0694
     28 H6          1.0099    1.4631    0.0003 H         1 <0>         0.0750
     29 H7         -0.7436    2.6691    1.2728 H         1 <0>         0.0831
     30 H8         -1.7514    1.2020    1.2746 H         1 <0>         0.0903
     31 H9          2.7517    0.6666    5.9451 H         1 <0>         0.1466
     32 H10         3.9137    2.7980    5.5974 H         1 <0>         0.1587
     33 H11         4.0386    4.8807    5.6271 H         1 <0>         0.0646
     34 H12         5.2267    4.0634    4.5837 H         1 <0>         0.0648
     35 H13         4.8944    5.7983    4.3646 H         1 <0>         0.1113
     36 H14        -0.0056   -1.1258    5.9629 H         1 <0>         0.0838
     37 H15         0.3614   -2.2261    4.6128 H         1 <0>         0.0912
     38 H16         1.6856   -1.4415    5.5067 H         1 <0>         0.0945
@<TRIPOS>BOND
     1    1    2 1
     2    1   23 1
     3    1   24 1
     4    1   25 1
     5    2    3 2
     6    2    4 am
     7    4    5 1
     8    4   26 1
     9    5    6 1
    10    5   27 1
    11    5   28 1
    12    6    7 1
    13    6   29 1
    14    6   30 1
    15    7   20 2
    16    7    8 1
    17    8   13 ar
    18    8    9 ar
    19    9   10 ar
    20    9   19 1
    21   10   11 ar
    22   10   31 1
    23   11   12 ar
    24   11   32 1
    25   12   13 ar
    26   12   17 1
    27   13   14 1
    28   14   15 2
    29   14   16 1
    30   17   18 1
    31   18   33 1
    32   18   34 1
    33   18   35 1
    34   19   20 1
    35   19   22 1
    36   20   21 1
    37   22   36 1
    38   22   37 1
    39   22   38 1
@<TRIPOS>MOLECULE
ZINC13738641
   41    42     0     0     0
SMALL
USER_CHARGES
4-chloro-N-[2-(7-methoxy-1-naphthyl)ethyl]butanamide
@<TRIPOS>ATOM
      1 C1         -3.3709    4.2579    6.0002 C.3       1 <0>         0.0255
      2 O1         -2.6222    3.9608    4.8199 O.3       1 <0>        -0.3173
      3 C2         -3.1456    4.3759    3.6365 C.ar      1 <0>         0.1329
      4 C3         -4.3653    5.0599    3.6235 C.ar      1 <0>        -0.1906
      5 C4         -4.9140    5.4882    2.4553 C.ar      1 <0>        -0.0624
      6 C5         -4.2495    5.2417    1.2412 C.ar      1 <0>        -0.0829
      7 C6         -4.7884    5.6699    0.0161 C.ar      1 <0>        -0.0917
      8 C7         -4.1187    5.4139   -1.1408 C.ar      1 <0>        -0.1268
      9 C8         -2.9004    4.7369   -1.1300 C.ar      1 <0>        -0.0956
     10 C9         -2.3508    4.3023    0.0366 C.ar      1 <0>        -0.0819
     11 C10        -3.0133    4.5482    1.2518 C.ar      1 <0>        -0.0043
     12 C11        -2.4737    4.1192    2.4755 C.ar      1 <0>        -0.1587
     13 C12        -1.0356    3.5666    0.0263 C.3       1 <0>        -0.0915
     14 C13        -1.2947    2.0587    0.0194 C.3       1 <0>         0.1227
     15 N1         -0.0162    1.3436    0.0094 N.am      1 <0>        -0.7334
     16 C14         0.0021   -0.0041    0.0020 C.2       1 <0>         0.5124
     17 O2         -1.0399   -0.6247    0.0086 O.2       1 <0>        -0.5338
     18 C15         1.3172   -0.7397   -0.0145 C.3       1 <0>        -0.1410
     19 C16         1.0581   -2.2476   -0.0201 C.3       1 <0>        -0.1169
     20 C17         2.3933   -2.9945   -0.0369 C.3       1 <0>        -0.0344
     21 Cl1         2.0879   -4.7714   -0.0435 Cl        1 <0>        -0.1811
     22 H1         -3.4876    5.3376    6.0943 H         1 <0>         0.0564
     23 H2         -4.3535    3.7906    5.9345 H         1 <0>         0.0566
     24 H3         -2.8428    3.8723    6.8722 H         1 <0>         0.1019
     25 H4         -4.8785    5.2510    4.5544 H         1 <0>         0.1315
     26 H5         -5.8566    6.0153    2.4602 H         1 <0>         0.1330
     27 H6         -5.7296    6.1991   -0.0074 H         1 <0>         0.1276
     28 H7         -4.5354    5.7442   -2.0809 H         1 <0>         0.1250
     29 H8         -2.3872    4.5506   -2.0618 H         1 <0>         0.1246
     30 H9         -1.5328    3.5895    2.4983 H         1 <0>         0.1347
     31 H10        -0.4634    3.8328    0.9151 H         1 <0>         0.0830
     32 H11        -0.4719    3.8425   -0.8648 H         1 <0>         0.0825
     33 H12        -1.8669    1.7925   -0.8694 H         1 <0>         0.0706
     34 H13        -1.8585    1.7828    0.9106 H         1 <0>         0.0719
     35 H14         0.8172    1.8399    0.0041 H         1 <0>         0.4015
     36 H15         1.8766   -0.4639   -0.9084 H         1 <0>         0.0978
     37 H16         1.8936   -0.4734    0.8715 H         1 <0>         0.0980
     38 H17         0.4987   -2.5235    0.8738 H         1 <0>         0.0837
     39 H18         0.4817   -2.5139   -0.9061 H         1 <0>         0.0836
     40 H19         2.9527   -2.7186   -0.9308 H         1 <0>         0.0934
     41 H20         2.9697   -2.7282    0.8491 H         1 <0>         0.0935
@<TRIPOS>BOND
     1    1    2 1
     2    1   22 1
     3    1   23 1
     4    1   24 1
     5    2    3 1
     6    3   12 ar
     7    3    4 ar
     8    4    5 ar
     9    4   25 1
    10    5    6 ar
    11    5   26 1
    12    6   11 ar
    13    6    7 ar
    14    7    8 ar
    15    7   27 1
    16    8    9 ar
    17    8   28 1
    18    9   10 ar
    19    9   29 1
    20   10   11 ar
    21   10   13 1
    22   11   12 ar
    23   12   30 1
    24   13   14 1
    25   13   31 1
    26   13   32 1
    27   14   15 1
    28   14   33 1
    29   14   34 1
    30   15   16 am
    31   15   35 1
    32   16   17 2
    33   16   18 1
    34   18   19 1
    35   18   36 1
    36   18   37 1
    37   19   20 1
    38   19   38 1
    39   19   39 1
    40   20   21 1
    41   20   40 1
    42   20   41 1
@<TRIPOS>MOLECULE
ZINC00008252
   33    34     0     0     0
SMALL
USER_CHARGES
2,2,2-trifluoro-N-[2-(5-methoxy-1H-indol-3-yl)ethyl]acetamide
@<TRIPOS>ATOM
      1 C1         -0.0623   -2.7062   -0.0128 C.3       1 <0>         0.0278
      2 O1          1.2106   -2.0569   -0.0210 O.3       1 <0>        -0.3186
      3 C2          1.2100   -0.6970   -0.0132 C.ar      1 <0>         0.1040
      4 C3          0.0021   -0.0041    0.0020 C.ar      1 <0>        -0.1773
      5 C4         -0.0166    1.3726    0.0096 C.ar      1 <0>        -0.0879
      6 C5          1.1785    2.0843    0.0020 C.ar      1 <0>         0.0640
      7 C6          2.3999    1.3876   -0.0134 C.ar      1 <0>        -0.0599
      8 C7          2.4068   -0.0091   -0.0210 C.ar      1 <0>        -0.1138
      9 C8          3.4495    2.4094   -0.0180 C.2       1 <0>        -0.1832
     10 C9          2.8358    3.6033   -0.0057 C.2       1 <0>         0.0765
     11 N1          1.4789    3.4302    0.0064 N.pl3     1 <0>        -0.5932
     12 H1          0.8256    4.1471    0.0168 H         1 <0>         0.4180
     13 C10         4.9367    2.1664   -0.0335 C.3       1 <0>        -0.0524
     14 C11         5.4060    1.9678   -1.4762 C.3       1 <0>         0.1192
     15 N2          6.8517    1.7315   -1.4913 N.am      1 <0>        -0.7009
     16 C12         7.4892    1.5287   -2.6614 C.2       1 <0>         0.4830
     17 O2          6.8660    1.5418   -3.7017 O.2       1 <0>        -0.4737
     18 C13         8.9764    1.2857   -2.6769 C.3       1 <0>         0.4508
     19 F1          9.4055    1.1041   -3.9960 F         1 <0>        -0.1520
     20 F2          9.6348    2.3872   -2.1198 F         1 <0>        -0.1673
     21 F3          9.2695    0.1401   -1.9293 F         1 <0>        -0.1666
     22 H2         -0.6111   -2.4187    0.8840 H         1 <0>         0.0544
     23 H3         -0.6278   -2.4085   -0.8958 H         1 <0>         0.0545
     24 H4          0.0809   -3.7867   -0.0203 H         1 <0>         0.0998
     25 H5         -0.9287   -0.5517    0.0083 H         1 <0>         0.1325
     26 H6         -0.9591    1.8999    0.0169 H         1 <0>         0.1247
     27 H7          3.3429   -0.5476   -0.0332 H         1 <0>         0.1300
     28 H8          3.3389    4.5590   -0.0059 H         1 <0>         0.1729
     29 H9          5.4497    3.0246    0.4005 H         1 <0>         0.0811
     30 H10         5.1651    1.2738    0.5489 H         1 <0>         0.0818
     31 H11         4.8930    1.1096   -1.9102 H         1 <0>         0.0811
     32 H12         5.1776    2.8603   -2.0587 H         1 <0>         0.0794
     33 H13         7.3502    1.7210   -0.6593 H         1 <0>         0.4114
@<TRIPOS>BOND
     1    1    2 1
     2    1   22 1
     3    1   23 1
     4    1   24 1
     5    2    3 1
     6    3    8 ar
     7    3    4 ar
     8    4    5 ar
     9    4   25 1
    10    5    6 ar
    11    5   26 1
    12    6   11 1
    13    6    7 ar
    14    7    8 ar
    15    7    9 1
    16    8   27 1
    17    9   10 2
    18    9   13 1
    19   10   11 1
    20   10   28 1
    21   11   12 1
    22   13   14 1
    23   13   29 1
    24   13   30 1
    25   14   15 1
    26   14   31 1
    27   14   32 1
    28   15   16 am
    29   15   33 1
    30   16   17 2
    31   16   18 1
    32   18   19 1
    33   18   20 1
    34   18   21 1
@<TRIPOS>MOLECULE
ZINC02130542
   33    34     0     0     0
SMALL
USER_CHARGES
N-[2-(6-methoxy-1H-indol-3-yl)ethyl]acetamide
@<TRIPOS>ATOM
      1 C1         -1.9965   11.6586   -1.9583 C.3       1 <0>        -0.1719
      2 C2         -2.3790   10.3801   -1.2581 C.2       1 <0>         0.5082
      3 O1         -3.4055    9.8082   -1.5580 O.2       1 <0>        -0.5467
      4 N1         -1.5802    9.8724   -0.2986 N.am      1 <0>        -0.7334
      5 C3         -1.9520    8.6295    0.3821 C.3       1 <0>         0.1212
      6 C4         -0.8830    8.2759    1.4179 C.3       1 <0>        -0.0527
      7 C5         -1.2654    6.9974    2.1182 C.2       1 <0>        -0.1632
      8 C6         -1.9221    6.8914    3.2835 C.2       1 <0>         0.0545
      9 N2         -2.0908    5.5709    3.6058 N.pl3     1 <0>        -0.5933
     10 H1         -2.5377    5.2444    4.4024 H         1 <0>         0.4183
     11 C7         -1.5322    4.7761    2.6300 C.ar      1 <0>         0.1360
     12 C8         -0.9907    5.6342    1.6553 C.ar      1 <0>        -0.1332
     13 C9         -0.3517    5.1021    0.5338 C.ar      1 <0>        -0.0301
     14 C10        -0.2540    3.7477    0.3859 C.ar      1 <0>        -0.2223
     15 C11        -0.7874    2.8922    1.3462 C.ar      1 <0>         0.1486
     16 C12        -1.4288    3.3997    2.4608 C.ar      1 <0>        -0.1735
     17 O2         -0.6816    1.5467    1.1837 O.3       1 <0>        -0.3181
     18 C13        -0.0127    1.0858    0.0080 C.3       1 <0>         0.0280
     19 H2         -1.0505   12.0231   -1.5580 H         1 <0>         0.0756
     20 H3         -1.8904   11.4700   -3.0266 H         1 <0>         0.0949
     21 H4         -2.7720   12.4073   -1.7968 H         1 <0>         0.0948
     22 H5         -0.7592   10.3298   -0.0587 H         1 <0>         0.4010
     23 H6         -2.0304    7.8245   -0.3485 H         1 <0>         0.0685
     24 H7         -2.9119    8.7618    0.8813 H         1 <0>         0.0675
     25 H8         -0.8046    9.0809    2.1486 H         1 <0>         0.0768
     26 H9          0.0769    8.1436    0.9187 H         1 <0>         0.0768
     27 H10        -2.2667    7.7239    3.8790 H         1 <0>         0.1711
     28 H11         0.0641    5.7599   -0.2152 H         1 <0>         0.1250
     29 H12         0.2409    3.3375   -0.4820 H         1 <0>         0.1297
     30 H13        -1.8443    2.7300    3.1991 H         1 <0>         0.1285
     31 H14         0.0021   -0.0041    0.0020 H         1 <0>         0.1004
     32 H15         1.0099    1.4631    0.0003 H         1 <0>         0.0563
     33 H16        -0.5399    1.4469   -0.8751 H         1 <0>         0.0566
@<TRIPOS>BOND
     1    1    2 1
     2    1   19 1
     3    1   20 1
     4    1   21 1
     5    2    3 2
     6    2    4 am
     7    4    5 1
     8    4   22 1
     9    5    6 1
    10    5   23 1
    11    5   24 1
    12    6    7 1
    13    6   25 1
    14    6   26 1
    15    7   12 1
    16    7    8 2
    17    8    9 1
    18    8   27 1
    19    9   10 1
    20    9   11 1
    21   11   16 ar
    22   11   12 ar
    23   12   13 ar
    24   13   14 ar
    25   13   28 1
    26   14   15 ar
    27   14   29 1
    28   15   16 ar
    29   15   17 1
    30   16   30 1
    31   17   18 1
    32   18   31 1
    33   18   32 1
    34   18   33 1
@<TRIPOS>MOLECULE
ZINC01645263
   33    34     0     0     0
SMALL
USER_CHARGES
N-[2-(2-bromo-5-methoxy-1H-indol-3-yl)ethyl]acetamide
@<TRIPOS>ATOM
      1 C1         -0.9970    1.7576   -3.6299 C.3       1 <0>        -0.1734
      2 C2         -0.2681    1.2584   -2.4090 C.2       1 <0>         0.5090
      3 O1          0.7262    0.5752   -2.5335 O.2       1 <0>        -0.5454
      4 N1         -0.7213    1.5711   -1.1789 N.am      1 <0>        -0.7323
      5 C3         -0.0127    1.0858    0.0080 C.3       1 <0>         0.1231
      6 C4         -0.7288    1.5792    1.2668 C.3       1 <0>        -0.0621
      7 C5          0.0000    1.0800    2.4877 C.2       1 <0>        -0.1214
      8 C6         -0.2494   -0.1765    3.1981 C.ar      1 <0>        -0.0617
      9 C7         -1.1461   -1.2317    3.0149 C.ar      1 <0>        -0.1045
     10 C8         -1.1255   -2.3030    3.8853 C.ar      1 <0>         0.1049
     11 C9         -0.2168   -2.3330    4.9401 C.ar      1 <0>        -0.1677
     12 C10         0.6767   -1.3017    5.1256 C.ar      1 <0>        -0.0877
     13 C11         0.6693   -0.2115    4.2622 C.ar      1 <0>         0.0817
     14 N2          1.4109    0.9500    4.1972 N.pl3     1 <0>        -0.5783
     15 H1          2.1195    1.1941    4.8130 H         1 <0>         0.4213
     16 C12         0.9979    1.7060    3.1343 C.2       1 <0>         0.0805
     17 Br1         1.7242    3.3825    2.6468 Br        1 <0>         0.0162
     18 O2         -1.9964   -3.3330    3.7122 O.3       1 <0>        -0.3170
     19 C13        -1.9218   -4.4100    4.6485 C.3       1 <0>         0.0271
     20 H2         -0.5909    2.7250   -3.9253 H         1 <0>         0.0938
     21 H3         -0.8696    1.0458   -4.4455 H         1 <0>         0.0934
     22 H4         -2.0577    1.8631   -3.4021 H         1 <0>         0.0801
     23 H5         -1.5165    2.1175   -1.0793 H         1 <0>         0.4016
     24 H6          0.0021   -0.0041    0.0020 H         1 <0>         0.0707
     25 H7          1.0099    1.4631    0.0003 H         1 <0>         0.0692
     26 H8         -0.7436    2.6691    1.2728 H         1 <0>         0.0835
     27 H9         -1.7514    1.2020    1.2746 H         1 <0>         0.0857
     28 H10        -1.8511   -1.2097    2.1970 H         1 <0>         0.1340
     29 H11        -0.2088   -3.1757    5.6155 H         1 <0>         0.1359
     30 H12         1.3762   -1.3346    5.9479 H         1 <0>         0.1286
     31 H13        -2.6688   -5.1628    4.3967 H         1 <0>         0.1008
     32 H14        -0.9283   -4.8568    4.6098 H         1 <0>         0.0552
     33 H15        -2.1112   -4.0319    5.6531 H         1 <0>         0.0551
@<TRIPOS>BOND
     1    1    2 1
     2    1   20 1
     3    1   21 1
     4    1   22 1
     5    2    3 2
     6    2    4 am
     7    4    5 1
     8    4   23 1
     9    5    6 1
    10    5   24 1
    11    5   25 1
    12    6    7 1
    13    6   26 1
    14    6   27 1
    15    7   16 2
    16    7    8 1
    17    8   13 ar
    18    8    9 ar
    19    9   10 ar
    20    9   28 1
    21   10   11 ar
    22   10   18 1
    23   11   12 ar
    24   11   29 1
    25   12   13 ar
    26   12   30 1
    27   13   14 1
    28   14   15 1
    29   14   16 1
    30   16   17 1
    31   18   19 1
    32   19   31 1
    33   19   32 1
    34   19   33 1
@<TRIPOS>MOLECULE
ZINC00021169
   39    40     0     0     0
SMALL
USER_CHARGES
N-[2-(6-methoxyindan-1-yl)ethyl]propanamide
@<TRIPOS>ATOM
      1 C1         -1.3394  -10.5514    3.4115 C.3       1 <0>        -0.1386
      2 C2         -0.9229   -9.0802    3.3542 C.3       1 <0>        -0.1450
      3 C3         -1.7308   -8.3702    2.2987 C.2       1 <0>         0.5091
      4 O1         -2.5583   -8.9807    1.6556 O.2       1 <0>        -0.5392
      5 N1         -1.5339   -7.0568    2.0694 N.am      1 <0>        -0.7351
      6 C4         -2.3193   -6.3665    1.0433 C.3       1 <0>         0.1173
      7 C5         -1.9028   -4.8954    0.9860 C.3       1 <0>        -0.1232
      8 C6         -2.6297   -4.2042   -0.1693 C.3       1 <0>        -0.0437
      9 H1         -2.4248   -4.7205   -1.1072 H         1 <0>         0.0935
     10 C7         -4.1490   -4.1660    0.1001 C.3       1 <0>        -0.1182
     11 C8         -4.5625   -2.8162   -0.5237 C.3       1 <0>        -0.0790
     12 C9         -3.3184   -1.9555   -0.4665 C.ar      1 <0>        -0.1316
     13 C10        -2.2074   -2.7535   -0.2628 C.ar      1 <0>        -0.0534
     14 C11        -0.9510   -2.1794   -0.1824 C.ar      1 <0>        -0.1377
     15 C12        -0.8043   -0.8054   -0.2949 C.ar      1 <0>         0.1268
     16 C13        -1.9201   -0.0071   -0.4992 C.ar      1 <0>        -0.2059
     17 C14        -3.1716   -0.5833   -0.5842 C.ar      1 <0>        -0.0675
     18 O2          0.4299   -0.2427   -0.2110 O.3       1 <0>        -0.3178
     19 C15         0.5054    1.1782   -0.3421 C.3       1 <0>         0.0273
     20 H2         -2.3990  -10.6197    3.6578 H         1 <0>         0.0616
     21 H3         -1.1608  -11.0175    2.4425 H         1 <0>         0.0616
     22 H4         -0.7550  -11.0649    4.1750 H         1 <0>         0.0620
     23 H5          0.1367   -9.0119    3.1079 H         1 <0>         0.0931
     24 H6         -1.1015   -8.6141    4.3232 H         1 <0>         0.0930
     25 H7         -0.8722   -6.5685    2.5838 H         1 <0>         0.4011
     26 H8         -3.3789   -6.4348    1.2896 H         1 <0>         0.0701
     27 H9         -2.1407   -6.8326    0.0743 H         1 <0>         0.0681
     28 H10        -0.8262   -4.8284    0.8298 H         1 <0>         0.0731
     29 H11        -2.1650   -4.4068    1.9244 H         1 <0>         0.0737
     30 H12        -4.3529   -4.1766    1.1708 H         1 <0>         0.0758
     31 H13        -4.6520   -4.9940   -0.3994 H         1 <0>         0.0806
     32 H14        -5.3644   -2.3609    0.0574 H         1 <0>         0.0745
     33 H15        -4.8781   -2.9566   -1.5575 H         1 <0>         0.0795
     34 H16        -0.0828   -2.8029   -0.0277 H         1 <0>         0.1278
     35 H17        -1.8098    1.0633   -0.5919 H         1 <0>         0.1297
     36 H18        -4.0401    0.0386   -0.7436 H         1 <0>         0.1235
     37 H19         1.5444    1.4963   -0.2562 H         1 <0>         0.1013
     38 H20         0.1140    1.4747   -1.3152 H         1 <0>         0.0560
     39 H21        -0.0845    1.6476    0.4452 H         1 <0>         0.0559
@<TRIPOS>BOND
     1    1    2 1
     2    1   20 1
     3    1   21 1
     4    1   22 1
     5    2    3 1
     6    2   23 1
     7    2   24 1
     8    3    4 2
     9    3    5 am
    10    5    6 1
    11    5   25 1
    12    6    7 1
    13    6   26 1
    14    6   27 1
    15    7    8 1
    16    7   28 1
    17    7   29 1
    18    8    9 1
    19    8   13 1
    20    8   10 1
    21   10   11 1
    22   10   30 1
    23   10   31 1
    24   11   12 1
    25   11   32 1
    26   11   33 1
    27   12   17 ar
    28   12   13 ar
    29   13   14 ar
    30   14   15 ar
    31   14   34 1
    32   15   16 ar
    33   15   18 1
    34   16   17 ar
    35   16   35 1
    36   17   36 1
    37   18   19 1
    38   19   37 1
    39   19   38 1
    40   19   39 1
@<TRIPOS>MOLECULE
ZINC03825731
   39    40     0     0     0
SMALL
USER_CHARGES
N-[2-(6-methoxyindan-1-yl)ethyl]propanamide
@<TRIPOS>ATOM
      1 C1          1.5612   -2.8950    4.0659 C.3       1 <0>        -0.1386
      2 C2          0.9434   -2.6893    2.6814 C.3       1 <0>        -0.1450
      3 C3         -0.3707   -3.4228    2.6036 C.2       1 <0>         0.5091
      4 O1         -0.7735   -4.0486    3.5613 O.2       1 <0>        -0.5392
      5 N1         -1.0984   -3.3835    1.4699 N.am      1 <0>        -0.7351
      6 C4         -2.3759   -4.0966    1.3943 C.3       1 <0>         0.1173
      7 C5         -2.9937   -3.8909    0.0097 C.3       1 <0>        -0.1233
      8 C6         -4.3844   -4.5276   -0.0279 C.3       1 <0>        -0.0436
      9 H1         -5.0110   -4.1130    0.7617 H         1 <0>         0.0934
     10 C7         -4.2761   -6.0598    0.1232 C.3       1 <0>        -0.1182
     11 C8         -5.4264   -6.5635   -0.7741 C.3       1 <0>        -0.0787
     12 C9         -5.6256   -5.4777   -1.8100 C.ar      1 <0>        -0.1317
     13 C10        -5.0275   -4.3051   -1.3801 C.ar      1 <0>        -0.0536
     14 C11        -5.0822   -3.1735   -2.1721 C.ar      1 <0>        -0.1375
     15 C12        -5.7370   -3.2077   -3.3936 C.ar      1 <0>         0.1269
     16 C13        -6.3371   -4.3826   -3.8218 C.ar      1 <0>        -0.2061
     17 C14        -6.2798   -5.5122   -3.0303 C.ar      1 <0>        -0.0676
     18 O2         -5.7904   -2.0932   -4.1695 O.3       1 <0>        -0.3178
     19 C15        -6.4816   -2.2027   -5.4155 C.3       1 <0>         0.0273
     20 H2          2.5117   -2.3644    4.1221 H         1 <0>         0.0620
     21 H3          0.8837   -2.5084    4.8272 H         1 <0>         0.0616
     22 H4          1.7284   -3.9588    4.2347 H         1 <0>         0.0616
     23 H5          0.7762   -1.6255    2.5125 H         1 <0>         0.0931
     24 H6          1.6209   -3.0759    1.9201 H         1 <0>         0.0930
     25 H7         -0.7762   -2.8831    0.7039 H         1 <0>         0.4011
     26 H8         -2.2087   -5.1604    1.5631 H         1 <0>         0.0700
     27 H9         -3.0534   -3.7100    2.1556 H         1 <0>         0.0681
     28 H10        -3.0770   -2.8237   -0.1960 H         1 <0>         0.0731
     29 H11        -2.3597   -4.3578   -0.7440 H         1 <0>         0.0738
     30 H12        -3.3139   -6.4182   -0.2427 H         1 <0>         0.0755
     31 H13        -4.4301   -6.3587    1.1601 H         1 <0>         0.0806
     32 H14        -5.1473   -7.5001   -1.2567 H         1 <0>         0.0747
     33 H15        -6.3345   -6.6962   -0.1859 H         1 <0>         0.0795
     34 H16        -4.6147   -2.2594   -1.8370 H         1 <0>         0.1277
     35 H17        -6.8480   -4.4138   -4.7728 H         1 <0>         0.1297
     36 H18        -6.7468   -6.4270   -3.3642 H         1 <0>         0.1235
     37 H19        -6.4494   -1.2446   -5.9342 H         1 <0>         0.1013
     38 H20        -6.0034   -2.9651   -6.0304 H         1 <0>         0.0559
     39 H21        -7.5191   -2.4819   -5.2321 H         1 <0>         0.0560
@<TRIPOS>BOND
     1    1    2 1
     2    1   20 1
     3    1   21 1
     4    1   22 1
     5    2    3 1
     6    2   23 1
     7    2   24 1
     8    3    4 2
     9    3    5 am
    10    5    6 1
    11    5   25 1
    12    6    7 1
    13    6   26 1
    14    6   27 1
    15    7    8 1
    16    7   28 1
    17    7   29 1
    18    8    9 1
    19    8   13 1
    20    8   10 1
    21   10   11 1
    22   10   30 1
    23   10   31 1
    24   11   12 1
    25   11   32 1
    26   11   33 1
    27   12   17 ar
    28   12   13 ar
    29   13   14 ar
    30   14   15 ar
    31   14   34 1
    32   15   16 ar
    33   15   18 1
    34   16   17 ar
    35   16   35 1
    36   17   36 1
    37   18   19 1
    38   19   37 1
    39   19   38 1
    40   19   39 1
@<TRIPOS>MOLECULE
ZINC00057237
   33    34     0     0     0
SMALL
USER_CHARGES

@<TRIPOS>ATOM
      1 C1         -0.0184    1.5028    0.0103 C.3       1 <0>        -0.1755
      2 C2          0.0021   -0.0041    0.0020 C.2       1 <0>         0.5081
      3 O1          1.0605   -0.5961   -0.0113 O.2       1 <0>        -0.5448
      4 N1         -1.1558   -0.6938    0.0094 N.am      1 <0>        -0.7351
      5 C3         -1.1360   -2.1586    0.0013 C.3       1 <0>         0.1214
      6 C4         -2.5713   -2.6882    0.0122 C.3       1 <0>        -0.0516
      7 C5         -2.5509   -4.1950    0.0039 C.2       1 <0>        -0.1811
      8 C6         -2.6386   -4.9886   -1.0752 C.2       1 <0>         0.0787
      9 N2         -2.5852   -6.3017   -0.6943 N.pl3     1 <0>        -0.5896
     10 H1         -2.6296   -7.0595   -1.2982 H         1 <0>         0.4201
     11 C7         -2.4585   -6.3870    0.6762 C.ar      1 <0>         0.0736
     12 C8         -2.4252   -5.0711    1.1715 C.ar      1 <0>        -0.0564
     13 C9         -2.2953   -4.8442    2.5434 C.ar      1 <0>        -0.1579
     14 C10        -2.1964   -5.9174    3.4060 C.ar      1 <0>         0.1160
     15 C11        -2.2255   -7.2199    2.9125 C.ar      1 <0>        -0.0410
     16 C12        -2.3631   -7.4552    1.5615 C.ar      1 <0>        -0.0817
     17 Cl1        -2.0995   -8.5588    4.0103 Cl        1 <0>        -0.0504
     18 O2         -2.0697   -5.7023    4.7430 O.3       1 <0>        -0.3058
     19 C13        -2.0462   -4.3426    5.1820 C.3       1 <0>         0.0263
     20 H2          1.0042    1.8801    0.0026 H         1 <0>         0.0925
     21 H3         -0.5455    1.8639   -0.8728 H         1 <0>         0.0883
     22 H4         -0.5286    1.8543    0.9071 H         1 <0>         0.0882
     23 H5         -2.0023   -0.2203    0.0200 H         1 <0>         0.4013
     24 H6         -0.6258   -2.5101   -0.8955 H         1 <0>         0.0679
     25 H7         -0.6088   -2.5197    0.8844 H         1 <0>         0.0676
     26 H8         -3.0815   -2.3367    0.9090 H         1 <0>         0.0764
     27 H9         -3.0985   -2.3271   -0.8709 H         1 <0>         0.0783
     28 H10        -2.7372   -4.6419   -2.0933 H         1 <0>         0.1747
     29 H11        -2.2719   -3.8350    2.9271 H         1 <0>         0.1366
     30 H12        -2.3830   -8.4688    1.1891 H         1 <0>         0.1394
     31 H13        -1.9414   -4.3127    6.2665 H         1 <0>         0.1028
     32 H14        -1.2040   -3.8265    4.7212 H         1 <0>         0.0565
     33 H15        -2.9754   -3.8515    4.8931 H         1 <0>         0.0562
@<TRIPOS>BOND
     1    1    2 1
     2    1   20 1
     3    1   21 1
     4    1   22 1
     5    2    3 2
     6    2    4 am
     7    4    5 1
     8    4   23 1
     9    5    6 1
    10    5   24 1
    11    5   25 1
    12    6    7 1
    13    6   26 1
    14    6   27 1
    15    7   12 1
    16    7    8 2
    17    8    9 1
    18    8   28 1
    19    9   10 1
    20    9   11 1
    21   11   16 ar
    22   11   12 ar
    23   12   13 ar
    24   13   14 ar
    25   13   29 1
    26   14   15 ar
    27   14   18 1
    28   15   16 ar
    29   15   17 1
    30   16   30 1
    31   18   19 1
    32   19   31 1
    33   19   32 1
    34   19   33 1
@<TRIPOS>MOLECULE
ZINC00008253
   37    39     0     0     0
SMALL
USER_CHARGES

@<TRIPOS>ATOM
      1 C1         -0.0173    1.4248    0.0099 C.3       1 <0>         0.0280
      2 O1          0.0021   -0.0041    0.0020 O.3       1 <0>        -0.3189
      3 C2          0.6262   -0.6188    1.0422 C.ar      1 <0>         0.1023
      4 C3          1.2036    0.1448    2.0537 C.ar      1 <0>        -0.1775
      5 C4          1.8389   -0.4613    3.1141 C.ar      1 <0>        -0.0890
      6 C5          1.9085   -1.8489    3.1822 C.ar      1 <0>         0.0644
      7 C6          1.3266   -2.6227    2.1624 C.ar      1 <0>        -0.0603
      8 C7          0.6800   -1.9971    1.0940 C.ar      1 <0>        -0.1121
      9 C8          1.5696   -4.0209    2.5256 C.2       1 <0>        -0.1791
     10 C9          2.2490   -4.0139    3.6834 C.2       1 <0>         0.0723
     11 N1          2.4612   -2.7256    4.0919 N.pl3     1 <0>        -0.5942
     12 H1          2.9307   -2.4674    4.9004 H         1 <0>         0.4173
     13 C10         1.1380   -5.2370    1.7472 C.3       1 <0>        -0.0517
     14 C11         2.1780   -5.5481    0.6690 C.3       1 <0>         0.1231
     15 N2          1.7584   -6.7303   -0.0876 N.am      1 <0>        -0.7286
     16 C12         2.5251   -7.1928   -1.0949 C.2       1 <0>         0.5414
     17 O2          3.5624   -6.6303   -1.3750 O.2       1 <0>        -0.5389
     18 C13         2.0934   -8.4089   -1.8733 C.3       1 <0>        -0.1977
     19 C14         2.9193   -9.6857   -1.7042 C.3       1 <0>        -0.1525
     20 C15         3.0070   -8.8845   -3.0047 C.3       1 <0>        -0.1477
     21 H2          1.0053    1.8021    0.0021 H         1 <0>         0.0543
     22 H3         -0.5445    1.7859   -0.8732 H         1 <0>         0.0994
     23 H4         -0.5275    1.7763    0.9067 H         1 <0>         0.0541
     24 H5          1.1527    1.2226    2.0056 H         1 <0>         0.1322
     25 H6          2.2835    0.1405    3.8929 H         1 <0>         0.1243
     26 H7          0.2283   -2.5882    0.3111 H         1 <0>         0.1296
     27 H8          2.5792   -4.8948    4.2139 H         1 <0>         0.1719
     28 H9          1.0491   -6.0880    2.4226 H         1 <0>         0.0769
     29 H10         0.1737   -5.0441    1.2770 H         1 <0>         0.0777
     30 H11         2.2669   -4.6972   -0.0063 H         1 <0>         0.0696
     31 H12         3.1422   -5.7411    1.1393 H         1 <0>         0.0672
     32 H13         0.9287   -7.1802    0.1364 H         1 <0>         0.4016
     33 H14         1.0183   -8.5196   -2.0143 H         1 <0>         0.1243
     34 H15         3.7749   -9.6461   -1.0300 H         1 <0>         0.0991
     35 H16         2.3875  -10.6367   -1.7339 H         1 <0>         0.1052
     36 H17         2.5329   -9.3084   -3.8899 H         1 <0>         0.1040
     37 H18         3.9203   -8.3177   -3.1861 H         1 <0>         0.1081
@<TRIPOS>BOND
     1    1    2 1
     2    1   21 1
     3    1   22 1
     4    1   23 1
     5    2    3 1
     6    3    8 ar
     7    3    4 ar
     8    4    5 ar
     9    4   24 1
    10    5    6 ar
    11    5   25 1
    12    6   11 1
    13    6    7 ar
    14    7    8 ar
    15    7    9 1
    16    8   26 1
    17    9   10 2
    18    9   13 1
    19   10   11 1
    20   10   27 1
    21   11   12 1
    22   13   14 1
    23   13   28 1
    24   13   29 1
    25   14   15 1
    26   14   30 1
    27   14   31 1
    28   15   16 am
    29   15   32 1
    30   16   17 2
    31   16   18 1
    32   18   20 1
    33   18   19 1
    34   18   33 1
    35   19   20 1
    36   19   34 1
    37   19   35 1
    38   20   36 1
    39   20   37 1
@<TRIPOS>MOLECULE
ZINC00057060
   33    34     0     0     0
SMALL
USER_CHARGES

@<TRIPOS>ATOM
      1 C1         -0.0184    1.5028    0.0103 C.3       1 <0>        -0.1753
      2 C2          0.0021   -0.0041    0.0020 C.2       1 <0>         0.5080
      3 O1          1.0605   -0.5961   -0.0113 O.2       1 <0>        -0.5457
      4 N1         -1.1558   -0.6938    0.0094 N.am      1 <0>        -0.7345
      5 C3         -1.1360   -2.1586    0.0013 C.3       1 <0>         0.1215
      6 C4         -2.5713   -2.6882    0.0122 C.3       1 <0>        -0.0516
      7 C5         -2.5509   -4.1950    0.0039 C.2       1 <0>        -0.1794
      8 C6         -2.6385   -4.9886   -1.0753 C.2       1 <0>         0.0724
      9 N2         -2.5847   -6.3015   -0.6946 N.pl3     1 <0>        -0.5943
     10 H1         -2.6290   -7.0593   -1.2986 H         1 <0>         0.4174
     11 C7         -2.4577   -6.3869    0.6759 C.ar      1 <0>         0.0645
     12 C8         -2.4252   -5.0710    1.1714 C.ar      1 <0>        -0.0603
     13 C9         -2.2964   -4.8447    2.5432 C.ar      1 <0>        -0.1120
     14 C10        -2.1981   -5.9187    3.4055 C.ar      1 <0>         0.1023
     15 C11        -2.2271   -7.2201    2.9116 C.ar      1 <0>        -0.1777
     16 C12        -2.3616   -7.4550    1.5612 C.ar      1 <0>        -0.0891
     17 O2         -2.0719   -5.7044    4.7424 O.3       1 <0>        -0.3189
     18 C13        -1.9750   -6.8594    5.5783 C.3       1 <0>         0.0281
     19 H2          1.0042    1.8801    0.0026 H         1 <0>         0.0921
     20 H3         -0.5455    1.8639   -0.8728 H         1 <0>         0.0879
     21 H4         -0.5286    1.8543    0.9071 H         1 <0>         0.0882
     22 H5         -2.0023   -0.2203    0.0200 H         1 <0>         0.4011
     23 H6         -0.6258   -2.5101   -0.8955 H         1 <0>         0.0668
     24 H7         -0.6088   -2.5197    0.8844 H         1 <0>         0.0689
     25 H8         -3.0815   -2.3367    0.9090 H         1 <0>         0.0774
     26 H9         -3.0985   -2.3271   -0.8709 H         1 <0>         0.0766
     27 H10        -2.7373   -4.6419   -2.0933 H         1 <0>         0.1719
     28 H11        -2.2733   -3.8356    2.9275 H         1 <0>         0.1295
     29 H12        -2.1492   -8.0532    3.5943 H         1 <0>         0.1322
     30 H13        -2.3815   -8.4686    1.1887 H         1 <0>         0.1243
     31 H14        -1.8789   -6.5481    6.6184 H         1 <0>         0.0994
     32 H15        -2.8719   -7.4679    5.4625 H         1 <0>         0.0541
     33 H16        -1.1004   -7.4432    5.2914 H         1 <0>         0.0542
@<TRIPOS>BOND
     1    1    2 1
     2    1   19 1
     3    1   20 1
     4    1   21 1
     5    2    3 2
     6    2    4 am
     7    4    5 1
     8    4   22 1
     9    5    6 1
    10    5   23 1
    11    5   24 1
    12    6    7 1
    13    6   25 1
    14    6   26 1
    15    7   12 1
    16    7    8 2
    17    8    9 1
    18    8   27 1
    19    9   10 1
    20    9   11 1
    21   11   16 ar
    22   11   12 ar
    23   12   13 ar
    24   13   14 ar
    25   13   28 1
    26   14   15 ar
    27   14   17 1
    28   15   16 ar
    29   15   29 1
    30   16   30 1
    31   17   18 1
    32   18   31 1
    33   18   32 1
    34   18   33 1
@<TRIPOS>MOLECULE
ZINC00057060
   33    34     0     0     0
SMALL
USER_CHARGES

@<TRIPOS>ATOM
      1 C1         -0.2014    1.4875    0.0186 C.3       1 <0>        -0.1912
      2 C2         -0.0853   -0.0150    0.0084 C.2       1 <0>         0.3417
      3 N1          0.1188   -0.6538    1.1107 N.2       1 <0>        -0.5604
      4 C3          0.1213    0.0676    2.3858 C.3       1 <0>         0.0638
      5 C4         -1.0457   -0.4172    3.2483 C.3       1 <0>        -0.0342
      6 C5         -1.0432    0.3249    4.5599 C.2       1 <0>        -0.1776
      7 C6         -0.4818   -0.0855    5.7082 C.2       1 <0>         0.0699
      8 N2         -0.6813    0.8505    6.6858 N.pl3     1 <0>        -0.5952
      9 H1         -0.3672    0.7767    7.6006 H         1 <0>         0.4169
     10 C7         -1.3952    1.9148    6.1765 C.ar      1 <0>         0.0648
     11 C8         -1.6473    1.6336    4.8216 C.ar      1 <0>        -0.0617
     12 C9         -2.3565    2.5473    4.0393 C.ar      1 <0>        -0.1129
     13 C10        -2.8036    3.7256    4.6034 C.ar      1 <0>         0.1011
     14 C11        -2.5496    4.0025    5.9440 C.ar      1 <0>        -0.1787
     15 C12        -1.8576    3.1052    6.7268 C.ar      1 <0>        -0.0888
     16 O1         -3.4945    4.6194    3.8464 O.3       1 <0>        -0.3197
     17 C13        -3.9280    5.8183    4.4921 C.3       1 <0>         0.0282
     18 O2         -0.1949   -0.6921   -1.1535 O.3       1 <0>        -0.4711
     19 H2          0.6882    1.9176    0.4787 H         1 <0>         0.0880
     20 H3         -0.2935    1.8518   -1.0046 H         1 <0>         0.0790
     21 H4         -1.0830    1.7799    0.5891 H         1 <0>         0.0902
     22 H5          1.0603   -0.1189    2.9070 H         1 <0>         0.0820
     23 H6          0.0155    1.1362    2.1988 H         1 <0>         0.0483
     24 H7         -1.9847   -0.2307    2.7272 H         1 <0>         0.0678
     25 H8         -0.9399   -1.4859    3.4353 H         1 <0>         0.0794
     26 H9          0.0484   -1.0170    5.8408 H         1 <0>         0.1728
     27 H10        -2.5539    2.3338    2.9992 H         1 <0>         0.1269
     28 H11        -2.9033    4.9272    6.3756 H         1 <0>         0.1318
     29 H12        -1.6649    3.3308    7.7653 H         1 <0>         0.1240
     30 H13        -4.5878    5.5657    5.3222 H         1 <0>         0.0542
     31 H14        -3.0616    6.3616    4.8691 H         1 <0>         0.0540
     32 H15        -4.4653    6.4419    3.7776 H         1 <0>         0.0992
     33 H16        -0.3468   -0.1285   -1.9244 H         1 <0>         0.4075
@<TRIPOS>BOND
     1    1    2 1
     2    1   19 1
     3    1   20 1
     4    1   21 1
     5    2    3 2
     6    2   18 1
     7    3    4 1
     8    4    5 1
     9    4   22 1
    10    4   23 1
    11    5    6 1
    12    5   24 1
    13    5   25 1
    14    6   11 1
    15    6    7 2
    16    7    8 1
    17    7   26 1
    18    8    9 1
    19    8   10 1
    20   10   15 ar
    21   10   11 ar
    22   11   12 ar
    23   12   13 ar
    24   12   27 1
    25   13   14 ar
    26   13   16 1
    27   14   15 ar
    28   14   28 1
    29   15   29 1
    30   16   17 1
    31   17   30 1
    32   17   31 1
    33   17   32 1
    34   18   33 1
@<TRIPOS>MOLECULE
ZINC00023738
   47    49     0     0     0
SMALL
USER_CHARGES
N-[2-[3-(3-aminophenyl)-7-methoxy-1-naphthyl]ethyl]acetamide
@<TRIPOS>ATOM
      1 C1         -6.2849   10.2263   -2.4796 C.3       1 <0>        -0.1734
      2 C2         -4.9526    9.5222   -2.4965 C.2       1 <0>         0.5088
      3 O1         -4.3837    9.3261   -3.5496 O.2       1 <0>        -0.5447
      4 N1         -4.3933    9.1104   -1.3416 N.am      1 <0>        -0.7334
      5 C3         -3.0981    8.4259   -1.3581 C.3       1 <0>         0.1210
      6 C4         -2.6922    8.0678    0.0730 C.3       1 <0>        -0.0916
      7 C5         -1.3599    7.3638    0.0560 C.ar      1 <0>        -0.0784
      8 C6         -1.3089    6.0065    0.0473 C.ar      1 <0>        -0.0834
      9 C7         -0.0776    5.3321    0.0319 C.ar      1 <0>        -0.0514
     10 C8          1.1109    6.0384    0.0306 C.ar      1 <0>        -0.0804
     11 C9          1.0806    7.4410    0.0340 C.ar      1 <0>        -0.0788
     12 C10        -0.1689    8.1119    0.0496 C.ar      1 <0>        -0.0019
     13 C11        -0.1961    9.5160    0.0573 C.ar      1 <0>        -0.1580
     14 C12         0.9773   10.2152    0.0502 C.ar      1 <0>         0.1336
     15 C13         2.2083    9.5516    0.0344 C.ar      1 <0>        -0.1898
     16 C14         2.2695    8.1933    0.0266 C.ar      1 <0>        -0.0618
     17 O2          0.9482   11.5736    0.0581 O.3       1 <0>        -0.3168
     18 C15         2.2072   12.2496    0.0496 C.3       1 <0>         0.0255
     19 C16        -0.0516    3.8489    0.0232 C.ar      1 <0>         0.0032
     20 C17        -1.2455    3.1288    0.0308 C.ar      1 <0>        -0.1684
     21 C18        -1.2198    1.7487    0.0173 C.ar      1 <0>        -0.0680
     22 C19        -0.0126    1.0758    0.0080 C.ar      1 <0>        -0.1974
     23 C20         1.1824    1.7852    0.0004 C.ar      1 <0>         0.2183
     24 C21         1.1651    3.1722    0.0080 C.ar      1 <0>        -0.1911
     25 N2          2.4006    1.1017   -0.0145 N.pl3     1 <0>        -0.8795
     26 H1         -6.1269   11.3006   -2.3850 H         1 <0>         0.0942
     27 H2         -6.8180   10.0177   -3.4071 H         1 <0>         0.0936
     28 H3         -6.8735    9.8698   -1.6342 H         1 <0>         0.0800
     29 H4         -4.8482    9.2672   -0.4994 H         1 <0>         0.4016
     30 H5         -2.3458    9.0823   -1.7957 H         1 <0>         0.0713
     31 H6         -3.1758    7.5155   -1.9523 H         1 <0>         0.0707
     32 H7         -3.4444    7.4115    0.5106 H         1 <0>         0.0832
     33 H8         -2.6144    8.9783    0.6672 H         1 <0>         0.0840
     34 H9         -2.2275    5.4386    0.0519 H         1 <0>         0.1298
     35 H10         2.0552    5.5144    0.0232 H         1 <0>         0.1304
     36 H11        -1.1402   10.0404    0.0688 H         1 <0>         0.1356
     37 H12         3.1229   10.1259    0.0287 H         1 <0>         0.1317
     38 H13         3.2270    7.6938    0.0144 H         1 <0>         0.1327
     39 H14         2.7791   11.9637    0.9324 H         1 <0>         0.0565
     40 H15         2.7616   11.9737   -0.8474 H         1 <0>         0.0566
     41 H16         2.0413   13.3268    0.0573 H         1 <0>         0.1018
     42 H17        -2.1908    3.6510    0.0426 H         1 <0>         0.1219
     43 H18        -2.1459    1.1930    0.0184 H         1 <0>         0.1237
     44 H19         0.0021   -0.0041    0.0020 H         1 <0>         0.1198
     45 H20         2.0925    3.7255    0.0024 H         1 <0>         0.1220
     46 H21         2.4126    0.1318   -0.0195 H         1 <0>         0.3989
     47 H22         3.2346    1.5970   -0.0198 H         1 <0>         0.3979
@<TRIPOS>BOND
     1    1    2 1
     2    1   26 1
     3    1   27 1
     4    1   28 1
     5    2    3 2
     6    2    4 am
     7    4    5 1
     8    4   29 1
     9    5    6 1
    10    5   30 1
    11    5   31 1
    12    6    7 1
    13    6   32 1
    14    6   33 1
    15    7   12 ar
    16    7    8 ar
    17    8    9 ar
    18    8   34 1
    19    9   10 ar
    20    9   19 1
    21   10   11 ar
    22   10   35 1
    23   11   16 ar
    24   11   12 ar
    25   12   13 ar
    26   13   14 ar
    27   13   36 1
    28   14   15 ar
    29   14   17 1
    30   15   16 ar
    31   15   37 1
    32   16   38 1
    33   17   18 1
    34   18   39 1
    35   18   40 1
    36   18   41 1
    37   19   24 ar
    38   19   20 ar
    39   20   21 ar
    40   20   42 1
    41   21   22 ar
    42   21   43 1
    43   22   23 ar
    44   22   44 1
    45   23   24 ar
    46   23   25 1
    47   24   45 1
    48   25   46 1
    49   25   47 1
@<TRIPOS>MOLECULE
ZINC02567732
   37    38     0     0     0
SMALL
USER_CHARGES

@<TRIPOS>ATOM
      1 C1          1.1369    1.0633    0.0027 C.3       1 <0>        -0.1753
      2 C2          0.9375   -0.4305    0.0092 C.2       1 <0>         0.5081
      3 O1          1.8981   -1.1704    0.0314 O.2       1 <0>        -0.5462
      4 N1         -0.3085   -0.9441   -0.0098 N.am      1 <0>        -0.7341
      5 C3         -0.5023   -2.3962   -0.0035 C.3       1 <0>         0.1228
      6 C4         -1.9994   -2.7110   -0.0283 C.3       1 <0>        -0.0539
      7 C5         -2.1988   -4.2047   -0.0219 C.2       1 <0>        -0.1710
      8 C6         -2.3725   -4.9916   -1.0955 C.2       1 <0>         0.0665
      9 N2         -2.5215   -6.2930   -0.7012 N.pl3     1 <0>        -0.5933
     10 H1         -2.6601   -7.0442   -1.2990 H         1 <0>         0.4181
     11 C7         -2.4451   -6.3777    0.6731 C.ar      1 <0>         0.0870
     12 C8         -2.2334   -5.0740    1.1569 C.ar      1 <0>        -0.0802
     13 C9         -2.1084   -4.8504    2.5293 C.ar      1 <0>        -0.0692
     14 C10        -2.1904   -5.9167    3.4049 C.ar      1 <0>         0.1271
     15 C11        -2.3961   -7.2074    2.9214 C.ar      1 <0>        -0.1131
     16 C12        -2.5301   -7.4369    1.5704 C.ar      1 <0>        -0.1077
     17 N3         -2.0657   -5.6992    4.7841 N.am      1 <0>        -0.6471
     18 C13        -2.5245   -4.5555    5.3300 C.2       1 <0>         0.6452
     19 O2         -3.1318   -3.7562    4.6453 O.2       1 <0>        -0.5519
     20 O3         -2.3099   -4.2987    6.6343 O.3       1 <0>        -0.3633
     21 C14        -2.8241   -3.0676    7.1463 C.3       1 <0>         0.0533
     22 H2          2.2034    1.2875    0.0204 H         1 <0>         0.0922
     23 H3          0.6917    1.4853   -0.8983 H         1 <0>         0.0881
     24 H4          0.6597    1.4973    0.8813 H         1 <0>         0.0880
     25 H5         -1.0768   -0.3523   -0.0276 H         1 <0>         0.4014
     26 H6         -0.0251   -2.8303   -0.8822 H         1 <0>         0.0673
     27 H7         -0.0571   -2.8183    0.8975 H         1 <0>         0.0673
     28 H8         -2.4765   -2.2769    0.8503 H         1 <0>         0.0786
     29 H9         -2.4445   -2.2889   -0.9293 H         1 <0>         0.0771
     30 H10        -2.3921   -4.6479   -2.1192 H         1 <0>         0.1721
     31 H11        -1.9482   -3.8504    2.9045 H         1 <0>         0.1354
     32 H12        -2.4585   -8.0343    3.6133 H         1 <0>         0.1327
     33 H13        -2.6877   -8.4415    1.2064 H         1 <0>         0.1281
     34 H14        -1.6493   -6.3717    5.3455 H         1 <0>         0.4176
     35 H15        -2.5827   -2.9857    8.2060 H         1 <0>         0.1064
     36 H16        -2.3758   -2.2339    6.6059 H         1 <0>         0.0628
     37 H17        -3.9062   -3.0442    7.0173 H         1 <0>         0.0632
@<TRIPOS>BOND
     1    1    2 1
     2    1   22 1
     3    1   23 1
     4    1   24 1
     5    2    3 2
     6    2    4 am
     7    4    5 1
     8    4   25 1
     9    5    6 1
    10    5   26 1
    11    5   27 1
    12    6    7 1
    13    6   28 1
    14    6   29 1
    15    7   12 1
    16    7    8 2
    17    8    9 1
    18    8   30 1
    19    9   10 1
    20    9   11 1
    21   11   16 ar
    22   11   12 ar
    23   12   13 ar
    24   13   14 ar
    25   13   31 1
    26   14   15 ar
    27   14   17 1
    28   15   16 ar
    29   15   32 1
    30   16   33 1
    31   17   18 am
    32   17   34 1
    33   18   19 2
    34   18   20 1
    35   20   21 1
    36   21   35 1
    37   21   36 1
    38   21   37 1
@<TRIPOS>MOLECULE
ZINC13473197
   35    36     0     0     0
SMALL
USER_CHARGES
N-[2-(2-iodo-5-methoxy-4-nitro-1H-indol-3-yl)ethyl]acetamide
@<TRIPOS>ATOM
      1 C1         -7.8227   -2.2840   -2.5426 C.3       1 <0>        -0.1744
      2 C2         -6.3324   -2.5076   -2.5587 C.2       1 <0>         0.5120
      3 O1         -5.7433   -2.5915   -3.6155 O.2       1 <0>        -0.5437
      4 N1         -5.6544   -2.6144   -1.3988 N.am      1 <0>        -0.7304
      5 C3         -4.2057   -2.8318   -1.4146 C.3       1 <0>         0.1239
      6 C4         -3.6870   -2.9158    0.0224 C.3       1 <0>        -0.0750
      7 C5         -2.1968   -3.1395    0.0062 C.2       1 <0>        -0.1221
      8 C6         -1.1605   -2.1041    0.0018 C.ar      1 <0>        -0.0359
      9 C7          0.0702   -2.7848   -0.0136 C.ar      1 <0>         0.0904
     10 C8          1.2554   -2.0577   -0.0210 C.ar      1 <0>        -0.0405
     11 C9          1.2185   -0.6808   -0.0190 C.ar      1 <0>        -0.1697
     12 C10         0.0021   -0.0041    0.0020 C.ar      1 <0>         0.1683
     13 C11        -1.1859   -0.7079    0.0096 C.ar      1 <0>        -0.0236
     14 N2         -2.4786    0.0132    0.0253 N.pl3     1 <0>         0.0312
     15 O2         -3.0202    0.3152   -1.0230 O.2       1 <0>        -0.1308
     16 O3         -3.0005    0.3046    1.0865 O.3       1 <0>        -0.1407
     17 O4         -0.0164    1.3557    0.0095 O.3       1 <0>        -0.3104
     18 C12         1.2479    2.0217    0.0010 C.3       1 <0>         0.0244
     19 N3         -0.2124   -4.1350   -0.0181 N.pl3     1 <0>        -0.5639
     20 H1          0.4503   -4.8432   -0.0285 H         1 <0>         0.4289
     21 C13        -1.5672   -4.3260   -0.0062 C.2       1 <0>         0.0849
     22 I1         -2.5187   -6.1924   -0.0082 I         1 <0>         0.0552
     23 H2         -8.0447   -1.3529   -2.0211 H         1 <0>         0.0901
     24 H3         -8.1922   -2.2241   -3.5662 H         1 <0>         0.0926
     25 H4         -8.3089   -3.1132   -2.0286 H         1 <0>         0.0876
     26 H5         -6.1256   -2.5473   -0.5536 H         1 <0>         0.4021
     27 H6         -3.7194   -2.0026   -1.9285 H         1 <0>         0.0751
     28 H7         -3.9837   -3.7628   -1.9361 H         1 <0>         0.0698
     29 H8         -4.1733   -3.7450    0.5363 H         1 <0>         0.0912
     30 H9         -3.9090   -1.9848    0.5438 H         1 <0>         0.0838
     31 H10         2.2047   -2.5725   -0.0324 H         1 <0>         0.1489
     32 H11         2.1420   -0.1210   -0.0296 H         1 <0>         0.1593
     33 H12         1.8173    1.7317    0.8840 H         1 <0>         0.0650
     34 H13         1.8003    1.7412   -0.8958 H         1 <0>         0.0651
     35 H14         1.0905    3.1002    0.0083 H         1 <0>         0.1116
@<TRIPOS>BOND
     1    1    2 1
     2    1   23 1
     3    1   24 1
     4    1   25 1
     5    2    3 2
     6    2    4 am
     7    4    5 1
     8    4   26 1
     9    5    6 1
    10    5   27 1
    11    5   28 1
    12    6    7 1
    13    6   29 1
    14    6   30 1
    15    7   21 2
    16    7    8 1
    17    8   13 ar
    18    8    9 ar
    19    9   10 ar
    20    9   19 1
    21   10   11 ar
    22   10   31 1
    23   11   12 ar
    24   11   32 1
    25   12   13 ar
    26   12   17 1
    27   13   14 1
    28   14   15 2
    29   14   16 1
    30   17   18 1
    31   18   33 1
    32   18   34 1
    33   18   35 1
    34   19   20 1
    35   19   21 1
    36   21   22 1
@<TRIPOS>MOLECULE
ZINC13473199
   35    36     0     0     0
SMALL
USER_CHARGES
N-[2-(2-iodo-5-methoxy-6-nitro-1H-indol-3-yl)ethyl]acetamide
@<TRIPOS>ATOM
      1 C1          7.8841   -2.1006    2.5270 C.3       1 <0>        -0.1755
      2 C2          6.4005   -2.3648    2.5393 C.2       1 <0>         0.5098
      3 O1          5.8133   -2.4770    3.5945 O.2       1 <0>        -0.5425
      4 N1          5.7262   -2.4763    1.3777 N.am      1 <0>        -0.7340
      5 C3          4.2840   -2.7331    1.3896 C.3       1 <0>         0.1222
      6 C4          3.7685   -2.8144   -0.0486 C.3       1 <0>        -0.0657
      7 C5          2.2849   -3.0786   -0.0363 C.2       1 <0>        -0.1298
      8 C6          1.2209   -2.0718   -0.0207 C.ar      1 <0>        -0.0161
      9 C7          1.2083   -0.6751   -0.0188 C.ar      1 <0>        -0.1644
     10 C8          0.0021   -0.0041    0.0020 C.ar      1 <0>         0.1660
     11 C9         -1.1960   -0.7139    0.0096 C.ar      1 <0>        -0.0465
     12 C10        -1.1954   -2.0908    0.0022 C.ar      1 <0>        -0.0157
     13 C11         0.0093   -2.7856   -0.0130 C.ar      1 <0>         0.0748
     14 N2          0.3283   -4.1276   -0.0232 N.pl3     1 <0>        -0.5674
     15 H1         -0.3151   -4.8535   -0.0205 H         1 <0>         0.4279
     16 C12         1.6877   -4.2818   -0.0371 C.2       1 <0>         0.0930
     17 I1          2.6894   -6.1217   -0.0559 I         1 <0>         0.0524
     18 N3         -2.4822    0.0186    0.0254 N.pl3     1 <0>         0.0348
     19 O2         -3.5334   -0.5965    0.0321 O.2       1 <0>        -0.1784
     20 O3         -2.4893    1.2366    0.0316 O.3       1 <0>        -0.1253
     21 O4         -0.0164    1.3557    0.0095 O.3       1 <0>        -0.2822
     22 C13         1.2479    2.0217    0.0010 C.3       1 <0>         0.0193
     23 H2          8.0811   -1.1578    2.0166 H         1 <0>         0.0888
     24 H3          8.2514   -2.0427    3.5516 H         1 <0>         0.0934
     25 H4          8.3930   -2.9102    2.0038 H         1 <0>         0.0892
     26 H5          6.1959   -2.3866    0.5337 H         1 <0>         0.4024
     27 H6          3.7751   -1.9235    1.9128 H         1 <0>         0.0703
     28 H7          4.0870   -3.6759    1.9000 H         1 <0>         0.0705
     29 H8          4.2773   -3.6240   -0.5718 H         1 <0>         0.0868
     30 H9          3.9654   -1.8716   -0.5590 H         1 <0>         0.0888
     31 H10         2.1367   -0.1234   -0.0295 H         1 <0>         0.1541
     32 H11        -2.1305   -2.6313    0.0079 H         1 <0>         0.1632
     33 H12         1.8173    1.7317    0.8840 H         1 <0>         0.0617
     34 H13         1.8003    1.7412   -0.8958 H         1 <0>         0.0613
     35 H14         1.0905    3.1002    0.0083 H         1 <0>         0.1124
@<TRIPOS>BOND
     1    1    2 1
     2    1   23 1
     3    1   24 1
     4    1   25 1
     5    2    3 2
     6    2    4 am
     7    4    5 1
     8    4   26 1
     9    5    6 1
    10    5   27 1
    11    5   28 1
    12    6    7 1
    13    6   29 1
    14    6   30 1
    15    7   16 2
    16    7    8 1
    17    8   13 ar
    18    8    9 ar
    19    9   10 ar
    20    9   31 1
    21   10   11 ar
    22   10   21 1
    23   11   12 ar
    24   11   18 1
    25   12   13 ar
    26   12   32 1
    27   13   14 1
    28   14   15 1
    29   14   16 1
    30   16   17 1
    31   18   19 2
    32   18   20 1
    33   21   22 1
    34   22   33 1
    35   22   34 1
    36   22   35 1
@<TRIPOS>MOLECULE
ZINC13473200
   38    39     0     0     0
SMALL
USER_CHARGES
N-[2-(2-iodo-5-methoxy-1-methyl-6-nitro-indol-3-yl)ethyl]acetamide
@<TRIPOS>ATOM
      1 C1          0.1619    0.9601   -4.8946 C.3       1 <0>        -0.1754
      2 C2         -0.5435    1.4461   -3.6547 C.2       1 <0>         0.5098
      3 O1         -1.5399    2.1304   -3.7528 O.2       1 <0>        -0.5427
      4 N1         -0.0670    1.1202   -2.4368 N.am      1 <0>        -0.7340
      5 C3         -0.7527    1.5927   -1.2315 C.3       1 <0>         0.1227
      6 C4         -0.0127    1.0858    0.0080 C.3       1 <0>        -0.0640
      7 C5         -0.7181    1.5718    1.2479 C.2       1 <0>        -0.1335
      8 C6         -1.7926    0.8820    1.9657 C.ar      1 <0>        -0.0165
      9 C7         -2.4632   -0.3285    1.7763 C.ar      1 <0>        -0.1637
     10 C8         -3.4581   -0.7022    2.6573 C.ar      1 <0>         0.1646
     11 C9         -3.7913    0.1211    3.7299 C.ar      1 <0>        -0.0470
     12 C10        -3.1367    1.3164    3.9264 C.ar      1 <0>        -0.0149
     13 C11        -2.1319    1.7113    3.0496 C.ar      1 <0>         0.0746
     14 N2         -1.3152    2.8209    2.9833 N.pl3     1 <0>        -0.4599
     15 C12        -0.4765    2.7169    1.9074 C.2       1 <0>         0.0925
     16 I1          0.9673    4.1351    1.3661 I         1 <0>         0.0500
     17 C13        -1.3382    3.9407    3.9276 C.3       1 <0>         0.0626
     18 N3         -4.8597   -0.2925    4.6673 N.pl3     1 <0>         0.0353
     19 O2         -5.1561    0.4234    5.6071 O.2       1 <0>        -0.1798
     20 O3         -5.4425   -1.3487    4.4988 O.3       1 <0>        -0.1256
     21 O4         -4.1152   -1.8791    2.4772 O.3       1 <0>        -0.2825
     22 C14        -3.7240   -2.6758    1.3572 C.3       1 <0>         0.0196
     23 H1          0.1767   -0.1298   -4.9006 H         1 <0>         0.0888
     24 H2         -0.3653    1.3211   -5.7777 H         1 <0>         0.0933
     25 H3          1.1845    1.3373   -4.9023 H         1 <0>         0.0891
     26 H4          0.7300    0.5728   -2.3584 H         1 <0>         0.4023
     27 H5         -1.7753    1.2154   -1.2238 H         1 <0>         0.0701
     28 H6         -0.7675    2.6825   -1.2255 H         1 <0>         0.0700
     29 H7          0.0021   -0.0041    0.0020 H         1 <0>         0.0882
     30 H8          1.0099    1.4631    0.0003 H         1 <0>         0.0860
     31 H9         -2.2053   -0.9680    0.9450 H         1 <0>         0.1537
     32 H10        -3.4037    1.9475    4.7612 H         1 <0>         0.1610
     33 H11        -0.6467    3.7402    4.7460 H         1 <0>         0.0843
     34 H12        -1.0389    4.8548    3.4147 H         1 <0>         0.0914
     35 H13        -2.3462    4.0604    4.3248 H         1 <0>         0.0952
     36 H14        -3.8780   -2.1107    0.4379 H         1 <0>         0.0614
     37 H15        -2.6704   -2.9397    1.4493 H         1 <0>         0.0611
     38 H16        -4.3252   -3.5846    1.3301 H         1 <0>         0.1121
@<TRIPOS>BOND
     1    1    2 1
     2    1   23 1
     3    1   24 1
     4    1   25 1
     5    2    3 2
     6    2    4 am
     7    4    5 1
     8    4   26 1
     9    5    6 1
    10    5   27 1
    11    5   28 1
    12    6    7 1
    13    6   29 1
    14    6   30 1
    15    7   15 2
    16    7    8 1
    17    8   13 ar
    18    8    9 ar
    19    9   10 ar
    20    9   31 1
    21   10   11 ar
    22   10   21 1
    23   11   12 ar
    24   11   18 1
    25   12   13 ar
    26   12   32 1
    27   13   14 1
    28   14   15 1
    29   14   17 1
    30   15   16 1
    31   17   33 1
    32   17   34 1
    33   17   35 1
    34   18   19 2
    35   18   20 1
    36   21   22 1
    37   22   36 1
    38   22   37 1
    39   22   38 1
@<TRIPOS>MOLECULE
ZINC00033882
   23    23     0     0     0
SMALL
USER_CHARGES

@<TRIPOS>ATOM
      1 C1         -0.0167    1.3779    0.0096 C.ar      1 <0>        -0.1006
      2 C2          1.1696    2.0886    0.0021 C.ar      1 <0>        -0.1264
      3 C3          2.3802    1.4154   -0.0130 C.ar      1 <0>         0.0999
      4 C4          2.3990    0.0236   -0.0206 C.ar      1 <0>         0.0875
      5 C5          1.2071   -0.6822   -0.0130 C.ar      1 <0>        -0.1216
      6 C6          0.0021   -0.0041    0.0020 C.ar      1 <0>        -0.1052
      7 C7         -1.2936   -0.7736    0.0102 C.3       1 <0>        -0.1010
      8 C8         -1.7458   -1.0263   -1.4294 C.3       1 <0>        -0.0078
      9 N1         -3.0088   -1.7764   -1.4215 N.4       1 <0>        -0.6379
     10 O1          3.5850   -0.6417   -0.0359 O.3       1 <0>        -0.4857
     11 O2          3.5476    2.1129   -0.0209 O.3       1 <0>        -0.4857
     12 H1         -0.9598    1.9038    0.0259 H         1 <0>         0.1332
     13 H2          1.1522    3.1684    0.0077 H         1 <0>         0.1416
     14 H3          1.2190   -1.7621   -0.0189 H         1 <0>         0.1358
     15 H4         -1.1467   -1.7271    0.5175 H         1 <0>         0.0975
     16 H5         -2.0555   -0.1967    0.5344 H         1 <0>         0.0990
     17 H6         -1.8927   -0.0728   -1.9368 H         1 <0>         0.1365
     18 H7         -0.9839   -1.6032   -1.9536 H         1 <0>         0.1360
     19 H8         -2.8729   -2.6590   -0.9518 H         1 <0>         0.4357
     20 H9         -3.7141   -1.2424   -0.9362 H         1 <0>         0.4357
     21 H10         3.9367   -0.8389    0.8430 H         1 <0>         0.3958
     22 H11         3.8938    2.3101    0.8602 H         1 <0>         0.3975
     23 H12        -3.3071   -1.9430   -2.3709 H         1 <0>         0.4400
@<TRIPOS>BOND
     1    1    6 ar
     2    1    2 ar
     3    1   12 1
     4    2    3 ar
     5    2   13 1
     6    3    4 ar
     7    3   11 1
     8    4    5 ar
     9    4   10 1
    10    5    6 ar
    11    5   14 1
    12    6    7 1
    13    7    8 1
    14    7   15 1
    15    7   16 1
    16    8    9 1
    17    8   17 1
    18    8   18 1
    19    9   19 1
    20    9   20 1
    21    9   23 1
    22   10   21 1
    23   11   22 1
@<TRIPOS>MOLECULE
ZINC04118119
   29    31     0     0     0
SMALL
USER_CHARGES

@<TRIPOS>ATOM
      1 C1         -2.1316    1.4651   -0.7019 C.3       1 <0>        -0.1737
      2 C2         -2.0933   -0.0414   -0.7062 C.2       1 <0>         0.5079
      3 O1         -2.9061   -0.6669   -1.3538 O.2       1 <0>        -0.5252
      4 N1         -1.1558   -0.6938    0.0094 N.am      1 <0>        -0.6731
      5 C3         -1.1869   -2.0922    0.0949 C.ar      1 <0>         0.1106
      6 C4          0.0028   -2.8096    0.1854 C.ar      1 <0>        -0.1048
      7 C5         -0.0148   -4.1842    0.2705 C.ar      1 <0>        -0.1230
      8 C6         -1.2264   -4.8691    0.2666 C.ar      1 <0>         0.1283
      9 C7         -2.4258   -4.1480    0.1754 C.ar      1 <0>        -0.0849
     10 C8         -2.4004   -2.7577    0.0951 C.ar      1 <0>        -0.0619
     11 C9         -3.5147   -5.1423    0.1955 C.ar      1 <0>        -0.1060
     12 C10        -4.9029   -5.0443    0.1359 C.ar      1 <0>        -0.0578
     13 C11        -5.6724   -6.1868    0.1775 C.ar      1 <0>        -0.1517
     14 C12        -5.0698   -7.4315    0.2783 C.ar      1 <0>        -0.0813
     15 C13        -3.6976   -7.5429    0.3381 C.ar      1 <0>        -0.1459
     16 C14        -2.9034   -6.4006    0.2975 C.ar      1 <0>         0.1432
     17 N2         -1.5329   -6.2182    0.3389 N.pl3     1 <0>        -0.6168
     18 H1         -0.8802   -6.9323    0.4086 H         1 <0>         0.4174
     19 H2         -2.9511    1.8095   -1.3326 H         1 <0>         0.0967
     20 H3         -2.2826    1.8218    0.3170 H         1 <0>         0.0923
     21 H4         -1.1887    1.8536   -1.0869 H         1 <0>         0.0912
     22 H5         -0.4596   -0.1953    0.4652 H         1 <0>         0.4117
     23 H6          0.9464   -2.2844    0.1886 H         1 <0>         0.1332
     24 H7          0.9135   -4.7317    0.3400 H         1 <0>         0.1297
     25 H8         -3.3238   -2.2014    0.0293 H         1 <0>         0.1371
     26 H9         -5.3748   -4.0760    0.0577 H         1 <0>         0.1256
     27 H10        -6.7489   -6.1123    0.1317 H         1 <0>         0.1275
     28 H11        -5.6812   -8.3213    0.3105 H         1 <0>         0.1295
     29 H12        -3.2382   -8.5172    0.4166 H         1 <0>         0.1241
@<TRIPOS>BOND
     1    1    2 1
     2    1   19 1
     3    1   20 1
     4    1   21 1
     5    2    3 2
     6    2    4 am
     7    4    5 1
     8    4   22 1
     9    5   10 ar
    10    5    6 ar
    11    6    7 ar
    12    6   23 1
    13    7    8 ar
    14    7   24 1
    15    8   17 1
    16    8    9 ar
    17    9   10 ar
    18    9   11 1
    19   10   25 1
    20   11   16 ar
    21   11   12 ar
    22   12   13 ar
    23   12   26 1
    24   13   14 ar
    25   13   27 1
    26   14   15 ar
    27   14   28 1
    28   15   16 ar
    29   15   29 1
    30   16   17 1
    31   17   18 1
@<TRIPOS>MOLECULE
ZINC00088576
   28    30     0     0     0
SMALL
USER_CHARGES

@<TRIPOS>ATOM
      1 C1         -0.0173    1.4248    0.0099 C.3       1 <0>         0.0271
      2 O1          0.0021   -0.0041    0.0020 O.3       1 <0>        -0.3178
      3 C2          0.6062   -0.6075   -1.0564 C.ar      1 <0>         0.1037
      4 C3          1.1743    0.1689   -2.0649 C.ar      1 <0>        -0.1660
      5 C4          1.7883   -0.4261   -3.1428 C.ar      1 <0>        -0.0859
      6 C5          1.8479   -1.8129   -3.2349 C.ar      1 <0>         0.0755
      7 C6          1.2757   -2.6058   -2.2166 C.ar      1 <0>        -0.0603
      8 C7          0.6580   -1.9826   -1.1227 C.ar      1 <0>        -0.1093
      9 C8          1.4893   -3.9458   -2.5797 C.2       1 <0>        -0.1233
     10 C9          2.1652   -3.9563   -3.7723 C.2       1 <0>         0.0215
     11 N1          2.3850   -2.6679   -4.1766 N.pl3     1 <0>        -0.5461
     12 H1          2.8414   -2.3999   -4.9894 H         1 <0>         0.4256
     13 C10         2.5365   -5.2342   -4.4074 C.2       1 <0>         0.5938
     14 O2          3.3306   -5.2803   -5.3277 O.2       1 <0>        -0.5314
     15 N2          1.9536   -6.3528   -3.9190 N.am      1 <0>        -0.7173
     16 C11         0.8857   -6.3135   -2.9286 C.3       1 <0>         0.1123
     17 C12         1.0983   -5.2209   -1.8801 C.3       1 <0>        -0.0695
     18 H2          1.0053    1.8021    0.0021 H         1 <0>         0.0550
     19 H3         -0.5445    1.7859   -0.8732 H         1 <0>         0.0550
     20 H4         -0.5275    1.7763    0.9067 H         1 <0>         0.1005
     21 H5          1.1318    1.2461   -1.9999 H         1 <0>         0.1361
     22 H6          2.2247    0.1847   -3.9193 H         1 <0>         0.1288
     23 H7          0.2204   -2.5793   -0.3360 H         1 <0>         0.1341
     24 H8          2.2590   -7.2155   -4.2406 H         1 <0>         0.4103
     25 H9         -0.0610   -6.1335   -3.4380 H         1 <0>         0.0698
     26 H10         0.8352   -7.2794   -2.4260 H         1 <0>         0.0935
     27 H11         1.8924   -5.5206   -1.1961 H         1 <0>         0.0856
     28 H12         0.1743   -5.0637   -1.3237 H         1 <0>         0.0989
@<TRIPOS>BOND
     1    1    2 1
     2    1   18 1
     3    1   19 1
     4    1   20 1
     5    2    3 1
     6    3    8 ar
     7    3    4 ar
     8    4    5 ar
     9    4   21 1
    10    5    6 ar
    11    5   22 1
    12    6   11 1
    13    6    7 ar
    14    7    8 ar
    15    7    9 1
    16    8   23 1
    17    9   17 1
    18    9   10 2
    19   10   11 1
    20   10   13 1
    21   11   12 1
    22   13   14 2
    23   13   15 am
    24   15   16 1
    25   15   24 1
    26   16   17 1
    27   16   25 1
    28   16   26 1
    29   17   27 1
    30   17   28 1
@<TRIPOS>MOLECULE
ZINC00427807
   33    35     0     0     0
SMALL
USER_CHARGES

@<TRIPOS>ATOM
      1 C1         -0.0165    1.3620    0.0095 C.ar      1 <0>        -0.1459
      2 C2          1.1697    2.0834    0.0021 C.ar      1 <0>        -0.0975
      3 C3          2.3856    1.4362   -0.0134 C.ar      1 <0>        -0.1300
      4 C4          2.4281    0.0456   -0.0212 C.ar      1 <0>         0.0967
      5 C5          1.2234   -0.6807   -0.0132 C.ar      1 <0>        -0.1092
      6 C6          0.0021   -0.0041    0.0020 C.ar      1 <0>        -0.0702
      7 C7          1.6036   -2.0953   -0.0245 C.2       1 <0>        -0.1987
      8 C8          2.9451   -2.1410   -0.0380 C.2       1 <0>         0.0499
      9 N1          3.4551   -0.8713   -0.0363 N.pl3     1 <0>        -0.4840
     10 C9          4.8815   -0.5372   -0.0482 C.3       1 <0>         0.1029
     11 C10         5.3632   -0.3066    1.3856 C.3       1 <0>         0.1024
     12 N2          6.7896    0.0275    1.3737 N.am      1 <0>        -0.7280
     13 C11         7.4337    0.2737    2.5316 C.2       1 <0>         0.5447
     14 O1          6.8325    0.2187    3.5835 O.2       1 <0>        -0.5334
     15 C12         8.9010    0.6173    2.5194 C.3       1 <0>        -0.1986
     16 C13         9.8718   -0.4087    3.1073 C.3       1 <0>        -0.1513
     17 C14         9.5749    0.8860    3.8665 C.3       1 <0>        -0.1462
     18 H1         -0.9613    1.8849    0.0259 H         1 <0>         0.1230
     19 H2          1.1388    3.1630    0.0081 H         1 <0>         0.1251
     20 H3          3.3028    2.0064   -0.0198 H         1 <0>         0.1167
     21 H4         -0.9246   -0.5587    0.0082 H         1 <0>         0.1227
     22 H5          0.9320   -2.9411   -0.0220 H         1 <0>         0.1485
     23 H6          3.5346   -3.0459   -0.0490 H         1 <0>         0.1689
     24 H7          5.4433   -1.3588   -0.4925 H         1 <0>         0.0980
     25 H8          5.0376    0.3686   -0.6341 H         1 <0>         0.0925
     26 H9          4.8013    0.5150    1.8299 H         1 <0>         0.0753
     27 H10         5.2071   -1.2123    1.9715 H         1 <0>         0.0753
     28 H11         7.2704    0.0715    0.5324 H         1 <0>         0.4034
     29 H12         9.2406    1.1984    1.6620 H         1 <0>         0.1257
     30 H13         9.4492   -1.3323    3.5029 H         1 <0>         0.0998
     31 H14        10.8503   -0.5030    2.6365 H         1 <0>         0.1069
     32 H15        10.3581    1.6435    3.8952 H         1 <0>         0.1057
     33 H16         8.9570    0.8142    4.7615 H         1 <0>         0.1088
@<TRIPOS>BOND
     1    1    6 ar
     2    1    2 ar
     3    1   18 1
     4    2    3 ar
     5    2   19 1
     6    3    4 ar
     7    3   20 1
     8    4    9 1
     9    4    5 ar
    10    5    6 ar
    11    5    7 1
    12    6   21 1
    13    7    8 2
    14    7   22 1
    15    8    9 1
    16    8   23 1
    17    9   10 1
    18   10   11 1
    19   10   24 1
    20   10   25 1
    21   11   12 1
    22   11   26 1
    23   11   27 1
    24   12   13 am
    25   12   28 1
    26   13   14 2
    27   13   15 1
    28   15   17 1
    29   15   16 1
    30   15   29 1
    31   16   17 1
    32   16   30 1
    33   16   31 1
    34   17   32 1
    35   17   33 1
@<TRIPOS>MOLECULE
ZINC13763013
   36    37     0     0     0
SMALL
USER_CHARGES
N-[2-(2-iodo-5-methoxy-indol-1-yl)ethyl]propanamide
@<TRIPOS>ATOM
      1 C1         -0.5781    1.4669   -6.1341 C.3       1 <0>        -0.1395
      2 C2          0.1619    0.9601   -4.8946 C.3       1 <0>        -0.1428
      3 C3         -0.5435    1.4461   -3.6547 C.2       1 <0>         0.5125
      4 O1         -1.5399    2.1304   -3.7528 O.2       1 <0>        -0.5319
      5 N1         -0.0670    1.1202   -2.4368 N.am      1 <0>        -0.7332
      6 C4         -0.7527    1.5927   -1.2315 C.3       1 <0>         0.1025
      7 C5         -0.0127    1.0858    0.0080 C.3       1 <0>         0.0944
      8 N2         -0.6984    1.5583    1.2133 N.pl3     1 <0>        -0.4664
      9 C6         -1.7086    0.8834    1.8666 C.ar      1 <0>         0.0833
     10 C7         -2.3494   -0.3297    1.6383 C.ar      1 <0>        -0.0888
     11 C8         -3.3489   -0.7507    2.4867 C.ar      1 <0>        -0.1669
     12 C9         -3.7284    0.0279    3.5772 C.ar      1 <0>         0.1027
     13 C10        -3.1046    1.2351    3.8209 C.ar      1 <0>        -0.1025
     14 C11        -2.0894    1.6720    2.9669 C.ar      1 <0>        -0.0695
     15 C12        -1.2382    2.8634    2.9262 C.2       1 <0>        -0.1458
     16 C13        -0.4285    2.7320    1.8625 C.2       1 <0>         0.0610
     17 I1          1.0284    4.1207    1.2809 I         1 <0>         0.0285
     18 O2         -4.7171   -0.4029    4.4055 O.3       1 <0>        -0.3172
     19 C14        -5.3203   -1.6609    4.0964 C.3       1 <0>         0.0274
     20 H1         -0.0679    1.1154   -7.0309 H         1 <0>         0.0636
     21 H2         -1.6007    1.0896   -6.1264 H         1 <0>         0.0620
     22 H3         -0.5929    2.5568   -6.1281 H         1 <0>         0.0624
     23 H4          1.1845    1.3373   -4.9023 H         1 <0>         0.0951
     24 H5          0.1767   -0.1298   -4.9006 H         1 <0>         0.0946
     25 H6          0.7300    0.5728   -2.3584 H         1 <0>         0.4025
     26 H7         -1.7753    1.2154   -1.2238 H         1 <0>         0.0762
     27 H8         -0.7675    2.6825   -1.2255 H         1 <0>         0.0764
     28 H9          0.0021   -0.0041    0.0020 H         1 <0>         0.1000
     29 H10         1.0099    1.4631    0.0003 H         1 <0>         0.0970
     30 H11        -2.0629   -0.9416    0.7958 H         1 <0>         0.1245
     31 H12        -3.8434   -1.6934    2.3045 H         1 <0>         0.1348
     32 H13        -3.3996    1.8378    4.6672 H         1 <0>         0.1355
     33 H14        -1.2551    3.6889    3.6223 H         1 <0>         0.1577
     34 H15        -6.0912   -1.8852    4.8336 H         1 <0>         0.1006
     35 H16        -5.7690   -1.6146    3.1041 H         1 <0>         0.0548
     36 H17        -4.5608   -2.4425    4.1156 H         1 <0>         0.0546
@<TRIPOS>BOND
     1    1    2 1
     2    1   20 1
     3    1   21 1
     4    1   22 1
     5    2    3 1
     6    2   23 1
     7    2   24 1
     8    3    4 2
     9    3    5 am
    10    5    6 1
    11    5   25 1
    12    6    7 1
    13    6   26 1
    14    6   27 1
    15    7    8 1
    16    7   28 1
    17    7   29 1
    18    8   16 1
    19    8    9 1
    20    9   14 ar
    21    9   10 ar
    22   10   11 ar
    23   10   30 1
    24   11   12 ar
    25   11   31 1
    26   12   13 ar
    27   12   18 1
    28   13   14 ar
    29   13   32 1
    30   14   15 1
    31   15   16 2
    32   15   33 1
    33   16   17 1
    34   18   19 1
    35   19   34 1
    36   19   35 1
    37   19   36 1
@<TRIPOS>MOLECULE
ZINC00024149
   34    35     0     0     0
SMALL
USER_CHARGES

@<TRIPOS>ATOM
      1 C1         -0.1385   -0.0120   -0.4812 C.3       1 <0>        -0.1720
      2 C2         -0.1715    1.4945   -0.5063 C.2       1 <0>         0.5087
      3 O1          0.7123    2.1112   -1.0629 O.2       1 <0>        -0.5248
      4 N1         -1.1858    2.1562    0.0850 N.am      1 <0>        -0.6710
      5 C3         -1.1557    3.5544    0.1686 C.ar      1 <0>         0.1152
      6 C4          0.0608    4.2239    0.1714 C.ar      1 <0>        -0.0902
      7 C5          0.0897    5.6023    0.2480 C.ar      1 <0>        -0.1693
      8 C6         -1.0962    6.3176    0.3332 C.ar      1 <0>         0.1027
      9 C7         -2.3118    5.6487    0.3366 C.ar      1 <0>        -0.1204
     10 C8         -2.3421    4.2708    0.2543 C.ar      1 <0>        -0.1124
     11 O2         -1.0669    7.6744    0.4138 O.3       1 <0>        -0.2539
     12 C9          0.1362    8.2947    0.2955 C.ar      1 <0>         0.1284
     13 C10         0.6700    8.9868    1.3740 C.ar      1 <0>        -0.1595
     14 C11         1.8959    9.6128    1.2561 C.ar      1 <0>        -0.0613
     15 C12         2.5885    9.5614    0.0612 C.ar      1 <0>        -0.2114
     16 C13         2.0566    8.8757   -1.0215 C.ar      1 <0>         0.1459
     17 C14         0.8292    8.2417   -0.9041 C.ar      1 <0>        -0.1771
     18 O3          2.7381    8.8260   -2.1962 O.3       1 <0>        -0.3138
     19 C15         3.9964    9.5016   -2.2454 C.3       1 <0>         0.0257
     20 H1          0.4038   -0.3489    0.4022 H         1 <0>         0.0990
     21 H2         -1.1577   -0.3972   -0.4509 H         1 <0>         0.0831
     22 H3          0.3623   -0.3794   -1.3770 H         1 <0>         0.0982
     23 H4         -1.9367    1.6645    0.4527 H         1 <0>         0.4125
     24 H5          0.9840    3.6669    0.1092 H         1 <0>         0.1460
     25 H6          1.0356    6.1234    0.2457 H         1 <0>         0.1332
     26 H7         -3.2345    6.2060    0.4033 H         1 <0>         0.1385
     27 H8         -3.2884    3.7502    0.2563 H         1 <0>         0.1356
     28 H9          0.1286    9.0322    2.3074 H         1 <0>         0.1356
     29 H10         2.3116   10.1470    2.0976 H         1 <0>         0.1362
     30 H11         3.5444   10.0556   -0.0299 H         1 <0>         0.1344
     31 H12         0.4134    7.7079   -1.7459 H         1 <0>         0.1386
     32 H13         3.8481   10.5612   -2.0374 H         1 <0>         0.0581
     33 H14         4.6671    9.0752   -1.4995 H         1 <0>         0.0580
     34 H15         4.4336    9.3836   -3.2369 H         1 <0>         0.1033
@<TRIPOS>BOND
     1    1    2 1
     2    1   20 1
     3    1   21 1
     4    1   22 1
     5    2    3 2
     6    2    4 am
     7    4    5 1
     8    4   23 1
     9    5   10 ar
    10    5    6 ar
    11    6    7 ar
    12    6   24 1
    13    7    8 ar
    14    7   25 1
    15    8    9 ar
    16    8   11 1
    17    9   10 ar
    18    9   26 1
    19   10   27 1
    20   11   12 1
    21   12   17 ar
    22   12   13 ar
    23   13   14 ar
    24   13   28 1
    25   14   15 ar
    26   14   29 1
    27   15   16 ar
    28   15   30 1
    29   16   17 ar
    30   16   18 1
    31   17   31 1
    32   18   19 1
    33   19   32 1
    34   19   33 1
    35   19   34 1
