@<TRIPOS>MOLECULE
ZINC00005608
   35    36     0     0     0
SMALL
USER_CHARGES
N-[2-(7-methoxy-1-naphthyl)ethyl]acetamide
@<TRIPOS>ATOM
      1 C1         -2.9574    6.9806    6.3042 C.3       1 <0>        -0.1716
      2 C2         -3.5914    6.1077    5.2520 C.2       1 <0>         0.5089
      3 O1         -4.0873    6.6099    4.2657 O.2       1 <0>        -0.5456
      4 N1         -3.6074    4.7690    5.4071 N.am      1 <0>        -0.7329
      5 C3         -4.2238    3.9205    4.3842 C.3       1 <0>         0.1210
      6 C4         -4.1077    2.4530    4.8012 C.3       1 <0>        -0.0915
      7 C5         -4.7418    1.5801    3.7490 C.ar      1 <0>        -0.0814
      8 C6         -6.0350    1.1769    3.8829 C.ar      1 <0>        -0.0960
      9 C7         -6.6377    0.3691    2.9208 C.ar      1 <0>        -0.1265
     10 C8         -5.9511   -0.0396    1.8186 C.ar      1 <0>        -0.0921
     11 C9         -4.6144    0.3562    1.6455 C.ar      1 <0>        -0.0828
     12 C10        -4.0008    1.1778    2.6246 C.ar      1 <0>        -0.0046
     13 C11        -2.6623    1.5691    2.4561 C.ar      1 <0>        -0.1585
     14 C12        -1.9747    1.1631    1.3482 C.ar      1 <0>         0.1326
     15 C13        -2.5823    0.3530    0.3835 C.ar      1 <0>        -0.1906
     16 C14        -3.8745   -0.0476    0.5202 C.ar      1 <0>        -0.0626
     17 O2         -0.6816    1.5467    1.1837 O.3       1 <0>        -0.3173
     18 C15        -0.0127    1.0858    0.0080 C.3       1 <0>         0.0256
     19 H1         -2.5689    6.3560    7.1087 H         1 <0>         0.0758
     20 H2         -2.1411    7.5503    5.8601 H         1 <0>         0.0954
     21 H3         -3.7034    7.6668    6.7049 H         1 <0>         0.0953
     22 H4         -3.2108    4.3673    6.1959 H         1 <0>         0.4015
     23 H5         -3.7132    4.0693    3.4327 H         1 <0>         0.0711
     24 H6         -5.2756    4.1858    4.2775 H         1 <0>         0.0701
     25 H7         -4.6183    2.3041    5.7526 H         1 <0>         0.0825
     26 H8         -3.0559    2.1876    4.9078 H         1 <0>         0.0830
     27 H9         -6.6022    1.4874    4.7479 H         1 <0>         0.1247
     28 H10        -7.6651    0.0628    3.0513 H         1 <0>         0.1250
     29 H11        -6.4316   -0.6653    1.0811 H         1 <0>         0.1275
     30 H12        -2.1809    2.1906    3.1965 H         1 <0>         0.1349
     31 H13        -2.0170    0.0409   -0.4822 H         1 <0>         0.1314
     32 H14        -4.3306   -0.6737   -0.2324 H         1 <0>         0.1329
     33 H15         0.0021   -0.0041    0.0020 H         1 <0>         0.0564
     34 H16         1.0099    1.4631    0.0003 H         1 <0>         0.1018
     35 H17        -0.5399    1.4469   -0.8751 H         1 <0>         0.0565
@<TRIPOS>BOND
     1    1    2 1
     2    1   19 1
     3    1   20 1
     4    1   21 1
     5    2    3 2
     6    2    4 am
     7    4    5 1
     8    4   22 1
     9    5    6 1
    10    5   23 1
    11    5   24 1
    12    6    7 1
    13    6   25 1
    14    6   26 1
    15    7   12 ar
    16    7    8 ar
    17    8    9 ar
    18    8   27 1
    19    9   10 ar
    20    9   28 1
    21   10   11 ar
    22   10   29 1
    23   11   16 ar
    24   11   12 ar
    25   12   13 ar
    26   13   14 ar
    27   13   30 1
    28   14   15 ar
    29   14   17 1
    30   15   16 ar
    31   15   31 1
    32   16   32 1
    33   17   18 1
    34   18   33 1
    35   18   34 1
    36   18   35 1
@<TRIPOS>MOLECULE
ZINC00005833
   38    40     0     0     0
SMALL
USER_CHARGES
N-[2-(1-naphthyl)ethyl]cyclobutanecarboxamide
@<TRIPOS>ATOM
      1 C1          5.4356    2.8567    3.5380 C.ar      1 <0>        -0.1162
      2 C2          4.2373    2.1454    3.5653 C.ar      1 <0>        -0.1135
      3 C3          3.6614    1.6982    2.4162 C.ar      1 <0>        -0.1101
      4 C4          4.2796    1.9593    1.1813 C.ar      1 <0>        -0.0440
      5 C5          5.5005    2.6789    1.1538 C.ar      1 <0>        -0.0516
      6 C6          6.0647    3.1248    2.3614 C.ar      1 <0>        -0.1051
      7 C7          6.1207    2.9362   -0.0803 C.ar      1 <0>        -0.1050
      8 C8          5.5452    2.4883   -1.2297 C.ar      1 <0>        -0.1146
      9 C9          4.3476    1.7767   -1.2023 C.ar      1 <0>        -0.1083
     10 C10         3.7185    1.5084   -0.0253 C.ar      1 <0>        -0.0723
     11 C11         2.4238    0.7372   -0.0171 C.3       1 <0>        -0.0923
     12 C12         1.2475    1.7155   -0.0006 C.3       1 <0>         0.1226
     13 N1         -0.0111    0.9658    0.0074 N.am      1 <0>        -0.7323
     14 C13        -1.1873    1.6238    0.0165 C.2       1 <0>         0.5215
     15 O1         -1.2037    2.8365    0.0232 O.2       1 <0>        -0.5362
     16 C14        -2.4820    0.8526    0.0185 C.3       1 <0>        -0.1403
     17 C15        -2.9238    0.3870   -1.3790 C.3       1 <0>        -0.1235
     18 C16        -4.3581    0.7515   -0.9608 C.3       1 <0>        -0.1427
     19 C17        -3.7323    1.7479    0.0293 C.3       1 <0>        -0.1189
     20 H1          5.8713    3.2005    4.4645 H         1 <0>         0.1239
     21 H2          3.7584    1.9463    4.5127 H         1 <0>         0.1233
     22 H3          2.7322    1.1490    2.4528 H         1 <0>         0.1266
     23 H4          6.9924    3.6777    2.3556 H         1 <0>         0.1277
     24 H5          7.0491    3.4869   -0.1169 H         1 <0>         0.1278
     25 H6          6.0238    2.6877   -2.1771 H         1 <0>         0.1250
     26 H7          3.9121    1.4325   -2.1288 H         1 <0>         0.1238
     27 H8          2.3830    0.1051    0.8699 H         1 <0>         0.0823
     28 H9          2.3661    0.1146   -0.9100 H         1 <0>         0.0827
     29 H10         1.2883    2.3477   -0.8877 H         1 <0>         0.0698
     30 H11         1.3053    2.3381    0.8922 H         1 <0>         0.0705
     31 H12         0.0021   -0.0041    0.0020 H         1 <0>         0.4012
     32 H13        -2.5036    0.0635    0.7701 H         1 <0>         0.1132
     33 H14        -2.5347    1.0048   -2.1883 H         1 <0>         0.0846
     34 H15        -2.7767   -0.6792   -1.5508 H         1 <0>         0.0756
     35 H16        -4.8932   -0.0662   -0.4778 H         1 <0>         0.0842
     36 H17        -4.9362    1.2276   -1.7528 H         1 <0>         0.0734
     37 H18        -4.2378    1.7803    0.9944 H         1 <0>         0.0724
     38 H19        -3.5638    2.7383   -0.3938 H         1 <0>         0.0949
@<TRIPOS>BOND
     1    1    6 ar
     2    1    2 ar
     3    1   20 1
     4    2    3 ar
     5    2   21 1
     6    3    4 ar
     7    3   22 1
     8    4   10 ar
     9    4    5 ar
    10    5    6 ar
    11    5    7 ar
    12    6   23 1
    13    7    8 ar
    14    7   24 1
    15    8    9 ar
    16    8   25 1
    17    9   10 ar
    18    9   26 1
    19   10   11 1
    20   11   12 1
    21   11   27 1
    22   11   28 1
    23   12   13 1
    24   12   29 1
    25   12   30 1
    26   13   14 am
    27   13   31 1
    28   14   15 2
    29   14   16 1
    30   16   19 1
    31   16   17 1
    32   16   32 1
    33   17   18 1
    34   17   33 1
    35   17   34 1
    36   18   19 1
    37   18   35 1
    38   18   36 1
    39   19   37 1
    40   19   38 1
@<TRIPOS>MOLECULE
ZINC02568228
   43    45     0     0     0
SMALL
USER_CHARGES

@<TRIPOS>ATOM
      1 C1         -0.1884    1.1328   -6.0867 C.3       1 <0>        -0.1734
      2 C2         -0.1745   -0.3623   -5.8979 C.2       1 <0>         0.5083
      3 O1         -0.2377   -1.0958   -6.8617 O.2       1 <0>        -0.5462
      4 N1         -0.0918   -0.8842   -4.6581 N.am      1 <0>        -0.7322
      5 C3         -0.0783   -2.3376   -4.4745 C.3       1 <0>         0.1239
      6 C4          0.0208   -2.6624   -2.9827 C.3       1 <0>        -0.0569
      7 C5         -0.0870   -4.1525   -2.7847 C.2       1 <0>        -0.1548
      8 C6          1.0228   -5.0959   -2.6597 C.ar      1 <0>        -0.0582
      9 C7          2.4144   -4.9596   -2.6782 C.ar      1 <0>        -0.1108
     10 C8          3.2110   -6.0767   -2.5300 C.ar      1 <0>         0.1028
     11 C9          2.6341   -7.3333   -2.3629 C.ar      1 <0>        -0.1751
     12 C10         1.2649   -7.4801   -2.3435 C.ar      1 <0>        -0.0889
     13 C11         0.4435   -6.3674   -2.4907 C.ar      1 <0>         0.0733
     14 N2         -0.9260   -6.2025   -2.5122 N.pl3     1 <0>        -0.5868
     15 H1         -1.5755   -6.9165   -2.4167 H         1 <0>         0.4164
     16 C12        -1.2318   -4.8722   -2.6828 C.2       1 <0>         0.1382
     17 C13        -2.5994   -4.3132   -2.7490 C.ar      1 <0>        -0.0381
     18 C14        -2.9343   -3.1892   -1.9929 C.ar      1 <0>        -0.0938
     19 C15        -4.2117   -2.6723   -2.0594 C.ar      1 <0>        -0.1167
     20 C16        -5.1598   -3.2660   -2.8736 C.ar      1 <0>        -0.1098
     21 C17        -4.8343   -4.3809   -3.6254 C.ar      1 <0>        -0.1162
     22 C18        -3.5588   -4.9041   -3.5723 C.ar      1 <0>        -0.1043
     23 O2          4.5649   -5.9501   -2.5476 O.3       1 <0>        -0.3185
     24 C19         5.3304   -7.1462   -2.3889 C.3       1 <0>         0.0279
     25 H2         -1.2171    1.4923   -6.0643 H         1 <0>         0.0932
     26 H3          0.3793    1.6055   -5.2852 H         1 <0>         0.0798
     27 H4          0.2627    1.3819   -7.0472 H         1 <0>         0.0931
     28 H5         -0.0413   -0.2976   -3.8872 H         1 <0>         0.4005
     29 H6         -0.9967   -2.7634   -4.8788 H         1 <0>         0.0665
     30 H7          0.7794   -2.7618   -4.9965 H         1 <0>         0.0687
     31 H8          0.9789   -2.3131   -2.5977 H         1 <0>         0.0798
     32 H9         -0.7886   -2.1654   -2.4481 H         1 <0>         0.0789
     33 H10         2.8631   -3.9858   -2.8080 H         1 <0>         0.1309
     34 H11         3.2666   -8.2011   -2.2478 H         1 <0>         0.1328
     35 H12         0.8289   -8.4596   -2.2141 H         1 <0>         0.1250
     36 H13        -2.1952   -2.7251   -1.3567 H         1 <0>         0.1296
     37 H14        -4.4723   -1.8026   -1.4745 H         1 <0>         0.1282
     38 H15        -6.1584   -2.8575   -2.9222 H         1 <0>         0.1256
     39 H16        -5.5791   -4.8398   -4.2588 H         1 <0>         0.1268
     40 H17        -3.3047   -5.7717   -4.1630 H         1 <0>         0.1223
     41 H18         5.0907   -7.8406   -3.1942 H         1 <0>         0.0543
     42 H19         6.3928   -6.9047   -2.4217 H         1 <0>         0.0995
     43 H20         5.0917   -7.6058   -1.4298 H         1 <0>         0.0542
@<TRIPOS>BOND
     1    1    2 1
     2    1   25 1
     3    1   26 1
     4    1   27 1
     5    2    3 2
     6    2    4 am
     7    4    5 1
     8    4   28 1
     9    5    6 1
    10    5   29 1
    11    5   30 1
    12    6    7 1
    13    6   31 1
    14    6   32 1
    15    7   16 2
    16    7    8 1
    17    8   13 ar
    18    8    9 ar
    19    9   10 ar
    20    9   33 1
    21   10   11 ar
    22   10   23 1
    23   11   12 ar
    24   11   34 1
    25   12   13 ar
    26   12   35 1
    27   13   14 1
    28   14   15 1
    29   14   16 1
    30   16   17 1
    31   17   22 ar
    32   17   18 ar
    33   18   19 ar
    34   18   36 1
    35   19   20 ar
    36   19   37 1
    37   20   21 ar
    38   20   38 1
    39   21   22 ar
    40   21   39 1
    41   22   40 1
    42   23   24 1
    43   24   41 1
    44   24   42 1
    45   24   43 1
@<TRIPOS>MOLECULE
ZINC02534152
   39    41     0     0     0
SMALL
USER_CHARGES
N-[2-(2-phenyl-1H-indol-3-yl)ethyl]acetamide
@<TRIPOS>ATOM
      1 C1          1.4464    4.0099    6.4252 C.3       1 <0>        -0.1734
      2 C2          2.3619    3.3801    5.4073 C.2       1 <0>         0.5083
      3 O1          3.1130    2.4869    5.7376 O.2       1 <0>        -0.5459
      4 N1          2.3461    3.8093    4.1298 N.am      1 <0>        -0.7326
      5 C3          3.2361    3.1970    3.1402 C.3       1 <0>         0.1244
      6 C4          3.0204    3.8624    1.7795 C.3       1 <0>        -0.0593
      7 C5          3.9359    3.2325    0.7616 C.2       1 <0>        -0.1483
      8 C6          5.2947    3.6592    0.4313 C.ar      1 <0>        -0.0988
      9 C7          6.1263    4.6842    0.8918 C.ar      1 <0>        -0.0695
     10 C8          7.3776    4.8310    0.3641 C.ar      1 <0>        -0.1440
     11 C9          7.8312    3.9694   -0.6258 C.ar      1 <0>        -0.0954
     12 C10         7.0287    2.9523   -1.0946 C.ar      1 <0>        -0.1302
     13 C11         5.7503    2.7836   -0.5726 C.ar      1 <0>         0.1037
     14 N2          4.7374    1.8854   -0.8272 N.pl3     1 <0>        -0.5875
     15 H1          4.7793    1.1671   -1.4777 H         1 <0>         0.4162
     16 C12         3.6571    2.1607   -0.0209 C.2       1 <0>         0.1271
     17 C13         2.3846    1.4070   -0.0132 C.ar      1 <0>        -0.0357
     18 C14         1.1668    2.0883    0.0021 C.ar      1 <0>        -0.0966
     19 C15        -0.0167    1.3793    0.0096 C.ar      1 <0>        -0.1160
     20 C16         0.0021   -0.0041    0.0020 C.ar      1 <0>        -0.1110
     21 C17         1.2061   -0.6855   -0.0127 C.ar      1 <0>        -0.1154
     22 C18         2.3966    0.0116   -0.0204 C.ar      1 <0>        -0.1065
     23 H2          0.5003    3.4691    6.4469 H         1 <0>         0.0935
     24 H3          1.9126    3.9661    7.4095 H         1 <0>         0.0933
     25 H4          1.2642    5.0502    6.1555 H         1 <0>         0.0798
     26 H5          1.7455    4.5237    3.8656 H         1 <0>         0.4005
     27 H6          3.0158    2.1323    3.0630 H         1 <0>         0.0664
     28 H7          4.2722    3.3321    3.4506 H         1 <0>         0.0685
     29 H8          3.2407    4.9271    1.8567 H         1 <0>         0.0792
     30 H9          1.9843    3.7273    1.4691 H         1 <0>         0.0804
     31 H10         5.7804    5.3582    1.6615 H         1 <0>         0.1215
     32 H11         8.0195    5.6233    0.7199 H         1 <0>         0.1236
     33 H12         8.8232    4.0981   -1.0328 H         1 <0>         0.1264
     34 H13         7.3912    2.2877   -1.8648 H         1 <0>         0.1207
     35 H14         1.1509    3.1682    0.0078 H         1 <0>         0.1303
     36 H15        -0.9599    1.9054    0.0170 H         1 <0>         0.1283
     37 H16        -0.9272   -0.5544    0.0080 H         1 <0>         0.1258
     38 H17         1.2140   -1.7655   -0.0186 H         1 <0>         0.1268
     39 H18         3.3358   -0.5215   -0.0323 H         1 <0>         0.1217
@<TRIPOS>BOND
     1    1    2 1
     2    1   23 1
     3    1   24 1
     4    1   25 1
     5    2    3 2
     6    2    4 am
     7    4    5 1
     8    4   26 1
     9    5    6 1
    10    5   27 1
    11    5   28 1
    12    6    7 1
    13    6   29 1
    14    6   30 1
    15    7   16 2
    16    7    8 1
    17    8   13 ar
    18    8    9 ar
    19    9   10 ar
    20    9   31 1
    21   10   11 ar
    22   10   32 1
    23   11   12 ar
    24   11   33 1
    25   12   13 ar
    26   12   34 1
    27   13   14 1
    28   14   15 1
    29   14   16 1
    30   16   17 1
    31   17   22 ar
    32   17   18 ar
    33   18   19 ar
    34   18   35 1
    35   19   20 ar
    36   19   36 1
    37   20   21 ar
    38   20   37 1
    39   21   22 ar
    40   21   38 1
    41   22   39 1
@<TRIPOS>MOLECULE
ZINC01645265
   39    41     0     0     0
SMALL
USER_CHARGES
2,2,2-trifluoro-N-[2-(2-phenyl-1H-indol-3-yl)ethyl]acetamide
@<TRIPOS>ATOM
      1 C1          0.0021   -0.0041    0.0020 C.ar      1 <0>        -0.1096
      2 C2         -0.0167    1.3793    0.0096 C.ar      1 <0>        -0.1156
      3 C3          1.1668    2.0883    0.0021 C.ar      1 <0>        -0.0970
      4 C4          2.3846    1.4070   -0.0132 C.ar      1 <0>        -0.0389
      5 C5          2.3966    0.0116   -0.0204 C.ar      1 <0>        -0.1060
      6 C6          1.2061   -0.6855   -0.0127 C.ar      1 <0>        -0.1152
      7 C7          3.6571    2.1607   -0.0209 C.2       1 <0>         0.1323
      8 C8          3.9359    3.2325    0.7616 C.2       1 <0>        -0.1529
      9 C9          5.2947    3.6592    0.4313 C.ar      1 <0>        -0.0980
     10 C10         6.1263    4.6842    0.8918 C.ar      1 <0>        -0.0709
     11 C11         7.3776    4.8310    0.3641 C.ar      1 <0>        -0.1425
     12 C12         7.8312    3.9694   -0.6258 C.ar      1 <0>        -0.0950
     13 C13         7.0287    2.9523   -1.0946 C.ar      1 <0>        -0.1294
     14 C14         5.7503    2.7836   -0.5726 C.ar      1 <0>         0.1036
     15 N1          4.7374    1.8854   -0.8272 N.pl3     1 <0>        -0.5867
     16 H1          4.7793    1.1671   -1.4777 H         1 <0>         0.4169
     17 C15         3.0204    3.8624    1.7795 C.3       1 <0>        -0.0602
     18 C16         3.2361    3.1970    3.1402 C.3       1 <0>         0.1219
     19 N2          2.3461    3.8093    4.1298 N.am      1 <0>        -0.7000
     20 C17         2.3619    3.3801    5.4073 C.2       1 <0>         0.4830
     21 O1          3.1130    2.4869    5.7376 O.2       1 <0>        -0.4733
     22 C18         1.4464    4.0099    6.4252 C.3       1 <0>         0.4509
     23 F1          1.6436    3.4015    7.6694 F         1 <0>        -0.1518
     24 F2          1.7292    5.3765    6.5243 F         1 <0>        -0.1668
     25 F3          0.1166    3.8366    6.0268 F         1 <0>        -0.1670
     26 H2         -0.9272   -0.5544    0.0080 H         1 <0>         0.1263
     27 H3         -0.9599    1.9054    0.0170 H         1 <0>         0.1290
     28 H4          1.1509    3.1682    0.0078 H         1 <0>         0.1307
     29 H5          3.3358   -0.5215   -0.0323 H         1 <0>         0.1220
     30 H6          1.2140   -1.7655   -0.0186 H         1 <0>         0.1272
     31 H7          5.7804    5.3582    1.6615 H         1 <0>         0.1220
     32 H8          8.0195    5.6233    0.7199 H         1 <0>         0.1240
     33 H9          8.8232    4.0981   -1.0328 H         1 <0>         0.1267
     34 H10         7.3912    2.2877   -1.8648 H         1 <0>         0.1211
     35 H11         3.2407    4.9271    1.8567 H         1 <0>         0.0839
     36 H12         1.9843    3.7273    1.4691 H         1 <0>         0.0841
     37 H13         3.0158    2.1323    3.0630 H         1 <0>         0.0787
     38 H14         4.2722    3.3321    3.4506 H         1 <0>         0.0810
     39 H15         1.7455    4.5237    3.8656 H         1 <0>         0.4109
@<TRIPOS>BOND
     1    1    6 ar
     2    1    2 ar
     3    1   26 1
     4    2    3 ar
     5    2   27 1
     6    3    4 ar
     7    3   28 1
     8    4    5 ar
     9    4    7 1
    10    5    6 ar
    11    5   29 1
    12    6   30 1
    13    7   15 1
    14    7    8 2
    15    8    9 1
    16    8   17 1
    17    9   14 ar
    18    9   10 ar
    19   10   11 ar
    20   10   31 1
    21   11   12 ar
    22   11   32 1
    23   12   13 ar
    24   12   33 1
    25   13   14 ar
    26   13   34 1
    27   14   15 1
    28   15   16 1
    29   17   18 1
    30   17   35 1
    31   17   36 1
    32   18   19 1
    33   18   37 1
    34   18   38 1
    35   19   20 am
    36   19   39 1
    37   20   21 2
    38   20   22 1
    39   22   23 1
    40   22   24 1
    41   22   25 1
@<TRIPOS>MOLECULE
ZINC00003941
   42    44     0     0     0
SMALL
USER_CHARGES

@<TRIPOS>ATOM
      1 C1         -0.9050    1.1872   -1.1858 C.3       1 <0>        -0.1756
      2 C2         -0.6871   -0.2827   -0.9351 C.2       1 <0>         0.5083
      3 O1          0.4373   -0.7373   -0.9322 O.2       1 <0>        -0.5449
      4 N1         -1.7418   -1.0922   -0.7140 N.am      1 <0>        -0.7344
      5 C3         -1.5299   -2.5212   -0.4703 C.3       1 <0>         0.1220
      6 C4         -2.8800   -3.2068   -0.2509 C.3       1 <0>        -0.0557
      7 C5         -2.6622   -4.6767   -0.0001 C.2       1 <0>        -0.1621
      8 C6         -2.6761   -5.7433   -1.0041 C.ar      1 <0>        -0.0971
      9 C7         -2.8738   -5.7729   -2.3860 C.ar      1 <0>        -0.0718
     10 C8         -2.8238   -6.9643   -3.0530 C.ar      1 <0>        -0.1445
     11 C9         -2.5779   -8.1464   -2.3677 C.ar      1 <0>        -0.0983
     12 C10        -2.3801   -8.1401   -1.0045 C.ar      1 <0>        -0.1296
     13 C11        -2.4267   -6.9383   -0.3051 C.ar      1 <0>         0.0995
     14 N2         -2.2744   -6.6079    1.0229 N.pl3     1 <0>        -0.5888
     15 H1         -2.0926   -7.2389    1.7368 H         1 <0>         0.4141
     16 C12        -2.4127   -5.2563    1.1847 C.2       1 <0>         0.0994
     17 C13        -2.3038   -4.5267    2.4988 C.3       1 <0>        -0.0233
     18 C14        -3.6739   -4.3860    3.1103 C.ar      1 <0>        -0.0799
     19 C15        -4.3968   -3.2222    2.9264 C.ar      1 <0>        -0.1108
     20 C16        -5.6536   -3.0932    3.4873 C.ar      1 <0>        -0.1161
     21 C17        -6.1878   -4.1282    4.2318 C.ar      1 <0>        -0.1199
     22 C18        -5.4653   -5.2924    4.4150 C.ar      1 <0>        -0.1165
     23 C19        -4.2102   -5.4231    3.8505 C.ar      1 <0>        -0.1143
     24 H2          0.0569    1.6756   -1.3421 H         1 <0>         0.0924
     25 H3         -1.5264    1.3164   -2.0719 H         1 <0>         0.0882
     26 H4         -1.4030    1.6328   -0.3246 H         1 <0>         0.0880
     27 H5         -2.6411   -0.7287   -0.7163 H         1 <0>         0.4009
     28 H6         -1.0319   -2.9668   -1.3314 H         1 <0>         0.0692
     29 H7         -0.9085   -2.6504    0.4158 H         1 <0>         0.0663
     30 H8         -3.3781   -2.7612    0.6103 H         1 <0>         0.0768
     31 H9         -3.5014   -3.0775   -1.1370 H         1 <0>         0.0774
     32 H10        -3.0659   -4.8574   -2.9257 H         1 <0>         0.1199
     33 H11        -2.9771   -6.9867   -4.1218 H         1 <0>         0.1223
     34 H12        -2.5418   -9.0803   -2.9088 H         1 <0>         0.1252
     35 H13        -2.1895   -9.0649   -0.4804 H         1 <0>         0.1194
     36 H14        -1.6603   -5.0897    3.1748 H         1 <0>         0.0859
     37 H15        -1.8775   -3.5376    2.3310 H         1 <0>         0.0996
     38 H16        -3.9795   -2.4136    2.3447 H         1 <0>         0.1233
     39 H17        -6.2181   -2.1836    3.3442 H         1 <0>         0.1238
     40 H18        -7.1694   -4.0272    4.6706 H         1 <0>         0.1225
     41 H19        -5.8825   -6.1009    4.9970 H         1 <0>         0.1222
     42 H20        -3.6473   -6.3341    3.9905 H         1 <0>         0.1167
@<TRIPOS>BOND
     1    1    2 1
     2    1   24 1
     3    1   25 1
     4    1   26 1
     5    2    3 2
     6    2    4 am
     7    4    5 1
     8    4   27 1
     9    5    6 1
    10    5   28 1
    11    5   29 1
    12    6    7 1
    13    6   30 1
    14    6   31 1
    15    7   16 2
    16    7    8 1
    17    8   13 ar
    18    8    9 ar
    19    9   10 ar
    20    9   32 1
    21   10   11 ar
    22   10   33 1
    23   11   12 ar
    24   11   34 1
    25   12   13 ar
    26   12   35 1
    27   13   14 1
    28   14   15 1
    29   14   16 1
    30   16   17 1
    31   17   18 1
    32   17   36 1
    33   17   37 1
    34   18   23 ar
    35   18   19 ar
    36   19   20 ar
    37   19   38 1
    38   20   21 ar
    39   20   39 1
    40   21   22 ar
    41   21   40 1
    42   22   23 ar
    43   22   41 1
    44   23   42 1
@<TRIPOS>MOLECULE
ZINC10146664
   39    40     0     0     0
SMALL
USER_CHARGES
N-[2-(5-methoxy-1H-indol-3-yl)ethyl]butanamide
@<TRIPOS>ATOM
      1 C1         10.9539    0.8411   -4.1391 C.3       1 <0>        -0.1539
      2 C2          9.4440    1.0877   -4.1227 C.3       1 <0>        -0.1105
      3 C3          8.9753    1.2862   -2.6799 C.3       1 <0>        -0.1411
      4 C4          7.4881    1.5292   -2.6638 C.2       1 <0>         0.5095
      5 O1          6.8645    1.5422   -3.7039 O.2       1 <0>        -0.5390
      6 N1          6.8511    1.7319   -1.4935 N.am      1 <0>        -0.7352
      7 C5          5.4053    1.9681   -1.4778 C.3       1 <0>         0.1226
      8 C6          4.9366    2.1667   -0.0350 C.3       1 <0>        -0.0518
      9 C7          3.4494    2.4096   -0.0188 C.2       1 <0>        -0.1791
     10 C8          2.8357    3.6034   -0.0063 C.2       1 <0>         0.0723
     11 N2          1.4787    3.4304    0.0063 N.pl3     1 <0>        -0.5944
     12 H1          0.8254    4.1474    0.0167 H         1 <0>         0.4173
     13 C9          1.1781    2.0845    0.0020 C.ar      1 <0>         0.0645
     14 C10         2.3998    1.3876   -0.0139 C.ar      1 <0>        -0.0602
     15 C11         2.4068   -0.0087   -0.0214 C.ar      1 <0>        -0.1120
     16 C12         1.2097   -0.6968   -0.0132 C.ar      1 <0>         0.1023
     17 C13         0.0021   -0.0041    0.0020 C.ar      1 <0>        -0.1777
     18 C14        -0.0166    1.3730    0.0096 C.ar      1 <0>        -0.0891
     19 O2          1.2102   -2.0567   -0.0205 O.3       1 <0>        -0.3189
     20 C15        -0.0627   -2.7060   -0.0119 C.3       1 <0>         0.0281
     21 H2         11.4670    1.6993   -3.7052 H         1 <0>         0.0544
     22 H3         11.1826   -0.0515   -3.5567 H         1 <0>         0.0546
     23 H4         11.2879    0.6996   -5.1670 H         1 <0>         0.0582
     24 H5          8.9310    0.2294   -4.5566 H         1 <0>         0.0691
     25 H6          9.2153    1.9802   -4.7051 H         1 <0>         0.0688
     26 H7          9.4884    2.1445   -2.2460 H         1 <0>         0.0929
     27 H8          9.2040    0.3937   -2.0975 H         1 <0>         0.0933
     28 H9          7.3499    1.7215   -0.6616 H         1 <0>         0.4005
     29 H10         4.8923    1.1098   -1.9116 H         1 <0>         0.0687
     30 H11         5.1766    2.8606   -2.0602 H         1 <0>         0.0666
     31 H12         5.4497    3.0249    0.3989 H         1 <0>         0.0764
     32 H13         5.1653    1.2741    0.5474 H         1 <0>         0.0773
     33 H14         3.3387    4.5591   -0.0067 H         1 <0>         0.1718
     34 H15         3.3428   -0.5472   -0.0340 H         1 <0>         0.1295
     35 H16        -0.9287   -0.5517    0.0083 H         1 <0>         0.1321
     36 H17        -0.9591    1.9003    0.0169 H         1 <0>         0.1242
     37 H18        -0.6283   -2.4086   -0.8949 H         1 <0>         0.0542
     38 H19         0.0806   -3.7865   -0.0190 H         1 <0>         0.0994
     39 H20        -0.6113   -2.4182    0.8850 H         1 <0>         0.0541
@<TRIPOS>BOND
     1    1    2 1
     2    1   21 1
     3    1   22 1
     4    1   23 1
     5    2    3 1
     6    2   24 1
     7    2   25 1
     8    3    4 1
     9    3   26 1
    10    3   27 1
    11    4    5 2
    12    4    6 am
    13    6    7 1
    14    6   28 1
    15    7    8 1
    16    7   29 1
    17    7   30 1
    18    8    9 1
    19    8   31 1
    20    8   32 1
    21    9   14 1
    22    9   10 2
    23   10   11 1
    24   10   33 1
    25   11   12 1
    26   11   13 1
    27   13   18 ar
    28   13   14 ar
    29   14   15 ar
    30   15   16 ar
    31   15   34 1
    32   16   17 ar
    33   16   19 1
    34   17   18 ar
    35   17   35 1
    36   18   36 1
    37   19   20 1
    38   20   37 1
    39   20   38 1
    40   20   39 1
@<TRIPOS>MOLECULE
ZINC02516056
   33    34     0     0     0
SMALL
USER_CHARGES

@<TRIPOS>ATOM
      1 C1         -0.0184    1.5028    0.0103 C.3       1 <0>        -0.1751
      2 C2          0.0021   -0.0041    0.0020 C.2       1 <0>         0.5091
      3 O1          1.0605   -0.5961   -0.0113 O.2       1 <0>        -0.5443
      4 N1         -1.1558   -0.6938    0.0094 N.am      1 <0>        -0.7329
      5 C3         -1.1360   -2.1586    0.0013 C.3       1 <0>         0.1234
      6 C4         -2.5713   -2.6882    0.0122 C.3       1 <0>        -0.0646
      7 C5         -2.5509   -4.1950    0.0039 C.2       1 <0>        -0.1197
      8 C6         -2.5444   -5.0596   -1.1786 C.ar      1 <0>        -0.0618
      9 C7         -2.5538   -4.8197   -2.5546 C.ar      1 <0>        -0.1044
     10 C8         -2.5433   -5.8848   -3.4326 C.ar      1 <0>         0.1043
     11 C9         -2.5235   -7.1914   -2.9510 C.ar      1 <0>        -0.1675
     12 C10        -2.5140   -7.4395   -1.5966 C.ar      1 <0>        -0.0883
     13 C11        -2.5244   -6.3801   -0.6955 C.ar      1 <0>         0.0816
     14 N2         -2.5192   -6.3087    0.6820 N.pl3     1 <0>        -0.5767
     15 H1         -2.5058   -7.0726    1.2797 H         1 <0>         0.4199
     16 C12        -2.5293   -4.9995    1.0794 C.2       1 <0>         0.0694
     17 I1         -2.5174   -4.3465    3.0700 I         1 <0>         0.0309
     18 O2         -2.5529   -5.6574   -4.7733 O.3       1 <0>        -0.3172
     19 C13        -2.5411   -6.8041   -5.6260 C.3       1 <0>         0.0272
     20 H2          1.0042    1.8801    0.0026 H         1 <0>         0.0924
     21 H3         -0.5455    1.8639   -0.8728 H         1 <0>         0.0884
     22 H4         -0.5286    1.8543    0.9071 H         1 <0>         0.0883
     23 H5         -2.0023   -0.2203    0.0200 H         1 <0>         0.4017
     24 H6         -0.6258   -2.5101   -0.8955 H         1 <0>         0.0709
     25 H7         -0.6088   -2.5197    0.8844 H         1 <0>         0.0688
     26 H8         -3.0815   -2.3367    0.9090 H         1 <0>         0.0819
     27 H9         -3.0985   -2.3271   -0.8709 H         1 <0>         0.0867
     28 H10        -2.5696   -3.8069   -2.9293 H         1 <0>         0.1334
     29 H11        -2.5158   -8.0177   -3.6463 H         1 <0>         0.1355
     30 H12        -2.4990   -8.4567   -1.2341 H         1 <0>         0.1280
     31 H13        -2.5505   -6.4825   -6.6674 H         1 <0>         0.1006
     32 H14        -1.6420   -7.3899   -5.4347 H         1 <0>         0.0551
     33 H15        -3.4218   -7.4144   -5.4262 H         1 <0>         0.0550
@<TRIPOS>BOND
     1    1    2 1
     2    1   20 1
     3    1   21 1
     4    1   22 1
     5    2    3 2
     6    2    4 am
     7    4    5 1
     8    4   23 1
     9    5    6 1
    10    5   24 1
    11    5   25 1
    12    6    7 1
    13    6   26 1
    14    6   27 1
    15    7   16 2
    16    7    8 1
    17    8   13 ar
    18    8    9 ar
    19    9   10 ar
    20    9   28 1
    21   10   11 ar
    22   10   18 1
    23   11   12 ar
    24   11   29 1
    25   12   13 ar
    26   12   30 1
    27   13   14 1
    28   14   15 1
    29   14   16 1
    30   16   17 1
    31   18   19 1
    32   19   31 1
    33   19   32 1
    34   19   33 1
@<TRIPOS>MOLECULE
ZINC01658592
   29    30     0     0     0
SMALL
USER_CHARGES
2-bromo-N-[2-(1H-indol-3-yl)ethyl]acetamide
@<TRIPOS>ATOM
      1 C1          2.9496    3.1874    3.6866 C.ar      1 <0>        -0.1441
      2 C2          3.2805    2.3810    4.7672 C.ar      1 <0>        -0.0978
      3 C3          2.5580    1.2404    5.0400 C.ar      1 <0>        -0.1298
      4 C4          1.4853    0.8907    4.2260 C.ar      1 <0>         0.0945
      5 C5          1.1541    1.7111    3.1323 C.ar      1 <0>        -0.1006
      6 C6          1.9005    2.8626    2.8740 C.ar      1 <0>        -0.0717
      7 C7          0.0000    1.0800    2.4877 C.2       1 <0>        -0.1747
      8 C8         -0.2888   -0.0242    3.1942 C.2       1 <0>         0.0624
      9 N1          0.5915   -0.1565    4.2334 N.pl3     1 <0>        -0.5943
     10 H1          0.5843   -0.8784    4.8813 H         1 <0>         0.4174
     11 C9         -0.7288    1.5792    1.2668 C.3       1 <0>        -0.0518
     12 C10        -0.0127    1.0858    0.0080 C.3       1 <0>         0.1246
     13 N2         -0.7213    1.5711   -1.1789 N.am      1 <0>        -0.7274
     14 C11        -0.2681    1.2584   -2.4090 C.2       1 <0>         0.5085
     15 O1          0.7262    0.5752   -2.5335 O.2       1 <0>        -0.5109
     16 C12        -0.9970    1.7576   -3.6299 C.3       1 <0>        -0.1174
     17 Br1        -0.0768    1.1236   -5.2475 Br        1 <0>        -0.1006
     18 H2          3.5266    4.0781    3.4864 H         1 <0>         0.1229
     19 H3          4.1131    2.6505    5.4002 H         1 <0>         0.1258
     20 H4          2.8235    0.6195    5.8829 H         1 <0>         0.1201
     21 H5          1.6490    3.4945    2.0350 H         1 <0>         0.1203
     22 H6         -1.0952   -0.7080    2.9739 H         1 <0>         0.1707
     23 H7         -0.7436    2.6691    1.2728 H         1 <0>         0.0775
     24 H8         -1.7514    1.2020    1.2746 H         1 <0>         0.0770
     25 H9          0.0021   -0.0041    0.0020 H         1 <0>         0.0701
     26 H10         1.0099    1.4631    0.0003 H         1 <0>         0.0716
     27 H11        -1.5165    2.1175   -1.0793 H         1 <0>         0.4023
     28 H12        -2.0196    1.3803   -3.6222 H         1 <0>         0.1277
     29 H13        -1.0118    2.8475   -3.6239 H         1 <0>         0.1279
@<TRIPOS>BOND
     1    1    6 ar
     2    1    2 ar
     3    1   18 1
     4    2    3 ar
     5    2   19 1
     6    3    4 ar
     7    3   20 1
     8    4    9 1
     9    4    5 ar
    10    5    6 ar
    11    5    7 1
    12    6   21 1
    13    7    8 2
    14    7   11 1
    15    8    9 1
    16    8   22 1
    17    9   10 1
    18   11   12 1
    19   11   23 1
    20   11   24 1
    21   12   13 1
    22   12   25 1
    23   12   26 1
    24   13   14 am
    25   13   27 1
    26   14   15 2
    27   14   16 1
    28   16   17 1
    29   16   28 1
    30   16   29 1
@<TRIPOS>MOLECULE
ZINC13741567
   32    32     0     0     0
SMALL
USER_CHARGES
N-[2-(2-methoxy-5-methyl-phenyl)ethyl]acetamide
@<TRIPOS>ATOM
      1 C1         -2.5533    3.8671    0.0457 C.3       1 <0>        -0.1115
      2 C2         -1.2370    3.1334    0.0297 C.ar      1 <0>        -0.1206
      3 C3         -1.2177    1.7507    0.0173 C.ar      1 <0>        -0.0803
      4 C4         -0.0126    1.0758    0.0080 C.ar      1 <0>        -0.2022
      5 C5          1.1791    1.7865    0.0004 C.ar      1 <0>         0.1273
      6 C6          1.1570    3.1734    0.0076 C.ar      1 <0>        -0.1123
      7 C7         -0.0511    3.8437    0.0222 C.ar      1 <0>        -0.0762
      8 C8          2.4494    3.9483   -0.0011 C.3       1 <0>        -0.0802
      9 C9          2.9375    4.1100   -1.4421 C.3       1 <0>         0.1246
     10 N1          4.1939    4.8633   -1.4506 N.am      1 <0>        -0.7324
     11 C10         4.8128    5.1285   -2.6181 C.2       1 <0>         0.5084
     12 O1          4.3297    4.7434   -3.6617 O.2       1 <0>        -0.5467
     13 C11         6.1053    5.9034   -2.6268 C.3       1 <0>        -0.1732
     14 O2          2.3661    1.1248   -0.0145 O.3       1 <0>        -0.3142
     15 C12         2.3128   -0.3032   -0.0216 C.3       1 <0>         0.0265
     16 H1         -2.8802    4.0492   -0.9780 H         1 <0>         0.0692
     17 H2         -3.2991    3.2641    0.5635 H         1 <0>         0.0654
     18 H3         -2.4325    4.8188    0.5632 H         1 <0>         0.0658
     19 H4         -2.1455    1.1980    0.0187 H         1 <0>         0.1252
     20 H5          0.0021   -0.0041    0.0020 H         1 <0>         0.1292
     21 H6         -0.0689    4.9236    0.0275 H         1 <0>         0.1295
     22 H7          2.2863    4.9318    0.4397 H         1 <0>         0.0778
     23 H8          3.1996    3.4102    0.5784 H         1 <0>         0.0828
     24 H9          3.1005    3.1265   -1.8830 H         1 <0>         0.0700
     25 H10         2.1873    4.6481   -2.0216 H         1 <0>         0.0670
     26 H11         4.5803    5.1713   -0.6159 H         1 <0>         0.4012
     27 H12         6.9441    5.2118   -2.5488 H         1 <0>         0.0940
     28 H13         6.1845    6.4674   -3.5561 H         1 <0>         0.0935
     29 H14         6.1220    6.5916   -1.7816 H         1 <0>         0.0798
     30 H15         1.7942   -0.6519    0.8715 H         1 <0>         0.0557
     31 H16         1.7773   -0.6424   -0.9084 H         1 <0>         0.0560
     32 H17         3.3261   -0.7046   -0.0334 H         1 <0>         0.1008
@<TRIPOS>BOND
     1    1    2 1
     2    1   16 1
     3    1   17 1
     4    1   18 1
     5    2    7 ar
     6    2    3 ar
     7    3    4 ar
     8    3   19 1
     9    4    5 ar
    10    4   20 1
    11    5    6 ar
    12    5   14 1
    13    6    7 ar
    14    6    8 1
    15    7   21 1
    16    8    9 1
    17    8   22 1
    18    8   23 1
    19    9   10 1
    20    9   24 1
    21    9   25 1
    22   10   11 am
    23   10   26 1
    24   11   12 2
    25   11   13 1
    26   13   27 1
    27   13   28 1
    28   13   29 1
    29   14   15 1
    30   15   30 1
    31   15   31 1
    32   15   32 1
@<TRIPOS>MOLECULE
ZINC13741565
   37    38     0     0     0
SMALL
USER_CHARGES
N-[2-(2,5-dimethoxyphenyl)ethyl]cyclopropanecarboxamide
@<TRIPOS>ATOM
      1 C1         -8.6288   -0.6327   -2.2511 C.3       1 <0>         0.0271
      2 O1         -7.4064    0.1036   -2.3274 O.3       1 <0>        -0.3170
      3 C2         -6.7642    0.3569   -1.1559 C.ar      1 <0>         0.0949
      4 C3         -7.3008   -0.0944    0.0410 C.ar      1 <0>        -0.1680
      5 C4         -6.6486    0.1629    1.2309 C.ar      1 <0>        -0.1658
      6 C5         -5.4568    0.8728    1.2291 C.ar      1 <0>         0.0982
      7 C6         -4.9203    1.3241    0.0326 C.ar      1 <0>        -0.0757
      8 C7         -5.5757    1.0715   -1.1571 C.ar      1 <0>        -0.1072
      9 C8         -3.6255    2.0952    0.0306 C.3       1 <0>        -0.0810
     10 C9         -2.4492    1.1169    0.0197 C.3       1 <0>         0.1263
     11 N1         -1.1906    1.8666    0.0178 N.am      1 <0>        -0.7271
     12 C10        -0.0144    1.2086    0.0087 C.2       1 <0>         0.5420
     13 O2          0.0021   -0.0041    0.0020 O.2       1 <0>        -0.5391
     14 C11         1.2803    1.9798    0.0005 C.3       1 <0>        -0.1976
     15 C12         2.1269    1.9255   -1.2728 C.3       1 <0>        -0.1523
     16 C13         2.5817    1.1754   -0.0183 C.3       1 <0>        -0.1476
     17 O3         -4.8143    1.1258    2.4006 O.3       1 <0>        -0.3132
     18 C14        -5.4239    0.6314    3.5947 C.3       1 <0>         0.0267
     19 H1         -9.0364   -0.7650   -3.2533 H         1 <0>         0.1012
     20 H2         -8.4378   -1.6086   -1.8047 H         1 <0>         0.0550
     21 H3         -9.3444   -0.0860   -1.6370 H         1 <0>         0.0548
     22 H4         -8.2289   -0.6468    0.0425 H         1 <0>         0.1316
     23 H5         -7.0665   -0.1882    2.1628 H         1 <0>         0.1325
     24 H6         -5.1604    1.4272   -2.0885 H         1 <0>         0.1392
     25 H7         -3.5721    2.7178    0.9238 H         1 <0>         0.0866
     26 H8         -3.5805    2.7274   -0.8561 H         1 <0>         0.0811
     27 H9         -2.5027    0.4944   -0.8734 H         1 <0>         0.0685
     28 H10        -2.4943    0.4847    0.9065 H         1 <0>         0.0719
     29 H11        -1.2037    2.8365    0.0232 H         1 <0>         0.4020
     30 H12         1.2744    2.9144    0.5614 H         1 <0>         0.1242
     31 H13         1.7474    1.3319   -2.1046 H         1 <0>         0.0994
     32 H14         2.6782    2.8241   -1.5494 H         1 <0>         0.1055
     33 H15         3.4320    1.5809    0.5299 H         1 <0>         0.1041
     34 H16         2.5013    0.0883   -0.0244 H         1 <0>         0.1081
     35 H17        -4.8106    0.9014    4.4544 H         1 <0>         0.1008
     36 H18        -6.4161    1.0692    3.7043 H         1 <0>         0.0548
     37 H19        -5.5100   -0.4537    3.5363 H         1 <0>         0.0551
@<TRIPOS>BOND
     1    1    2 1
     2    1   19 1
     3    1   20 1
     4    1   21 1
     5    2    3 1
     6    3    8 ar
     7    3    4 ar
     8    4    5 ar
     9    4   22 1
    10    5    6 ar
    11    5   23 1
    12    6    7 ar
    13    6   17 1
    14    7    8 ar
    15    7    9 1
    16    8   24 1
    17    9   10 1
    18    9   25 1
    19    9   26 1
    20   10   11 1
    21   10   27 1
    22   10   28 1
    23   11   12 am
    24   11   29 1
    25   12   13 2
    26   12   14 1
    27   14   16 1
    28   14   15 1
    29   14   30 1
    30   15   16 1
    31   15   31 1
    32   15   32 1
    33   16   33 1
    34   16   34 1
    35   17   18 1
    36   18   35 1
    37   18   36 1
    38   18   37 1
@<TRIPOS>MOLECULE
ZINC13781233
   29    30     0     0     0
SMALL
USER_CHARGES
N-[(2R)-tetralin-2-yl]acetamide
@<TRIPOS>ATOM
      1 C1          6.5749    5.5413    0.8681 C.3       1 <0>        -0.1723
      2 C2          5.3053    4.7650    1.1058 C.2       1 <0>         0.5101
      3 O1          4.6845    4.9187    2.1363 O.2       1 <0>        -0.5443
      4 N1          4.8598    3.8999    0.1733 N.am      1 <0>        -0.7285
      5 C3          3.6255    3.1453    0.4045 C.3       1 <0>         0.1441
      6 H1          3.5440    2.8896    1.4609 H         1 <0>         0.0923
      7 C4          3.6380    1.8644   -0.4381 C.3       1 <0>        -0.1264
      8 C5          2.4653    0.9887   -0.0017 C.3       1 <0>        -0.0772
      9 C6          1.1842    1.7810    0.0003 C.ar      1 <0>        -0.0813
     10 C7         -0.0126    1.0758    0.0080 C.ar      1 <0>        -0.1189
     11 C8         -1.2195    1.7435    0.0173 C.ar      1 <0>        -0.1212
     12 C9         -1.2393    3.1259    0.0301 C.ar      1 <0>        -0.1201
     13 C10        -0.0521    3.8280    0.0202 C.ar      1 <0>        -0.1181
     14 C11         1.1644    3.1575    0.0027 C.ar      1 <0>        -0.0722
     15 C12         2.4219    3.9865   -0.0157 C.3       1 <0>        -0.0910
     16 H2          6.9886    5.2724   -0.1039 H         1 <0>         0.0758
     17 H3          6.3569    6.6091    0.8874 H         1 <0>         0.0954
     18 H4          7.2976    5.3038    1.6488 H         1 <0>         0.0955
     19 H5          5.3563    3.7770   -0.6508 H         1 <0>         0.4017
     20 H6          3.5339    2.1180   -1.4931 H         1 <0>         0.0731
     21 H7          4.5744    1.3296   -0.2793 H         1 <0>         0.0767
     22 H8          2.6545    0.6089    1.0023 H         1 <0>         0.0799
     23 H9          2.3677    0.1494   -0.6903 H         1 <0>         0.0815
     24 H10         0.0021   -0.0041    0.0020 H         1 <0>         0.1216
     25 H11        -2.1459    1.1882    0.0189 H         1 <0>         0.1224
     26 H12        -2.1812    3.6542    0.0436 H         1 <0>         0.1224
     27 H13        -0.0684    4.9078    0.0257 H         1 <0>         0.1206
     28 H14         2.5852    4.3697   -1.0229 H         1 <0>         0.0783
     29 H15         2.3108    4.8235    0.6737 H         1 <0>         0.0803
@<TRIPOS>BOND
     1    1    2 1
     2    1   16 1
     3    1   17 1
     4    1   18 1
     5    2    3 2
     6    2    4 am
     7    4    5 1
     8    4   19 1
     9    5    6 1
    10    5   15 1
    11    5    7 1
    12    7    8 1
    13    7   20 1
    14    7   21 1
    15    8    9 1
    16    8   22 1
    17    8   23 1
    18    9   14 ar
    19    9   10 ar
    20   10   11 ar
    21   10   24 1
    22   11   12 ar
    23   11   25 1
    24   12   13 ar
    25   12   26 1
    26   13   14 ar
    27   13   27 1
    28   14   15 1
    29   15   28 1
    30   15   29 1
@<TRIPOS>MOLECULE
ZINC13781234
   29    30     0     0     0
SMALL
USER_CHARGES
N-[(2S)-tetralin-2-yl]acetamide
@<TRIPOS>ATOM
      1 C1         -0.0127    1.0858    0.0080 C.3       1 <0>        -0.1758
      2 C2         -0.7181    1.5718    1.2479 C.2       1 <0>         0.5100
      3 O1         -1.1606    0.7732    2.0462 O.2       1 <0>        -0.5431
      4 N1         -0.8571    2.8939    1.4696 N.am      1 <0>        -0.7299
      5 C3         -1.5428    3.3664    2.6749 C.3       1 <0>         0.1444
      6 H1         -1.3366    2.6893    3.5038 H         1 <0>         0.0928
      7 C4         -1.0556    4.7769    3.0269 C.3       1 <0>        -0.1264
      8 C5         -1.6002    5.1447    4.4056 C.3       1 <0>        -0.0772
      9 C6         -3.0870    4.9111    4.4674 C.ar      1 <0>        -0.0812
     10 C7         -3.7973    5.5306    5.4879 C.ar      1 <0>        -0.1189
     11 C8         -5.1603    5.3523    5.6017 C.ar      1 <0>        -0.1212
     12 C9         -5.8260    4.5500    4.6934 C.ar      1 <0>        -0.1202
     13 C10        -5.1228    3.9353    3.6784 C.ar      1 <0>        -0.1181
     14 C11        -3.7505    4.1158    3.5606 C.ar      1 <0>        -0.0723
     15 C12        -3.0477    3.4260    2.4207 C.3       1 <0>        -0.0909
     16 H2          0.0021   -0.0041    0.0020 H         1 <0>         0.0930
     17 H3          1.0099    1.4631    0.0003 H         1 <0>         0.0885
     18 H4         -0.5399    1.4469   -0.8751 H         1 <0>         0.0885
     19 H5         -0.5032    3.5326    0.8311 H         1 <0>         0.4018
     20 H6          0.0341    4.7948    3.0459 H         1 <0>         0.0766
     21 H7         -1.4215    5.4873    2.2855 H         1 <0>         0.0730
     22 H8         -1.1084    4.5323    5.1614 H         1 <0>         0.0799
     23 H9         -1.3930    6.1961    4.6052 H         1 <0>         0.0815
     24 H10        -3.2780    6.1567    6.1983 H         1 <0>         0.1216
     25 H11        -5.7058    5.8381    6.3972 H         1 <0>         0.1224
     26 H12        -6.8929    4.4053    4.7782 H         1 <0>         0.1224
     27 H13        -5.6433    3.3084    2.9696 H         1 <0>         0.1206
     28 H14        -3.2348    3.9751    1.4979 H         1 <0>         0.0783
     29 H15        -3.4357    2.4124    2.3200 H         1 <0>         0.0799
@<TRIPOS>BOND
     1    1    2 1
     2    1   16 1
     3    1   17 1
     4    1   18 1
     5    2    3 2
     6    2    4 am
     7    4    5 1
     8    4   19 1
     9    5    6 1
    10    5   15 1
    11    5    7 1
    12    7    8 1
    13    7   20 1
    14    7   21 1
    15    8    9 1
    16    8   22 1
    17    8   23 1
    18    9   14 ar
    19    9   10 ar
    20   10   11 ar
    21   10   24 1
    22   11   12 ar
    23   11   25 1
    24   12   13 ar
    25   12   26 1
    26   13   14 ar
    27   13   27 1
    28   14   15 1
    29   15   28 1
    30   15   29 1
@<TRIPOS>MOLECULE
ZINC13833080
   35    36     0     0     0
SMALL
USER_CHARGES
N-[(2R)-tetralin-2-yl]butanamide
@<TRIPOS>ATOM
      1 C1          8.1751    7.1856    1.8545 C.3       1 <0>        -0.1541
      2 C2          6.8867    6.3966    2.0960 C.3       1 <0>        -0.1103
      3 C3          6.5898    5.5197    0.8779 C.3       1 <0>        -0.1415
      4 C4          5.3207    4.7426    1.1157 C.2       1 <0>         0.5116
      5 O1          4.7135    4.8769    2.1569 O.2       1 <0>        -0.5366
      6 N1          4.8605    3.8984    0.1713 N.am      1 <0>        -0.7305
      7 C5          3.6268    3.1429    0.4025 C.3       1 <0>         0.1455
      8 H1          3.5480    2.8816    1.4578 H         1 <0>         0.0927
      9 C6          3.6364    1.8661   -0.4463 C.3       1 <0>        -0.1265
     10 C7          2.4652    0.9885   -0.0095 C.3       1 <0>        -0.0772
     11 C8          1.1842    1.7810    0.0003 C.ar      1 <0>        -0.0810
     12 C9         -0.0126    1.0758    0.0080 C.ar      1 <0>        -0.1190
     13 C10        -1.2195    1.7434    0.0173 C.ar      1 <0>        -0.1212
     14 C11        -1.2393    3.1259    0.0322 C.ar      1 <0>        -0.1202
     15 C12        -0.0520    3.8279    0.0249 C.ar      1 <0>        -0.1181
     16 C13         1.1645    3.1574    0.0064 C.ar      1 <0>        -0.0722
     17 C14         2.4221    3.9864   -0.0099 C.3       1 <0>        -0.0907
     18 H2          9.0013    6.4925    1.6958 H         1 <0>         0.0546
     19 H3          8.0554    7.8161    0.9735 H         1 <0>         0.0546
     20 H4          8.3867    7.8103    2.7223 H         1 <0>         0.0586
     21 H5          6.0606    7.0898    2.2548 H         1 <0>         0.0690
     22 H6          7.0064    5.7662    2.9770 H         1 <0>         0.0692
     23 H7          7.4159    4.8266    0.7191 H         1 <0>         0.0935
     24 H8          6.4700    6.1502   -0.0032 H         1 <0>         0.0934
     25 H9          5.3461    3.7910   -0.6615 H         1 <0>         0.4012
     26 H10         4.5734    1.3306   -0.2934 H         1 <0>         0.0765
     27 H11         3.5288    2.1241   -1.4999 H         1 <0>         0.0728
     28 H12         2.6579    0.6043    0.9922 H         1 <0>         0.0798
     29 H13         2.3653    0.1525   -0.7019 H         1 <0>         0.0813
     30 H14         0.0021   -0.0041    0.0020 H         1 <0>         0.1215
     31 H15        -2.1459    1.1882    0.0168 H         1 <0>         0.1224
     32 H16        -2.1811    3.6542    0.0458 H         1 <0>         0.1224
     33 H17        -0.0683    4.9077    0.0332 H         1 <0>         0.1204
     34 H18         2.3123    4.8197    0.6840 H         1 <0>         0.0799
     35 H19         2.5830    4.3755   -1.0153 H         1 <0>         0.0779
@<TRIPOS>BOND
     1    1    2 1
     2    1   18 1
     3    1   19 1
     4    1   20 1
     5    2    3 1
     6    2   21 1
     7    2   22 1
     8    3    4 1
     9    3   23 1
    10    3   24 1
    11    4    5 2
    12    4    6 am
    13    6    7 1
    14    6   25 1
    15    7    8 1
    16    7   17 1
    17    7    9 1
    18    9   10 1
    19    9   26 1
    20    9   27 1
    21   10   11 1
    22   10   28 1
    23   10   29 1
    24   11   16 ar
    25   11   12 ar
    26   12   13 ar
    27   12   30 1
    28   13   14 ar
    29   13   31 1
    30   14   15 ar
    31   14   32 1
    32   15   16 ar
    33   15   33 1
    34   16   17 1
    35   17   34 1
    36   17   35 1
@<TRIPOS>MOLECULE
ZINC13833081
   35    36     0     0     0
SMALL
USER_CHARGES
N-[(2S)-tetralin-2-yl]butanamide
@<TRIPOS>ATOM
      1 C1         -0.7527    1.5927   -1.2315 C.3       1 <0>        -0.1540
      2 C2         -0.0127    1.0858    0.0080 C.3       1 <0>        -0.1103
      3 C3         -0.7288    1.5792    1.2668 C.3       1 <0>        -0.1414
      4 C4          0.0000    1.0800    2.4877 C.2       1 <0>         0.5115
      5 O1          0.9944    0.3968    2.3633 O.2       1 <0>        -0.5366
      6 N1         -0.4531    1.3927    3.7179 N.am      1 <0>        -0.7306
      7 C5          0.2555    0.9074    4.9048 C.3       1 <0>         0.1455
      8 H1          1.3267    0.8763    4.7056 H         1 <0>         0.0927
      9 C6         -0.0226    1.8401    6.0895 C.3       1 <0>        -0.1265
     10 C7          0.9088    1.4529    7.2364 C.3       1 <0>        -0.0772
     11 C8          0.8260   -0.0260    7.5099 C.ar      1 <0>        -0.0810
     12 C9          1.3010   -0.4855    8.7318 C.ar      1 <0>        -0.1190
     13 C10         1.2576   -1.8292    9.0403 C.ar      1 <0>        -0.1212
     14 C11         0.7378   -2.7270    8.1263 C.ar      1 <0>        -0.1202
     15 C12         0.2640   -2.2726    6.9133 C.ar      1 <0>        -0.1181
     16 C13         0.3044   -0.9194    6.6017 C.ar      1 <0>        -0.0722
     17 C14        -0.2424   -0.4908    5.2652 C.3       1 <0>        -0.0906
     18 H2         -1.7753    1.2154   -1.2238 H         1 <0>         0.0546
     19 H3         -0.7675    2.6825   -1.2255 H         1 <0>         0.0547
     20 H4         -0.2425    1.2411   -2.1283 H         1 <0>         0.0586
     21 H5          0.0021   -0.0041    0.0020 H         1 <0>         0.0691
     22 H6          1.0099    1.4631    0.0003 H         1 <0>         0.0692
     23 H7         -0.7436    2.6691    1.2728 H         1 <0>         0.0935
     24 H8         -1.7514    1.2020    1.2746 H         1 <0>         0.0934
     25 H9         -1.2484    1.9391    3.8174 H         1 <0>         0.4012
     26 H10         0.1660    2.8727    5.7960 H         1 <0>         0.0765
     27 H11        -1.0601    1.7321    6.4061 H         1 <0>         0.0728
     28 H12         1.9335    1.7124    6.9703 H         1 <0>         0.0798
     29 H13         0.6209    2.0006    8.1338 H         1 <0>         0.0814
     30 H14         1.7081    0.2151    9.4458 H         1 <0>         0.1215
     31 H15         1.6280   -2.1787    9.9927 H         1 <0>         0.1224
     32 H16         0.7025   -3.7805    8.3615 H         1 <0>         0.1224
     33 H17        -0.1415   -2.9745    6.1997 H         1 <0>         0.1204
     34 H18        -1.3315   -0.4847    5.3074 H         1 <0>         0.0780
     35 H19         0.0832   -1.1964    4.5008 H         1 <0>         0.0799
@<TRIPOS>BOND
     1    1    2 1
     2    1   18 1
     3    1   19 1
     4    1   20 1
     5    2    3 1
     6    2   21 1
     7    2   22 1
     8    3    4 1
     9    3   23 1
    10    3   24 1
    11    4    5 2
    12    4    6 am
    13    6    7 1
    14    6   25 1
    15    7    8 1
    16    7   17 1
    17    7    9 1
    18    9   10 1
    19    9   26 1
    20    9   27 1
    21   10   11 1
    22   10   28 1
    23   10   29 1
    24   11   16 ar
    25   11   12 ar
    26   12   13 ar
    27   12   30 1
    28   13   14 ar
    29   13   31 1
    30   14   15 ar
    31   14   32 1
    32   15   16 ar
    33   15   33 1
    34   16   17 1
    35   17   34 1
    36   17   35 1
@<TRIPOS>MOLECULE
ZINC00066104
   30    31     0     0     0
SMALL
USER_CHARGES

@<TRIPOS>ATOM
      1 C1         -0.0184    1.5028    0.0103 C.3       1 <0>        -0.1735
      2 C2          0.0021   -0.0041    0.0020 C.2       1 <0>         0.5081
      3 O1          0.0203   -0.6160    1.0489 O.2       1 <0>        -0.5457
      4 N1          0.0001   -0.6716   -1.1688 N.am      1 <0>        -0.7341
      5 C3          0.0199   -2.1365   -1.1769 C.3       1 <0>         0.1211
      6 C4          0.0131   -2.6387   -2.6221 C.3       1 <0>        -0.0521
      7 C5          0.0335   -4.1455   -2.6304 C.2       1 <0>        -0.1747
      8 C6          1.1190   -4.9286   -2.7331 C.2       1 <0>         0.0674
      9 N2          0.7490   -6.2453   -2.7044 N.pl3     1 <0>        -0.5936
     10 H1          1.3590   -6.9971   -2.7631 H         1 <0>         0.4185
     11 C7         -0.6208   -6.3441   -2.5790 C.ar      1 <0>         0.0883
     12 C8         -1.1268   -5.0331   -2.5214 C.ar      1 <0>        -0.0845
     13 C9         -2.5005   -4.8203   -2.3882 C.ar      1 <0>        -0.0980
     14 C10        -3.3540   -5.9029   -2.3104 C.ar      1 <0>         0.0791
     15 C11        -2.8496   -7.1995   -2.3642 C.ar      1 <0>        -0.1209
     16 C12        -1.4974   -7.4210   -2.5032 C.ar      1 <0>        -0.1122
     17 O2         -4.6926   -5.7019   -2.1801 O.3       1 <0>        -0.4975
     18 H2          1.0042    1.8801    0.0026 H         1 <0>         0.0937
     19 H3         -0.5455    1.8639   -0.8728 H         1 <0>         0.0799
     20 H4         -0.5286    1.8543    0.9071 H         1 <0>         0.0935
     21 H5         -0.0145   -0.1822   -2.0061 H         1 <0>         0.4010
     22 H6          0.9196   -2.4904   -0.6735 H         1 <0>         0.0673
     23 H7         -0.8601   -2.5146   -0.6566 H         1 <0>         0.0687
     24 H8         -0.8866   -2.2847   -3.1255 H         1 <0>         0.0770
     25 H9          0.8931   -2.2605   -3.1423 H         1 <0>         0.0773
     26 H10         2.1342   -4.5718   -2.8253 H         1 <0>         0.1725
     27 H11        -2.8929   -3.8150   -2.3459 H         1 <0>         0.1278
     28 H12        -3.5257   -8.0394   -2.3022 H         1 <0>         0.1327
     29 H13        -1.1168   -8.4309   -2.5425 H         1 <0>         0.1257
     30 H14        -5.1648   -5.6399   -3.0217 H         1 <0>         0.3872
@<TRIPOS>BOND
     1    1    2 1
     2    1   18 1
     3    1   19 1
     4    1   20 1
     5    2    3 2
     6    2    4 am
     7    4    5 1
     8    4   21 1
     9    5    6 1
    10    5   22 1
    11    5   23 1
    12    6    7 1
    13    6   24 1
    14    6   25 1
    15    7   12 1
    16    7    8 2
    17    8    9 1
    18    8   26 1
    19    9   10 1
    20    9   11 1
    21   11   16 ar
    22   11   12 ar
    23   12   13 ar
    24   13   14 ar
    25   13   27 1
    26   14   15 ar
    27   14   17 1
    28   15   16 ar
    29   15   28 1
    30   16   29 1
    31   17   30 1
@<TRIPOS>MOLECULE
ZINC00066104
   30    31     0     0     0
SMALL
USER_CHARGES

@<TRIPOS>ATOM
      1 C1         -0.2014    1.4875    0.0186 C.3       1 <0>        -0.1912
      2 C2         -0.0853   -0.0150    0.0084 C.2       1 <0>         0.3421
      3 N1          0.1188   -0.6538    1.1107 N.2       1 <0>        -0.5605
      4 C3          0.1213    0.0676    2.3858 C.3       1 <0>         0.0636
      5 C4         -1.0457   -0.4172    3.2483 C.3       1 <0>        -0.0347
      6 C5         -1.0432    0.3249    4.5599 C.2       1 <0>        -0.1728
      7 C6         -0.4818   -0.0855    5.7082 C.2       1 <0>         0.0649
      8 N2         -0.6813    0.8505    6.6858 N.pl3     1 <0>        -0.5944
      9 H1         -0.3672    0.7767    7.6006 H         1 <0>         0.4181
     10 C7         -1.3952    1.9148    6.1765 C.ar      1 <0>         0.0885
     11 C8         -1.6473    1.6336    4.8216 C.ar      1 <0>        -0.0858
     12 C9         -2.3565    2.5473    4.0393 C.ar      1 <0>        -0.0988
     13 C10        -2.8036    3.7256    4.6034 C.ar      1 <0>         0.0777
     14 C11        -2.5496    4.0025    5.9440 C.ar      1 <0>        -0.1220
     15 C12        -1.8576    3.1052    6.7268 C.ar      1 <0>        -0.1118
     16 O1         -3.4945    4.6194    3.8464 O.3       1 <0>        -0.4984
     17 O2         -0.1949   -0.6921   -1.1535 O.3       1 <0>        -0.4709
     18 H2          0.6882    1.9176    0.4787 H         1 <0>         0.0884
     19 H3         -0.2935    1.8518   -1.0046 H         1 <0>         0.0795
     20 H4         -1.0830    1.7799    0.5891 H         1 <0>         0.0892
     21 H5          1.0603   -0.1189    2.9070 H         1 <0>         0.0825
     22 H6          0.0155    1.1362    2.1988 H         1 <0>         0.0480
     23 H7         -1.9847   -0.2307    2.7272 H         1 <0>         0.0673
     24 H8         -0.9399   -1.4859    3.4353 H         1 <0>         0.0801
     25 H9          0.0484   -1.0170    5.8408 H         1 <0>         0.1734
     26 H10        -2.5539    2.3338    2.9992 H         1 <0>         0.1251
     27 H11        -2.9033    4.9272    6.3756 H         1 <0>         0.1323
     28 H12        -1.6649    3.3308    7.7653 H         1 <0>         0.1255
     29 H13        -4.4518    4.4829    3.8523 H         1 <0>         0.3872
     30 H14        -0.3468   -0.1285   -1.9244 H         1 <0>         0.4077
@<TRIPOS>BOND
     1    1    2 1
     2    1   18 1
     3    1   19 1
     4    1   20 1
     5    2    3 2
     6    2   17 1
     7    3    4 1
     8    4    5 1
     9    4   21 1
    10    4   22 1
    11    5    6 1
    12    5   23 1
    13    5   24 1
    14    6   11 1
    15    6    7 2
    16    7    8 1
    17    7   25 1
    18    8    9 1
    19    8   10 1
    20   10   15 ar
    21   10   11 ar
    22   11   12 ar
    23   12   13 ar
    24   12   26 1
    25   13   14 ar
    26   13   16 1
    27   14   15 ar
    28   14   27 1
    29   15   28 1
    30   16   29 1
    31   17   30 1
@<TRIPOS>MOLECULE
ZINC00174849
   29    30     0     0     0
SMALL
USER_CHARGES

@<TRIPOS>ATOM
      1 C1         -0.0184    1.5028    0.0103 C.3       1 <0>        -0.1736
      2 C2          0.0021   -0.0041    0.0020 C.2       1 <0>         0.5081
      3 O1          0.0203   -0.6160    1.0489 O.2       1 <0>        -0.5462
      4 N1          0.0001   -0.6716   -1.1688 N.am      1 <0>        -0.7340
      5 C3          0.0199   -2.1365   -1.1769 C.3       1 <0>         0.1217
      6 C4          0.0131   -2.6387   -2.6221 C.3       1 <0>        -0.0518
      7 C5          0.0335   -4.1455   -2.6304 C.2       1 <0>        -0.1737
      8 C6          1.1188   -4.9288   -2.7332 C.2       1 <0>         0.0613
      9 N2          0.7482   -6.2456   -2.7048 N.pl3     1 <0>        -0.5947
     10 H1          1.3581   -6.9976   -2.7639 H         1 <0>         0.4172
     11 C7         -0.6195   -6.3445   -2.5799 C.ar      1 <0>         0.0946
     12 C8         -1.1266   -5.0333   -2.5214 C.ar      1 <0>        -0.1007
     13 C9         -2.5001   -4.8230   -2.3875 C.ar      1 <0>        -0.0715
     14 C10        -3.3459   -5.8937   -2.3102 C.ar      1 <0>        -0.1446
     15 C11        -2.8503   -7.1889   -2.3633 C.ar      1 <0>        -0.0979
     16 C12        -1.4991   -7.4192   -2.5046 C.ar      1 <0>        -0.1302
     17 H2          1.0042    1.8801    0.0026 H         1 <0>         0.0937
     18 H3         -0.5455    1.8639   -0.8728 H         1 <0>         0.0799
     19 H4         -0.5286    1.8543    0.9071 H         1 <0>         0.0934
     20 H5         -0.0145   -0.1822   -2.0061 H         1 <0>         0.4011
     21 H6          0.9196   -2.4904   -0.6735 H         1 <0>         0.0668
     22 H7         -0.8601   -2.5146   -0.6566 H         1 <0>         0.0686
     23 H8         -0.8866   -2.2847   -3.1255 H         1 <0>         0.0768
     24 H9          0.8931   -2.2605   -3.1423 H         1 <0>         0.0762
     25 H10         2.1341   -4.5723   -2.8250 H         1 <0>         0.1706
     26 H11        -2.8928   -3.8179   -2.3448 H         1 <0>         0.1204
     27 H12        -4.4085   -5.7305   -2.2066 H         1 <0>         0.1228
     28 H13        -3.5313   -8.0248   -2.3003 H         1 <0>         0.1257
     29 H14        -1.1230   -8.4309   -2.5437 H         1 <0>         0.1200
@<TRIPOS>BOND
     1    1    2 1
     2    1   17 1
     3    1   18 1
     4    1   19 1
     5    2    3 2
     6    2    4 am
     7    4    5 1
     8    4   20 1
     9    5    6 1
    10    5   21 1
    11    5   22 1
    12    6    7 1
    13    6   23 1
    14    6   24 1
    15    7   12 1
    16    7    8 2
    17    8    9 1
    18    8   25 1
    19    9   10 1
    20    9   11 1
    21   11   16 ar
    22   11   12 ar
    23   12   13 ar
    24   13   14 ar
    25   13   26 1
    26   14   15 ar
    27   14   27 1
    28   15   16 ar
    29   15   28 1
    30   16   29 1
@<TRIPOS>MOLECULE
ZINC00317413
   36    37     0     0     0
SMALL
USER_CHARGES
N-[2-(5-methoxy-1H-indol-3-yl)ethyl]propanamide
@<TRIPOS>ATOM
      1 C1          9.4440    1.0877   -4.1227 C.3       1 <0>        -0.1387
      2 C2          8.9753    1.2862   -2.6799 C.3       1 <0>        -0.1446
      3 C3          7.4881    1.5292   -2.6638 C.2       1 <0>         0.5086
      4 O1          6.8645    1.5422   -3.7039 O.2       1 <0>        -0.5391
      5 N1          6.8511    1.7319   -1.4935 N.am      1 <0>        -0.7352
      6 C4          5.4053    1.9681   -1.4778 C.3       1 <0>         0.1225
      7 C5          4.9366    2.1667   -0.0350 C.3       1 <0>        -0.0517
      8 C6          3.4494    2.4096   -0.0188 C.2       1 <0>        -0.1792
      9 C7          2.8357    3.6034   -0.0063 C.2       1 <0>         0.0723
     10 N2          1.4787    3.4304    0.0063 N.pl3     1 <0>        -0.5944
     11 H1          0.8254    4.1474    0.0167 H         1 <0>         0.4173
     12 C8          1.1781    2.0845    0.0020 C.ar      1 <0>         0.0645
     13 C9          2.3998    1.3876   -0.0139 C.ar      1 <0>        -0.0603
     14 C10         2.4068   -0.0087   -0.0214 C.ar      1 <0>        -0.1120
     15 C11         1.2097   -0.6968   -0.0132 C.ar      1 <0>         0.1023
     16 C12         0.0021   -0.0041    0.0020 C.ar      1 <0>        -0.1777
     17 C13        -0.0166    1.3730    0.0096 C.ar      1 <0>        -0.0891
     18 O2          1.2102   -2.0567   -0.0205 O.3       1 <0>        -0.3189
     19 C14        -0.0627   -2.7060   -0.0119 C.3       1 <0>         0.0281
     20 H2          8.9310    0.2294   -4.5566 H         1 <0>         0.0616
     21 H3          9.2153    1.9802   -4.7051 H         1 <0>         0.0612
     22 H4         10.5197    0.9120   -4.1344 H         1 <0>         0.0616
     23 H5          9.4884    2.1445   -2.2460 H         1 <0>         0.0927
     24 H6          9.2040    0.3937   -2.0975 H         1 <0>         0.0931
     25 H7          7.3499    1.7215   -0.6616 H         1 <0>         0.4006
     26 H8          4.8923    1.1098   -1.9116 H         1 <0>         0.0687
     27 H9          5.1766    2.8606   -2.0602 H         1 <0>         0.0666
     28 H10         5.4497    3.0249    0.3989 H         1 <0>         0.0765
     29 H11         5.1653    1.2741    0.5474 H         1 <0>         0.0773
     30 H12         3.3387    4.5591   -0.0067 H         1 <0>         0.1718
     31 H13         3.3428   -0.5472   -0.0340 H         1 <0>         0.1295
     32 H14        -0.9287   -0.5517    0.0083 H         1 <0>         0.1322
     33 H15        -0.9591    1.9003    0.0169 H         1 <0>         0.1243
     34 H16         0.0806   -3.7865   -0.0190 H         1 <0>         0.0994
     35 H17        -0.6113   -2.4182    0.8850 H         1 <0>         0.0541
     36 H18        -0.6283   -2.4086   -0.8949 H         1 <0>         0.0542
@<TRIPOS>BOND
     1    1    2 1
     2    1   20 1
     3    1   21 1
     4    1   22 1
     5    2    3 1
     6    2   23 1
     7    2   24 1
     8    3    4 2
     9    3    5 am
    10    5    6 1
    11    5   25 1
    12    6    7 1
    13    6   26 1
    14    6   27 1
    15    7    8 1
    16    7   28 1
    17    7   29 1
    18    8   13 1
    19    8    9 2
    20    9   10 1
    21    9   30 1
    22   10   11 1
    23   10   12 1
    24   12   17 ar
    25   12   13 ar
    26   13   14 ar
    27   14   15 ar
    28   14   31 1
    29   15   16 ar
    30   15   18 1
    31   16   17 ar
    32   16   32 1
    33   17   33 1
    34   18   19 1
    35   19   34 1
    36   19   35 1
    37   19   36 1
@<TRIPOS>MOLECULE
ZINC00057237
   33    34     0     0     0
SMALL
USER_CHARGES

@<TRIPOS>ATOM
      1 C1         -0.0184    1.5028    0.0103 C.3       1 <0>        -0.1755
      2 C2          0.0021   -0.0041    0.0020 C.2       1 <0>         0.5081
      3 O1          1.0605   -0.5961   -0.0113 O.2       1 <0>        -0.5448
      4 N1         -1.1558   -0.6938    0.0094 N.am      1 <0>        -0.7351
      5 C3         -1.1360   -2.1586    0.0013 C.3       1 <0>         0.1214
      6 C4         -2.5713   -2.6882    0.0122 C.3       1 <0>        -0.0516
      7 C5         -2.5509   -4.1950    0.0039 C.2       1 <0>        -0.1811
      8 C6         -2.6386   -4.9886   -1.0752 C.2       1 <0>         0.0787
      9 N2         -2.5852   -6.3017   -0.6943 N.pl3     1 <0>        -0.5896
     10 H1         -2.6296   -7.0595   -1.2982 H         1 <0>         0.4201
     11 C7         -2.4585   -6.3870    0.6762 C.ar      1 <0>         0.0736
     12 C8         -2.4252   -5.0711    1.1715 C.ar      1 <0>        -0.0564
     13 C9         -2.2953   -4.8442    2.5434 C.ar      1 <0>        -0.1579
     14 C10        -2.1964   -5.9174    3.4060 C.ar      1 <0>         0.1160
     15 C11        -2.2255   -7.2199    2.9125 C.ar      1 <0>        -0.0410
     16 C12        -2.3631   -7.4552    1.5615 C.ar      1 <0>        -0.0817
     17 Cl1        -2.0995   -8.5588    4.0103 Cl        1 <0>        -0.0504
     18 O2         -2.0697   -5.7023    4.7430 O.3       1 <0>        -0.3058
     19 C13        -2.0462   -4.3426    5.1820 C.3       1 <0>         0.0263
     20 H2          1.0042    1.8801    0.0026 H         1 <0>         0.0925
     21 H3         -0.5455    1.8639   -0.8728 H         1 <0>         0.0883
     22 H4         -0.5286    1.8543    0.9071 H         1 <0>         0.0882
     23 H5         -2.0023   -0.2203    0.0200 H         1 <0>         0.4013
     24 H6         -0.6258   -2.5101   -0.8955 H         1 <0>         0.0679
     25 H7         -0.6088   -2.5197    0.8844 H         1 <0>         0.0676
     26 H8         -3.0815   -2.3367    0.9090 H         1 <0>         0.0764
     27 H9         -3.0985   -2.3271   -0.8709 H         1 <0>         0.0783
     28 H10        -2.7372   -4.6419   -2.0933 H         1 <0>         0.1747
     29 H11        -2.2719   -3.8350    2.9271 H         1 <0>         0.1366
     30 H12        -2.3830   -8.4688    1.1891 H         1 <0>         0.1394
     31 H13        -1.9414   -4.3127    6.2665 H         1 <0>         0.1028
     32 H14        -1.2040   -3.8265    4.7212 H         1 <0>         0.0565
     33 H15        -2.9754   -3.8515    4.8931 H         1 <0>         0.0562
@<TRIPOS>BOND
     1    1    2 1
     2    1   20 1
     3    1   21 1
     4    1   22 1
     5    2    3 2
     6    2    4 am
     7    4    5 1
     8    4   23 1
     9    5    6 1
    10    5   24 1
    11    5   25 1
    12    6    7 1
    13    6   26 1
    14    6   27 1
    15    7   12 1
    16    7    8 2
    17    8    9 1
    18    8   28 1
    19    9   10 1
    20    9   11 1
    21   11   16 ar
    22   11   12 ar
    23   12   13 ar
    24   13   14 ar
    25   13   29 1
    26   14   15 ar
    27   14   18 1
    28   15   16 ar
    29   15   17 1
    30   16   30 1
    31   18   19 1
    32   19   31 1
    33   19   32 1
    34   19   33 1
@<TRIPOS>MOLECULE
ZINC00352027
   32    33     0     0     0
SMALL
USER_CHARGES

@<TRIPOS>ATOM
      1 C1         -0.0187    1.5258    0.0104 C.3       1 <0>        -0.1388
      2 C2          0.0021   -0.0041    0.0020 C.3       1 <0>        -0.1446
      3 C3          0.7309   -0.5033    1.2229 C.2       1 <0>         0.5085
      4 O1          1.1887    0.2867    2.0212 O.2       1 <0>        -0.5390
      5 N1          0.8741   -1.8277    1.4277 N.am      1 <0>        -0.7354
      6 C4          1.5826   -2.3130    2.6146 C.3       1 <0>         0.1229
      7 C5          1.6034   -3.8428    2.6062 C.3       1 <0>        -0.0520
      8 C6          2.3322   -4.3420    3.8271 C.2       1 <0>        -0.1734
      9 C7          3.6307   -4.6742    3.9017 C.2       1 <0>         0.0611
     10 N2          3.9353   -5.0842    5.1711 N.pl3     1 <0>        -0.5947
     11 H1          4.8122   -5.3739    5.4678 H         1 <0>         0.4172
     12 C8          2.8116   -5.0244    5.9646 C.ar      1 <0>         0.0947
     13 C9          1.7596   -4.5508    5.1591 C.ar      1 <0>        -0.1007
     14 C10         0.4861   -4.3818    5.7052 C.ar      1 <0>        -0.0714
     15 C11         0.2683   -4.6742    7.0223 C.ar      1 <0>        -0.1447
     16 C12         1.3036   -5.1377    7.8220 C.ar      1 <0>        -0.0979
     17 C13         2.5662   -5.3206    7.3012 C.ar      1 <0>        -0.1303
     18 H2          1.0039    1.9031    0.0027 H         1 <0>         0.0613
     19 H3         -0.5459    1.8868   -0.8726 H         1 <0>         0.0618
     20 H4         -0.5289    1.8773    0.9072 H         1 <0>         0.0616
     21 H5         -1.0205   -0.3814    0.0098 H         1 <0>         0.0931
     22 H6          0.5123   -0.3556   -0.8948 H         1 <0>         0.0929
     23 H7          0.5079   -2.4595    0.7893 H         1 <0>         0.4006
     24 H8          2.6052   -1.9357    2.6069 H         1 <0>         0.0666
     25 H9          1.0724   -1.9615    3.5114 H         1 <0>         0.0682
     26 H10         0.5808   -4.2201    2.6139 H         1 <0>         0.0767
     27 H11         2.1136   -4.1943    1.7094 H         1 <0>         0.0762
     28 H12         4.3312   -4.6254    3.0811 H         1 <0>         0.1705
     29 H13        -0.3242   -4.0208    5.0891 H         1 <0>         0.1203
     30 H14        -0.7171   -4.5432    7.4443 H         1 <0>         0.1228
     31 H15         1.1162   -5.3638    8.8613 H         1 <0>         0.1257
     32 H16         3.3655   -5.6807    7.9319 H         1 <0>         0.1200
@<TRIPOS>BOND
     1    1    2 1
     2    1   18 1
     3    1   19 1
     4    1   20 1
     5    2    3 1
     6    2   21 1
     7    2   22 1
     8    3    4 2
     9    3    5 am
    10    5    6 1
    11    5   23 1
    12    6    7 1
    13    6   24 1
    14    6   25 1
    15    7    8 1
    16    7   26 1
    17    7   27 1
    18    8   13 1
    19    8    9 2
    20    9   10 1
    21    9   28 1
    22   10   11 1
    23   10   12 1
    24   12   17 ar
    25   12   13 ar
    26   13   14 ar
    27   14   15 ar
    28   14   29 1
    29   15   16 ar
    30   15   30 1
    31   16   17 ar
    32   16   31 1
    33   17   32 1
@<TRIPOS>MOLECULE
ZINC12031889
   35    36     0     0     0
SMALL
USER_CHARGES
N-[2-(1H-indol-3-yl)ethyl]butanamide
@<TRIPOS>ATOM
      1 C1         -1.0209    1.7710   -6.1283 C.3       1 <0>        -0.1539
      2 C2         -0.2809    1.2642   -4.8887 C.3       1 <0>        -0.1106
      3 C3         -0.9970    1.7576   -3.6299 C.3       1 <0>        -0.1411
      4 C4         -0.2681    1.2584   -2.4090 C.2       1 <0>         0.5095
      5 O1          0.7262    0.5752   -2.5335 O.2       1 <0>        -0.5389
      6 N1         -0.7213    1.5711   -1.1789 N.am      1 <0>        -0.7354
      7 C5         -0.0127    1.0858    0.0080 C.3       1 <0>         0.1231
      8 C6         -0.7288    1.5792    1.2668 C.3       1 <0>        -0.0520
      9 C7          0.0000    1.0800    2.4877 C.2       1 <0>        -0.1733
     10 C8         -0.2888   -0.0242    3.1942 C.2       1 <0>         0.0611
     11 N2          0.5910   -0.1564    4.2338 N.pl3     1 <0>        -0.5948
     12 H1          0.5835   -0.8781    4.8819 H         1 <0>         0.4172
     13 C9          1.4851    0.8907    4.2264 C.ar      1 <0>         0.0947
     14 C10         1.1542    1.7112    3.1323 C.ar      1 <0>        -0.1007
     15 C11         1.9006    2.8621    2.8738 C.ar      1 <0>        -0.0714
     16 C12         2.9506    3.1863    3.6862 C.ar      1 <0>        -0.1446
     17 C13         3.2809    2.3806    4.7669 C.ar      1 <0>        -0.0979
     18 C14         2.5576    1.2400    5.0401 C.ar      1 <0>        -0.1303
     19 H2         -1.0356    2.8609   -6.1223 H         1 <0>         0.0547
     20 H3         -0.5107    1.4195   -7.0251 H         1 <0>         0.0584
     21 H4         -2.0435    1.3938   -6.1205 H         1 <0>         0.0545
     22 H5          0.7417    1.6415   -4.8965 H         1 <0>         0.0691
     23 H6         -0.2661    0.1743   -4.8947 H         1 <0>         0.0689
     24 H7         -2.0196    1.3803   -3.6222 H         1 <0>         0.0931
     25 H8         -1.0118    2.8475   -3.6239 H         1 <0>         0.0933
     26 H9         -1.5165    2.1175   -1.0793 H         1 <0>         0.4005
     27 H10         0.0021   -0.0041    0.0020 H         1 <0>         0.0667
     28 H11         1.0099    1.4631    0.0003 H         1 <0>         0.0683
     29 H12        -0.7436    2.6691    1.2728 H         1 <0>         0.0767
     30 H13        -1.7514    1.2020    1.2746 H         1 <0>         0.0761
     31 H14        -1.0951   -0.7081    2.9736 H         1 <0>         0.1705
     32 H15         1.6493    3.4939    2.0348 H         1 <0>         0.1203
     33 H16         3.5282    4.0766    3.4855 H         1 <0>         0.1228
     34 H17         4.1133    2.6501    5.4000 H         1 <0>         0.1257
     35 H18         2.8229    0.6192    5.8831 H         1 <0>         0.1200
@<TRIPOS>BOND
     1    1    2 1
     2    1   19 1
     3    1   20 1
     4    1   21 1
     5    2    3 1
     6    2   22 1
     7    2   23 1
     8    3    4 1
     9    3   24 1
    10    3   25 1
    11    4    5 2
    12    4    6 am
    13    6    7 1
    14    6   26 1
    15    7    8 1
    16    7   27 1
    17    7   28 1
    18    8    9 1
    19    8   29 1
    20    8   30 1
    21    9   14 1
    22    9   10 2
    23   10   11 1
    24   10   31 1
    25   11   12 1
    26   11   13 1
    27   13   18 ar
    28   13   14 ar
    29   14   15 ar
    30   15   16 ar
    31   15   32 1
    32   16   17 ar
    33   16   33 1
    34   17   18 ar
    35   17   34 1
    36   18   35 1
@<TRIPOS>MOLECULE
ZINC06068952
   36    37     0     0     0
SMALL
USER_CHARGES
N-[2-(6,7-dichloro-5-methoxy-2-methyl-1H-indol-3-yl)ethyl]acetamide
@<TRIPOS>ATOM
      1 C1          1.7099   -1.8996   -0.0236 C.3       1 <0>        -0.1007
      2 C2          1.2952   -0.4508   -0.0127 C.2       1 <0>         0.1143
      3 C3          2.1397    0.5926   -0.0152 C.2       1 <0>        -0.1780
      4 C4          1.3209    1.8074   -0.0008 C.ar      1 <0>        -0.0413
      5 C5          1.6139    3.1735    0.0037 C.ar      1 <0>        -0.1538
      6 C6          0.5844    4.0924    0.0184 C.ar      1 <0>         0.1270
      7 C7         -0.7410    3.6621    0.0293 C.ar      1 <0>        -0.0401
      8 C8         -1.0418    2.3167    0.0296 C.ar      1 <0>        -0.0048
      9 C9         -0.0166    1.3751    0.0096 C.ar      1 <0>         0.0828
     10 N1          0.0021   -0.0041    0.0020 N.pl3     1 <0>        -0.5804
     11 H1         -0.7841   -0.5723    0.0060 H         1 <0>         0.4208
     12 Cl1        -2.6981    1.7971    0.0493 Cl        1 <0>        -0.0417
     13 Cl2        -2.0247    4.8307    0.0484 Cl        1 <0>        -0.0290
     14 O1          0.8645    5.4233    0.0229 O.3       1 <0>        -0.3018
     15 C10         2.2440    5.7960    0.0117 C.3       1 <0>         0.0254
     16 C11         3.6452    0.5268   -0.0303 C.3       1 <0>        -0.0507
     17 C12         4.1405    0.5120   -1.4778 C.3       1 <0>         0.1216
     18 N2          5.6040    0.4481   -1.4925 N.am      1 <0>        -0.7350
     19 C13         6.2658    0.4247   -2.6664 C.2       1 <0>         0.5084
     20 O2          5.6497    0.4566   -3.7106 O.2       1 <0>        -0.5444
     21 C14         7.7713    0.3590   -2.6816 C.3       1 <0>        -0.1756
     22 H2          1.8003   -2.2439   -1.0539 H         1 <0>         0.0845
     23 H3          2.6702   -2.0064    0.4808 H         1 <0>         0.0897
     24 H4          0.9591   -2.4964    0.4943 H         1 <0>         0.0738
     25 H5          2.6406    3.5086   -0.0040 H         1 <0>         0.1432
     26 H6          2.7372    5.3900    0.8948 H         1 <0>         0.0581
     27 H7          2.7202    5.3995   -0.8850 H         1 <0>         0.0584
     28 H8          2.3267    6.8828    0.0167 H         1 <0>         0.1052
     29 H9          4.0521    1.3975    0.4841 H         1 <0>         0.0776
     30 H10         3.9744   -0.3808    0.4757 H         1 <0>         0.0796
     31 H11         3.7336   -0.3586   -1.9922 H         1 <0>         0.0680
     32 H12         3.8114    1.4196   -1.9838 H         1 <0>         0.0681
     33 H13         6.0968    0.4226   -0.6574 H         1 <0>         0.4013
     34 H14         8.1004   -0.5487   -2.1756 H         1 <0>         0.0884
     35 H15         8.1241    0.3484   -3.7128 H         1 <0>         0.0926
     36 H16         8.1782    1.2296   -2.1672 H         1 <0>         0.0882
@<TRIPOS>BOND
     1    1    2 1
     2    1   22 1
     3    1   23 1
     4    1   24 1
     5    2   10 1
     6    2    3 2
     7    3    4 1
     8    3   16 1
     9    4    9 ar
    10    4    5 ar
    11    5    6 ar
    12    5   25 1
    13    6    7 ar
    14    6   14 1
    15    7    8 ar
    16    7   13 1
    17    8    9 ar
    18    8   12 1
    19    9   10 1
    20   10   11 1
    21   14   15 1
    22   15   26 1
    23   15   27 1
    24   15   28 1
    25   16   17 1
    26   16   29 1
    27   16   30 1
    28   17   18 1
    29   17   31 1
    30   17   32 1
    31   18   19 am
    32   18   33 1
    33   19   20 2
    34   19   21 1
    35   21   34 1
    36   21   35 1
    37   21   36 1
@<TRIPOS>MOLECULE
ZINC13781235
   32    33     0     0     0
SMALL
USER_CHARGES
N-[(2R)-tetralin-2-yl]propanamide
@<TRIPOS>ATOM
      1 C1          0.2825    2.8273   -5.8600 C.3       1 <0>        -0.1387
      2 C2          0.6690    1.8278   -4.7680 C.3       1 <0>        -0.1448
      3 C3         -0.1450    2.0981   -3.5288 C.2       1 <0>         0.5106
      4 O1         -0.9545    3.0012   -3.5200 O.2       1 <0>        -0.5366
      5 N1          0.0266    1.3362   -2.4304 N.am      1 <0>        -0.7306
      6 C4         -0.7647    1.5989   -1.2258 C.3       1 <0>         0.1453
      7 H1         -0.9411    2.6702   -1.1289 H         1 <0>         0.0926
      8 C5         -0.0127    1.0858    0.0080 C.3       1 <0>        -0.1265
      9 C6         -0.7381    1.5836    1.2565 C.3       1 <0>        -0.0771
     10 C7         -2.2075    1.2573    1.1796 C.ar      1 <0>        -0.0811
     11 C8         -2.9410    1.2965    2.3586 C.ar      1 <0>        -0.1190
     12 C9         -4.2921    1.0191    2.3531 C.ar      1 <0>        -0.1212
     13 C10        -4.9224    0.6991    1.1649 C.ar      1 <0>        -0.1202
     14 C11        -4.1953    0.6569   -0.0065 C.ar      1 <0>        -0.1181
     15 C12        -2.8341    0.9339   -0.0028 C.ar      1 <0>        -0.0722
     16 C13        -2.1004    0.8638   -1.3164 C.3       1 <0>        -0.0907
     17 H2          0.4784    3.8410   -5.5106 H         1 <0>         0.0617
     18 H3          0.8713    2.6319   -6.7563 H         1 <0>         0.0620
     19 H4         -0.7773    2.7211   -6.0912 H         1 <0>         0.0616
     20 H5          1.7289    1.9340   -4.5368 H         1 <0>         0.0933
     21 H6          0.4731    0.8141   -5.1174 H         1 <0>         0.0932
     22 H7          0.6740    0.6139   -2.4374 H         1 <0>         0.4013
     23 H8          0.0021   -0.0041    0.0020 H         1 <0>         0.0728
     24 H9          1.0085    1.4668    0.0003 H         1 <0>         0.0765
     25 H10        -0.3083    1.1054    2.1367 H         1 <0>         0.0814
     26 H11        -0.6137    2.6634    1.3381 H         1 <0>         0.0798
     27 H12        -2.4492    1.5460    3.2872 H         1 <0>         0.1216
     28 H13        -4.8558    1.0521    3.2738 H         1 <0>         0.1224
     29 H14        -5.9805    0.4826    1.1539 H         1 <0>         0.1224
     30 H15        -4.6884    0.4069   -0.9342 H         1 <0>         0.1205
     31 H16        -2.7110    1.3226   -2.0940 H         1 <0>         0.0799
     32 H17        -1.9194   -0.1803   -1.5717 H         1 <0>         0.0780
@<TRIPOS>BOND
     1    1    2 1
     2    1   17 1
     3    1   18 1
     4    1   19 1
     5    2    3 1
     6    2   20 1
     7    2   21 1
     8    3    4 2
     9    3    5 am
    10    5    6 1
    11    5   22 1
    12    6    7 1
    13    6   16 1
    14    6    8 1
    15    8    9 1
    16    8   23 1
    17    8   24 1
    18    9   10 1
    19    9   25 1
    20    9   26 1
    21   10   15 ar
    22   10   11 ar
    23   11   12 ar
    24   11   27 1
    25   12   13 ar
    26   12   28 1
    27   13   14 ar
    28   13   29 1
    29   14   15 ar
    30   14   30 1
    31   15   16 1
    32   16   31 1
    33   16   32 1
@<TRIPOS>MOLECULE
ZINC13781236
   32    33     0     0     0
SMALL
USER_CHARGES
N-[(2S)-tetralin-2-yl]propanamide
@<TRIPOS>ATOM
      1 C1          6.8134    6.4664   -2.1293 C.3       1 <0>        -0.1387
      2 C2          6.5577    5.5508   -0.9304 C.3       1 <0>        -0.1449
      3 C3          5.2837    4.7770   -1.1520 C.2       1 <0>         0.5106
      4 O1          4.6433    4.9416   -2.1687 O.2       1 <0>        -0.5365
      5 N1          4.8560    3.9020   -0.2204 N.am      1 <0>        -0.7306
      6 C4          3.6175    3.1497   -0.4359 C.3       1 <0>         0.1456
      7 H1          3.5154    2.9047   -1.4930 H         1 <0>         0.0921
      8 C5          3.6459    1.8599    0.3927 C.3       1 <0>        -0.1265
      9 C6          2.4650    0.9888   -0.0306 C.3       1 <0>        -0.0771
     10 C7          1.1842    1.7810    0.0003 C.ar      1 <0>        -0.0811
     11 C8         -0.0126    1.0758    0.0080 C.ar      1 <0>        -0.1190
     12 C9         -1.2195    1.7435    0.0173 C.ar      1 <0>        -0.1212
     13 C10        -1.2393    3.1259    0.0305 C.ar      1 <0>        -0.1202
     14 C11        -0.0521    3.8279    0.0260 C.ar      1 <0>        -0.1181
     15 C12         1.1645    3.1574    0.0131 C.ar      1 <0>        -0.0722
     16 C13         2.4222    3.9863    0.0162 C.3       1 <0>        -0.0908
     17 H2          5.9808    7.1612   -2.2399 H         1 <0>         0.0616
     18 H3          7.7349    7.0261   -1.9690 H         1 <0>         0.0620
     19 H4          6.9066    5.8642   -3.0330 H         1 <0>         0.0617
     20 H5          6.4645    6.1530   -0.0267 H         1 <0>         0.0932
     21 H6          7.3903    4.8560   -0.8198 H         1 <0>         0.0933
     22 H7          5.3682    3.7704    0.5927 H         1 <0>         0.4013
     23 H8          4.5791    1.3270    0.2103 H         1 <0>         0.0765
     24 H9          3.5628    2.1024    1.4521 H         1 <0>         0.0729
     25 H10         2.3805    0.1422    0.6506 H         1 <0>         0.0814
     26 H11         2.6350    0.6198   -1.0421 H         1 <0>         0.0798
     27 H12         0.0021   -0.0041    0.0020 H         1 <0>         0.1216
     28 H13        -2.1459    1.1882    0.0186 H         1 <0>         0.1224
     29 H14        -2.1812    3.6543    0.0403 H         1 <0>         0.1224
     30 H15        -0.0683    4.9078    0.0323 H         1 <0>         0.1205
     31 H16         2.2978    4.8309   -0.6615 H         1 <0>         0.0801
     32 H17         2.6048    4.3588    1.0241 H         1 <0>         0.0780
@<TRIPOS>BOND
     1    1    2 1
     2    1   17 1
     3    1   18 1
     4    1   19 1
     5    2    3 1
     6    2   20 1
     7    2   21 1
     8    3    4 2
     9    3    5 am
    10    5    6 1
    11    5   22 1
    12    6    7 1
    13    6   16 1
    14    6    8 1
    15    8    9 1
    16    8   23 1
    17    8   24 1
    18    9   10 1
    19    9   25 1
    20    9   26 1
    21   10   15 ar
    22   10   11 ar
    23   11   12 ar
    24   11   27 1
    25   12   13 ar
    26   12   28 1
    27   13   14 ar
    28   13   29 1
    29   14   15 ar
    30   14   30 1
    31   15   16 1
    32   16   31 1
    33   16   32 1
@<TRIPOS>MOLECULE
ZINC01645258
   33    35     0     0     0
SMALL
USER_CHARGES
N-[2-(1H-indol-3-yl)ethyl]cyclopropanecarboxamide
@<TRIPOS>ATOM
      1 C1         -0.6341   -2.3075   -0.0043 C.ar      1 <0>        -0.1446
      2 C2          0.7038   -2.6781   -0.0190 C.ar      1 <0>        -0.0979
      3 C3          1.6972   -1.7238   -0.0234 C.ar      1 <0>        -0.1301
      4 C4          1.3591   -0.3743   -0.0129 C.ar      1 <0>         0.0946
      5 C5          0.0021   -0.0041    0.0020 C.ar      1 <0>        -0.1008
      6 C6         -0.9886   -0.9881    0.0066 C.ar      1 <0>        -0.0714
      7 C7         -0.0178    1.4606    0.0101 C.2       1 <0>        -0.1734
      8 C8          1.2605    1.8705    0.0001 C.2       1 <0>         0.0612
      9 N1          2.0972    0.7879   -0.0137 N.pl3     1 <0>        -0.5945
     10 H1          3.0662    0.8327   -0.0227 H         1 <0>         0.4172
     11 C9         -1.2412    2.3405    0.0209 C.3       1 <0>        -0.0519
     12 C10        -1.7215    2.5284    1.4614 C.3       1 <0>         0.1236
     13 N2         -2.9108    3.3838    1.4719 N.am      1 <0>        -0.7289
     14 C11        -3.5115    3.6883    2.6393 C.2       1 <0>         0.5414
     15 O1         -3.0675    3.2543    3.6811 O.2       1 <0>        -0.5388
     16 C12        -4.7350    4.5682    2.6502 C.3       1 <0>        -0.1979
     17 C13        -4.5948    5.9655    3.2574 C.3       1 <0>        -0.1525
     18 C14        -5.3696    4.8790    4.0072 C.3       1 <0>        -0.1476
     19 H2         -1.4007   -3.0682   -0.0007 H         1 <0>         0.1228
     20 H3          0.9683   -3.7251   -0.0268 H         1 <0>         0.1257
     21 H4          2.7350   -2.0223   -0.0346 H         1 <0>         0.1200
     22 H5         -2.0314   -0.7072    0.0183 H         1 <0>         0.1204
     23 H6          1.5809    2.9018    0.0022 H         1 <0>         0.1706
     24 H7         -0.9945    3.3111   -0.4094 H         1 <0>         0.0766
     25 H8         -2.0306    1.8724   -0.5672 H         1 <0>         0.0771
     26 H9         -1.9682    1.5578    1.8916 H         1 <0>         0.0692
     27 H10        -0.9321    2.9965    2.0495 H         1 <0>         0.0672
     28 H11        -3.2660    3.7309    0.6387 H         1 <0>         0.4016
     29 H12        -5.4029    4.4552    1.7962 H         1 <0>         0.1243
     30 H13        -3.6177    6.2484    3.6490 H         1 <0>         0.0991
     31 H14        -5.1708    6.7717    2.8032 H         1 <0>         0.1054
     32 H15        -6.4551    4.9708    4.0460 H         1 <0>         0.1042
     33 H16        -4.9025    4.4467    4.8921 H         1 <0>         0.1082
@<TRIPOS>BOND
     1    1    6 ar
     2    1    2 ar
     3    1   19 1
     4    2    3 ar
     5    2   20 1
     6    3    4 ar
     7    3   21 1
     8    4    9 1
     9    4    5 ar
    10    5    6 ar
    11    5    7 1
    12    6   22 1
    13    7    8 2
    14    7   11 1
    15    8    9 1
    16    8   23 1
    17    9   10 1
    18   11   12 1
    19   11   24 1
    20   11   25 1
    21   12   13 1
    22   12   26 1
    23   12   27 1
    24   13   14 am
    25   13   28 1
    26   14   15 2
    27   14   16 1
    28   16   18 1
    29   16   17 1
    30   16   29 1
    31   17   18 1
    32   17   30 1
    33   17   31 1
    34   18   32 1
    35   18   33 1
@<TRIPOS>MOLECULE
ZINC00495006
   29    30     0     0     0
SMALL
USER_CHARGES

@<TRIPOS>ATOM
      1 C1         -0.0165    1.3620    0.0095 C.ar      1 <0>        -0.1432
      2 C2          1.1697    2.0834    0.0021 C.ar      1 <0>        -0.0974
      3 C3          2.3856    1.4362   -0.0134 C.ar      1 <0>        -0.1293
      4 C4          2.4281    0.0456   -0.0212 C.ar      1 <0>         0.0946
      5 C5          1.2234   -0.6807   -0.0132 C.ar      1 <0>        -0.1006
      6 C6          0.0021   -0.0041    0.0020 C.ar      1 <0>        -0.0727
      7 C7          1.6036   -2.0953   -0.0245 C.2       1 <0>        -0.1773
      8 C8          2.9451   -2.1410   -0.0380 C.2       1 <0>         0.0654
      9 N1          3.4551   -0.8713   -0.0363 N.pl3     1 <0>        -0.5938
     10 H1          4.3995   -0.6501   -0.0442 H         1 <0>         0.4179
     11 C9          0.6664   -3.2754   -0.0210 C.3       1 <0>        -0.0526
     12 C10         0.2361   -3.5891   -1.4554 C.3       1 <0>         0.1198
     13 N2         -0.6750   -4.7364   -1.4520 N.am      1 <0>        -0.7012
     14 C11        -1.1856   -5.1948   -2.6120 C.2       1 <0>         0.4830
     15 O1         -0.8909   -4.6575   -3.6586 O.2       1 <0>        -0.4736
     16 C12        -2.1228   -6.3749   -2.6086 C.3       1 <0>         0.4509
     17 F1         -2.5163   -6.6617   -3.9201 F         1 <0>        -0.1518
     18 F2         -1.4710   -7.4864   -2.0636 F         1 <0>        -0.1671
     19 F3         -3.2511   -6.0722   -1.8389 F         1 <0>        -0.1667
     20 H2         -0.9613    1.8849    0.0259 H         1 <0>         0.1233
     21 H3          1.1388    3.1630    0.0081 H         1 <0>         0.1261
     22 H4          3.3028    2.0064   -0.0198 H         1 <0>         0.1204
     23 H5         -0.9246   -0.5587    0.0082 H         1 <0>         0.1208
     24 H6          3.5346   -3.0459   -0.0490 H         1 <0>         0.1716
     25 H7          1.1742   -4.1414    0.4036 H         1 <0>         0.0807
     26 H8         -0.2127   -3.0396    0.5787 H         1 <0>         0.0812
     27 H9         -0.2717   -2.7231   -1.8800 H         1 <0>         0.0807
     28 H10         1.1152   -3.8250   -2.0551 H         1 <0>         0.0794
     29 H11        -0.9107   -5.1661   -0.6150 H         1 <0>         0.4114
@<TRIPOS>BOND
     1    1    6 ar
     2    1    2 ar
     3    1   20 1
     4    2    3 ar
     5    2   21 1
     6    3    4 ar
     7    3   22 1
     8    4    9 1
     9    4    5 ar
    10    5    6 ar
    11    5    7 1
    12    6   23 1
    13    7    8 2
    14    7   11 1
    15    8    9 1
    16    8   24 1
    17    9   10 1
    18   11   12 1
    19   11   25 1
    20   11   26 1
    21   12   13 1
    22   12   27 1
    23   12   28 1
    24   13   14 am
    25   13   29 1
    26   14   15 2
    27   14   16 1
    28   16   17 1
    29   16   18 1
    30   16   19 1
@<TRIPOS>MOLECULE
ZINC13781225
   29    30     0     0     0
SMALL
USER_CHARGES
N-[2-(2-bromo-1H-indol-3-yl)ethyl]acetamide
@<TRIPOS>ATOM
      1 C1          7.7580    3.3521   -2.6649 C.3       1 <0>        -0.1751
      2 C2          6.2685    3.5807   -2.6493 C.2       1 <0>         0.5089
      3 O1          5.6590    3.6783   -3.6933 O.2       1 <0>        -0.5445
      4 N1          5.6137    3.6768   -1.4752 N.am      1 <0>        -0.7333
      5 C3          4.1657    3.8990   -1.4601 C.3       1 <0>         0.1239
      6 C4          3.6755    3.9688   -0.0124 C.3       1 <0>        -0.0624
      7 C5          2.1861    4.1974    0.0031 C.2       1 <0>        -0.1151
      8 C6          1.1462    3.1658    0.0077 C.ar      1 <0>        -0.1025
      9 C7          1.1645    1.7696    0.0004 C.ar      1 <0>        -0.0630
     10 C8         -0.0126    1.0758    0.0080 C.ar      1 <0>        -0.1425
     11 C9         -1.2272    1.7480    0.0174 C.ar      1 <0>        -0.0877
     12 C10        -1.2682    3.1250    0.0296 C.ar      1 <0>        -0.1295
     13 C11        -0.0820    3.8516    0.0226 C.ar      1 <0>         0.1125
     14 N2          0.2045    5.1989    0.0267 N.pl3     1 <0>        -0.5791
     15 H1         -0.4562    5.9091    0.0370 H         1 <0>         0.4212
     16 C12         1.5600    5.3862    0.0150 C.2       1 <0>         0.0702
     17 Br1         2.4238    7.0684    0.0160 Br        1 <0>         0.0144
     18 H2          7.9869    2.4145   -2.1582 H         1 <0>         0.0884
     19 H3          8.1072    3.3024   -3.6962 H         1 <0>         0.0925
     20 H4          8.2571    4.1739   -2.1514 H         1 <0>         0.0883
     21 H5          6.1011    3.5987   -0.6402 H         1 <0>         0.4017
     22 H6          3.6666    3.0772   -1.9735 H         1 <0>         0.0701
     23 H7          3.9367    4.8366   -1.9668 H         1 <0>         0.0693
     24 H8          4.1747    4.7906    0.5010 H         1 <0>         0.0833
     25 H9          3.9045    3.0312    0.4942 H         1 <0>         0.0850
     26 H10         2.1057    1.2401   -0.0107 H         1 <0>         0.1249
     27 H11         0.0021   -0.0041    0.0020 H         1 <0>         0.1267
     28 H12        -2.1493    1.1857    0.0191 H         1 <0>         0.1296
     29 H13        -2.2181    3.6386    0.0407 H         1 <0>         0.1241
@<TRIPOS>BOND
     1    1    2 1
     2    1   18 1
     3    1   19 1
     4    1   20 1
     5    2    3 2
     6    2    4 am
     7    4    5 1
     8    4   21 1
     9    5    6 1
    10    5   22 1
    11    5   23 1
    12    6    7 1
    13    6   24 1
    14    6   25 1
    15    7   16 2
    16    7    8 1
    17    8   13 ar
    18    8    9 ar
    19    9   10 ar
    20    9   26 1
    21   10   11 ar
    22   10   27 1
    23   11   12 ar
    24   11   28 1
    25   12   13 ar
    26   12   29 1
    27   13   14 1
    28   14   15 1
    29   14   16 1
    30   16   17 1
@<TRIPOS>MOLECULE
ZINC00057060
   33    34     0     0     0
SMALL
USER_CHARGES

@<TRIPOS>ATOM
      1 C1         -0.0184    1.5028    0.0103 C.3       1 <0>        -0.1753
      2 C2          0.0021   -0.0041    0.0020 C.2       1 <0>         0.5080
      3 O1          1.0605   -0.5961   -0.0113 O.2       1 <0>        -0.5457
      4 N1         -1.1558   -0.6938    0.0094 N.am      1 <0>        -0.7345
      5 C3         -1.1360   -2.1586    0.0013 C.3       1 <0>         0.1215
      6 C4         -2.5713   -2.6882    0.0122 C.3       1 <0>        -0.0516
      7 C5         -2.5509   -4.1950    0.0039 C.2       1 <0>        -0.1794
      8 C6         -2.6385   -4.9886   -1.0753 C.2       1 <0>         0.0724
      9 N2         -2.5847   -6.3015   -0.6946 N.pl3     1 <0>        -0.5943
     10 H1         -2.6290   -7.0593   -1.2986 H         1 <0>         0.4174
     11 C7         -2.4577   -6.3869    0.6759 C.ar      1 <0>         0.0645
     12 C8         -2.4252   -5.0710    1.1714 C.ar      1 <0>        -0.0603
     13 C9         -2.2964   -4.8447    2.5432 C.ar      1 <0>        -0.1120
     14 C10        -2.1981   -5.9187    3.4055 C.ar      1 <0>         0.1023
     15 C11        -2.2271   -7.2201    2.9116 C.ar      1 <0>        -0.1777
     16 C12        -2.3616   -7.4550    1.5612 C.ar      1 <0>        -0.0891
     17 O2         -2.0719   -5.7044    4.7424 O.3       1 <0>        -0.3189
     18 C13        -1.9750   -6.8594    5.5783 C.3       1 <0>         0.0281
     19 H2          1.0042    1.8801    0.0026 H         1 <0>         0.0921
     20 H3         -0.5455    1.8639   -0.8728 H         1 <0>         0.0879
     21 H4         -0.5286    1.8543    0.9071 H         1 <0>         0.0882
     22 H5         -2.0023   -0.2203    0.0200 H         1 <0>         0.4011
     23 H6         -0.6258   -2.5101   -0.8955 H         1 <0>         0.0668
     24 H7         -0.6088   -2.5197    0.8844 H         1 <0>         0.0689
     25 H8         -3.0815   -2.3367    0.9090 H         1 <0>         0.0774
     26 H9         -3.0985   -2.3271   -0.8709 H         1 <0>         0.0766
     27 H10        -2.7373   -4.6419   -2.0933 H         1 <0>         0.1719
     28 H11        -2.2733   -3.8356    2.9275 H         1 <0>         0.1295
     29 H12        -2.1492   -8.0532    3.5943 H         1 <0>         0.1322
     30 H13        -2.3815   -8.4686    1.1887 H         1 <0>         0.1243
     31 H14        -1.8789   -6.5481    6.6184 H         1 <0>         0.0994
     32 H15        -2.8719   -7.4679    5.4625 H         1 <0>         0.0541
     33 H16        -1.1004   -7.4432    5.2914 H         1 <0>         0.0542
@<TRIPOS>BOND
     1    1    2 1
     2    1   19 1
     3    1   20 1
     4    1   21 1
     5    2    3 2
     6    2    4 am
     7    4    5 1
     8    4   22 1
     9    5    6 1
    10    5   23 1
    11    5   24 1
    12    6    7 1
    13    6   25 1
    14    6   26 1
    15    7   12 1
    16    7    8 2
    17    8    9 1
    18    8   27 1
    19    9   10 1
    20    9   11 1
    21   11   16 ar
    22   11   12 ar
    23   12   13 ar
    24   13   14 ar
    25   13   28 1
    26   14   15 ar
    27   14   17 1
    28   15   16 ar
    29   15   29 1
    30   16   30 1
    31   17   18 1
    32   18   31 1
    33   18   32 1
    34   18   33 1
@<TRIPOS>MOLECULE
ZINC00057060
   33    34     0     0     0
SMALL
USER_CHARGES

@<TRIPOS>ATOM
      1 C1         -0.2014    1.4875    0.0186 C.3       1 <0>        -0.1912
      2 C2         -0.0853   -0.0150    0.0084 C.2       1 <0>         0.3417
      3 N1          0.1188   -0.6538    1.1107 N.2       1 <0>        -0.5604
      4 C3          0.1213    0.0676    2.3858 C.3       1 <0>         0.0638
      5 C4         -1.0457   -0.4172    3.2483 C.3       1 <0>        -0.0342
      6 C5         -1.0432    0.3249    4.5599 C.2       1 <0>        -0.1776
      7 C6         -0.4818   -0.0855    5.7082 C.2       1 <0>         0.0699
      8 N2         -0.6813    0.8505    6.6858 N.pl3     1 <0>        -0.5952
      9 H1         -0.3672    0.7767    7.6006 H         1 <0>         0.4169
     10 C7         -1.3952    1.9148    6.1765 C.ar      1 <0>         0.0648
     11 C8         -1.6473    1.6336    4.8216 C.ar      1 <0>        -0.0617
     12 C9         -2.3565    2.5473    4.0393 C.ar      1 <0>        -0.1129
     13 C10        -2.8036    3.7256    4.6034 C.ar      1 <0>         0.1011
     14 C11        -2.5496    4.0025    5.9440 C.ar      1 <0>        -0.1787
     15 C12        -1.8576    3.1052    6.7268 C.ar      1 <0>        -0.0888
     16 O1         -3.4945    4.6194    3.8464 O.3       1 <0>        -0.3197
     17 C13        -3.9280    5.8183    4.4921 C.3       1 <0>         0.0282
     18 O2         -0.1949   -0.6921   -1.1535 O.3       1 <0>        -0.4711
     19 H2          0.6882    1.9176    0.4787 H         1 <0>         0.0880
     20 H3         -0.2935    1.8518   -1.0046 H         1 <0>         0.0790
     21 H4         -1.0830    1.7799    0.5891 H         1 <0>         0.0902
     22 H5          1.0603   -0.1189    2.9070 H         1 <0>         0.0820
     23 H6          0.0155    1.1362    2.1988 H         1 <0>         0.0483
     24 H7         -1.9847   -0.2307    2.7272 H         1 <0>         0.0678
     25 H8         -0.9399   -1.4859    3.4353 H         1 <0>         0.0794
     26 H9          0.0484   -1.0170    5.8408 H         1 <0>         0.1728
     27 H10        -2.5539    2.3338    2.9992 H         1 <0>         0.1269
     28 H11        -2.9033    4.9272    6.3756 H         1 <0>         0.1318
     29 H12        -1.6649    3.3308    7.7653 H         1 <0>         0.1240
     30 H13        -4.5878    5.5657    5.3222 H         1 <0>         0.0542
     31 H14        -3.0616    6.3616    4.8691 H         1 <0>         0.0540
     32 H15        -4.4653    6.4419    3.7776 H         1 <0>         0.0992
     33 H16        -0.3468   -0.1285   -1.9244 H         1 <0>         0.4075
@<TRIPOS>BOND
     1    1    2 1
     2    1   19 1
     3    1   20 1
     4    1   21 1
     5    2    3 2
     6    2   18 1
     7    3    4 1
     8    4    5 1
     9    4   22 1
    10    4   23 1
    11    5    6 1
    12    5   24 1
    13    5   25 1
    14    6   11 1
    15    6    7 2
    16    7    8 1
    17    7   26 1
    18    8    9 1
    19    8   10 1
    20   10   15 ar
    21   10   11 ar
    22   11   12 ar
    23   12   13 ar
    24   12   27 1
    25   13   14 ar
    26   13   16 1
    27   14   15 ar
    28   14   28 1
    29   15   29 1
    30   16   17 1
    31   17   30 1
    32   17   31 1
    33   17   32 1
    34   18   33 1
@<TRIPOS>MOLECULE
ZINC01667359
   39    39     0     0     0
SMALL
USER_CHARGES
N-[2-(3,4-dimethoxyphenyl)ethyl]butanamide
@<TRIPOS>ATOM
      1 C1         -2.6845    5.6457    0.0455 C.3       1 <0>        -0.1540
      2 C2         -2.6637    4.1159    0.0371 C.3       1 <0>        -0.1106
      3 C3         -1.2145    3.6256    0.0275 C.3       1 <0>        -0.1409
      4 C4         -1.1940    2.1187    0.0192 C.2       1 <0>         0.5099
      5 O1         -2.2360    1.4981    0.0208 O.2       1 <0>        -0.5377
      6 N1         -0.0178    1.4608    0.0101 N.am      1 <0>        -0.7357
      7 C5          0.0021   -0.0041    0.0020 C.3       1 <0>         0.1229
      8 C6          1.4513   -0.4944   -0.0145 C.3       1 <0>        -0.0864
      9 C7          1.4717   -2.0012   -0.0227 C.ar      1 <0>        -0.0822
     10 C8          1.4982   -2.6972    1.1715 C.ar      1 <0>        -0.1086
     11 C9          1.5113   -4.0796    1.1693 C.ar      1 <0>        -0.1702
     12 C10         1.5093   -4.7705   -0.0318 C.ar      1 <0>         0.0997
     13 C11         1.4884   -4.0699   -1.2339 C.ar      1 <0>         0.1019
     14 C12         1.4696   -2.6844   -1.2246 C.ar      1 <0>        -0.1659
     15 O2          1.4859   -4.7435   -2.4153 O.3       1 <0>        -0.3059
     16 C13         1.4635   -3.9588   -3.6094 C.3       1 <0>         0.0255
     17 O3          1.5274   -6.1303   -0.0358 O.3       1 <0>        -0.3066
     18 C14         1.5483   -6.7826    1.2355 C.3       1 <0>         0.0255
     19 H1         -2.1798    6.0209   -0.8449 H         1 <0>         0.0546
     20 H2         -3.7170    5.9951    0.0523 H         1 <0>         0.0587
     21 H3         -2.1714    6.0112    0.9350 H         1 <0>         0.0547
     22 H4         -3.1768    3.7505   -0.8525 H         1 <0>         0.0691
     23 H5         -3.1683    3.7408    0.9274 H         1 <0>         0.0693
     24 H6         -0.7014    3.9910    0.9171 H         1 <0>         0.0937
     25 H7         -0.7098    4.0007   -0.8628 H         1 <0>         0.0934
     26 H8          0.8156    1.9572    0.0048 H         1 <0>         0.4012
     27 H9         -0.4983   -0.3791    0.8948 H         1 <0>         0.0702
     28 H10        -0.5153   -0.3696   -0.8850 H         1 <0>         0.0687
     29 H11         1.9516   -0.1193   -0.9073 H         1 <0>         0.0791
     30 H12         1.9686   -0.1289    0.8726 H         1 <0>         0.0816
     31 H13         1.5042   -2.1598    2.1083 H         1 <0>         0.1281
     32 H14         1.5275   -4.6210    2.1037 H         1 <0>         0.1369
     33 H15         1.4537   -2.1382   -2.1562 H         1 <0>         0.1356
     34 H16         1.4639   -4.6181   -4.4775 H         1 <0>         0.1018
     35 H17         0.5649   -3.3421   -3.6221 H         1 <0>         0.0553
     36 H18         2.3446   -3.3178   -3.6396 H         1 <0>         0.0550
     37 H19         2.4397   -6.4795    1.7847 H         1 <0>         0.0553
     38 H20         0.6600   -6.5031    1.8019 H         1 <0>         0.0556
     39 H21         1.5613   -7.8627    1.0895 H         1 <0>         0.1016
@<TRIPOS>BOND
     1    1    2 1
     2    1   19 1
     3    1   20 1
     4    1   21 1
     5    2    3 1
     6    2   22 1
     7    2   23 1
     8    3    4 1
     9    3   24 1
    10    3   25 1
    11    4    5 2
    12    4    6 am
    13    6    7 1
    14    6   26 1
    15    7    8 1
    16    7   27 1
    17    7   28 1
    18    8    9 1
    19    8   29 1
    20    8   30 1
    21    9   14 ar
    22    9   10 ar
    23   10   11 ar
    24   10   31 1
    25   11   12 ar
    26   11   32 1
    27   12   13 ar
    28   12   17 1
    29   13   14 ar
    30   13   15 1
    31   14   33 1
    32   15   16 1
    33   16   34 1
    34   16   35 1
    35   16   36 1
    36   17   18 1
    37   18   37 1
    38   18   38 1
    39   18   39 1
@<TRIPOS>MOLECULE
ZINC00133520
   33    33     0     0     0
SMALL
USER_CHARGES
N-[2-(3,4-dimethoxyphenyl)ethyl]acetamide
@<TRIPOS>ATOM
      1 C1         -1.2145    3.6256    0.0275 C.3       1 <0>        -0.1735
      2 C2         -1.1940    2.1187    0.0192 C.2       1 <0>         0.5086
      3 O1         -2.2360    1.4981    0.0208 O.2       1 <0>        -0.5450
      4 N1         -0.0178    1.4608    0.0101 N.am      1 <0>        -0.7344
      5 C3          0.0021   -0.0041    0.0020 C.3       1 <0>         0.1215
      6 C4          1.4513   -0.4944   -0.0145 C.3       1 <0>        -0.0863
      7 C5          1.4717   -2.0012   -0.0227 C.ar      1 <0>        -0.0824
      8 C6          1.4982   -2.6972    1.1715 C.ar      1 <0>        -0.1086
      9 C7          1.5113   -4.0796    1.1693 C.ar      1 <0>        -0.1702
     10 C8          1.5093   -4.7705   -0.0318 C.ar      1 <0>         0.0997
     11 C9          1.4884   -4.0699   -1.2339 C.ar      1 <0>         0.1018
     12 C10         1.4696   -2.6844   -1.2246 C.ar      1 <0>        -0.1660
     13 O2          1.4859   -4.7435   -2.4153 O.3       1 <0>        -0.3059
     14 C11         1.4635   -3.9588   -3.6094 C.3       1 <0>         0.0255
     15 O3          1.5274   -6.1303   -0.0358 O.3       1 <0>        -0.3066
     16 C12         1.5483   -6.7826    1.2355 C.3       1 <0>         0.0255
     17 H1         -1.2243    3.9944   -0.9981 H         1 <0>         0.0943
     18 H2         -2.1068    3.9740    0.5475 H         1 <0>         0.0941
     19 H3         -0.3271    3.9982    0.5392 H         1 <0>         0.0802
     20 H4          0.8156    1.9572    0.0048 H         1 <0>         0.4017
     21 H5         -0.4983   -0.3791    0.8948 H         1 <0>         0.0706
     22 H6         -0.5153   -0.3696   -0.8850 H         1 <0>         0.0689
     23 H7          1.9516   -0.1193   -0.9073 H         1 <0>         0.0792
     24 H8          1.9686   -0.1289    0.8726 H         1 <0>         0.0818
     25 H9          1.5042   -2.1598    2.1083 H         1 <0>         0.1282
     26 H10         1.5275   -4.6210    2.1037 H         1 <0>         0.1369
     27 H11         1.4537   -2.1382   -2.1562 H         1 <0>         0.1357
     28 H12         0.5649   -3.3421   -3.6221 H         1 <0>         0.0553
     29 H13         2.3446   -3.3178   -3.6396 H         1 <0>         0.0550
     30 H14         1.4639   -4.6181   -4.4775 H         1 <0>         0.1018
     31 H15         2.4397   -6.4795    1.7847 H         1 <0>         0.0553
     32 H16         0.6600   -6.5031    1.8019 H         1 <0>         0.0556
     33 H17         1.5613   -7.8627    1.0895 H         1 <0>         0.1016
@<TRIPOS>BOND
     1    1    2 1
     2    1   17 1
     3    1   18 1
     4    1   19 1
     5    2    3 2
     6    2    4 am
     7    4    5 1
     8    4   20 1
     9    5    6 1
    10    5   21 1
    11    5   22 1
    12    6    7 1
    13    6   23 1
    14    6   24 1
    15    7   12 ar
    16    7    8 ar
    17    8    9 ar
    18    8   25 1
    19    9   10 ar
    20    9   26 1
    21   10   11 ar
    22   10   15 1
    23   11   12 ar
    24   11   13 1
    25   12   27 1
    26   13   14 1
    27   14   28 1
    28   14   29 1
    29   14   30 1
    30   15   16 1
    31   16   31 1
    32   16   32 1
    33   16   33 1
@<TRIPOS>MOLECULE
ZINC13755738
   32    32     0     0     0
SMALL
USER_CHARGES
N-[2-(2-methoxyphenyl)ethyl]propanamide
@<TRIPOS>ATOM
      1 C1         -2.6637    4.1159    0.0371 C.3       1 <0>        -0.1386
      2 C2         -1.2145    3.6256    0.0275 C.3       1 <0>        -0.1443
      3 C3         -1.1940    2.1187    0.0192 C.2       1 <0>         0.5089
      4 O1         -2.2360    1.4981    0.0208 O.2       1 <0>        -0.5395
      5 N1         -0.0178    1.4608    0.0101 N.am      1 <0>        -0.7339
      6 C4          0.0021   -0.0041    0.0020 C.3       1 <0>         0.1256
      7 C5          1.4513   -0.4944   -0.0145 C.3       1 <0>        -0.0806
      8 C6          1.4717   -2.0012   -0.0227 C.ar      1 <0>        -0.1171
      9 C7          1.6025   -2.6974    1.1635 C.ar      1 <0>        -0.0756
     10 C8          1.6165   -4.0798    1.1570 C.ar      1 <0>        -0.1551
     11 C9          1.5103   -4.7691   -0.0371 C.ar      1 <0>        -0.0797
     12 C10         1.3847   -4.0777   -1.2262 C.ar      1 <0>        -0.2072
     13 C11         1.3651   -2.6903   -1.2219 C.ar      1 <0>         0.1326
     14 O2          1.2420   -2.0077   -2.3905 O.3       1 <0>        -0.3140
     15 C12         1.1369   -2.7826   -3.5865 C.3       1 <0>         0.0262
     16 H1         -3.1768    3.7505   -0.8525 H         1 <0>         0.0614
     17 H2         -3.1683    3.7408    0.9274 H         1 <0>         0.0615
     18 H3         -2.6785    5.2058    0.0430 H         1 <0>         0.0619
     19 H4         -0.7014    3.9910    0.9171 H         1 <0>         0.0931
     20 H5         -0.7098    4.0007   -0.8628 H         1 <0>         0.0930
     21 H6          0.8156    1.9572    0.0048 H         1 <0>         0.4008
     22 H7         -0.4983   -0.3791    0.8948 H         1 <0>         0.0668
     23 H8         -0.5153   -0.3696   -0.8850 H         1 <0>         0.0698
     24 H9          1.9516   -0.1193   -0.9073 H         1 <0>         0.0825
     25 H10         1.9686   -0.1289    0.8726 H         1 <0>         0.0780
     26 H11         1.6897   -2.1613    2.0970 H         1 <0>         0.1299
     27 H12         1.7146   -4.6223    2.0857 H         1 <0>         0.1256
     28 H13         1.5260   -5.8490   -0.0400 H         1 <0>         0.1256
     29 H14         1.3022   -4.6164   -2.1586 H         1 <0>         0.1289
     30 H15         0.2573   -3.4238   -3.5278 H         1 <0>         0.0564
     31 H16         1.0442   -2.1164   -4.4442 H         1 <0>         0.1011
     32 H17         2.0288   -3.3988   -3.6998 H         1 <0>         0.0560
@<TRIPOS>BOND
     1    1    2 1
     2    1   16 1
     3    1   17 1
     4    1   18 1
     5    2    3 1
     6    2   19 1
     7    2   20 1
     8    3    4 2
     9    3    5 am
    10    5    6 1
    11    5   21 1
    12    6    7 1
    13    6   22 1
    14    6   23 1
    15    7    8 1
    16    7   24 1
    17    7   25 1
    18    8   13 ar
    19    8    9 ar
    20    9   10 ar
    21    9   26 1
    22   10   11 ar
    23   10   27 1
    24   11   12 ar
    25   11   28 1
    26   12   13 ar
    27   12   29 1
    28   13   14 1
    29   14   15 1
    30   15   30 1
    31   15   31 1
    32   15   32 1
@<TRIPOS>MOLECULE
ZINC13755751
   35    35     0     0     0
SMALL
USER_CHARGES
N-[3-(4-methoxyphenyl)propyl]propanamide
@<TRIPOS>ATOM
      1 C1          1.2502   -8.0497   -4.5417 C.3       1 <0>        -0.1388
      2 C2          1.2324   -6.5198   -4.5338 C.3       1 <0>        -0.1448
      3 C3          1.2404   -6.0247   -3.1105 C.2       1 <0>         0.5089
      4 O1          1.2586   -6.8174   -2.1928 O.2       1 <0>        -0.5392
      5 N1          1.2274   -4.7010   -2.8574 N.am      1 <0>        -0.7351
      6 C4          1.2352   -4.2196   -1.4738 C.3       1 <0>         0.1163
      7 C5          1.2174   -2.6898   -1.4659 C.3       1 <0>        -0.1256
      8 C6          1.2256   -2.1871   -0.0209 C.3       1 <0>        -0.0727
      9 C7          1.2080   -0.6802   -0.0131 C.ar      1 <0>        -0.1212
     10 C8          0.0021   -0.0041    0.0020 C.ar      1 <0>        -0.0760
     11 C9         -0.0167    1.3772    0.0096 C.ar      1 <0>        -0.1497
     12 C10         1.1759    2.0860    0.0020 C.ar      1 <0>         0.1237
     13 C11         2.3846    1.4052   -0.0127 C.ar      1 <0>        -0.2062
     14 C12         2.3980    0.0239   -0.0207 C.ar      1 <0>        -0.0758
     15 O2          1.1601    3.4449    0.0090 O.3       1 <0>        -0.3184
     16 C13         2.4257    4.1084    0.0005 C.3       1 <0>         0.0267
     17 H1          2.1493   -8.4052   -4.0384 H         1 <0>         0.0616
     18 H2          0.3696   -8.4260   -4.0212 H         1 <0>         0.0617
     19 H3          1.2444   -8.4079   -5.5712 H         1 <0>         0.0621
     20 H4          0.3333   -6.1643   -5.0372 H         1 <0>         0.0932
     21 H5          2.1131   -6.1436   -5.0544 H         1 <0>         0.0930
     22 H6          1.2129   -4.0670   -3.5914 H         1 <0>         0.4011
     23 H7          2.1343   -4.5752   -0.9705 H         1 <0>         0.0679
     24 H8          0.3546   -4.5959   -0.9533 H         1 <0>         0.0683
     25 H9          0.3183   -2.3343   -1.9692 H         1 <0>         0.0714
     26 H10         2.0981   -2.3135   -1.9865 H         1 <0>         0.0706
     27 H11         2.1247   -2.5426    0.4824 H         1 <0>         0.0753
     28 H12         0.3449   -2.5634    0.4997 H         1 <0>         0.0762
     29 H13        -0.9260   -0.5563    0.0083 H         1 <0>         0.1293
     30 H14        -0.9589    1.9049    0.0169 H         1 <0>         0.1309
     31 H15         3.3144    1.9547   -0.0186 H         1 <0>         0.1279
     32 H16         3.3387   -0.5065   -0.0325 H         1 <0>         0.1245
     33 H17         2.9777    3.8266   -0.8961 H         1 <0>         0.0557
     34 H18         2.2703    5.1873    0.0074 H         1 <0>         0.1012
     35 H19         2.9944    3.8176    0.8838 H         1 <0>         0.0559
@<TRIPOS>BOND
     1    1    2 1
     2    1   17 1
     3    1   18 1
     4    1   19 1
     5    2    3 1
     6    2   20 1
     7    2   21 1
     8    3    4 2
     9    3    5 am
    10    5    6 1
    11    5   22 1
    12    6    7 1
    13    6   23 1
    14    6   24 1
    15    7    8 1
    16    7   25 1
    17    7   26 1
    18    8    9 1
    19    8   27 1
    20    8   28 1
    21    9   14 ar
    22    9   10 ar
    23   10   11 ar
    24   10   29 1
    25   11   12 ar
    26   11   30 1
    27   12   13 ar
    28   12   15 1
    29   13   14 ar
    30   13   31 1
    31   14   32 1
    32   15   16 1
    33   16   33 1
    34   16   34 1
    35   16   35 1
@<TRIPOS>MOLECULE
ZINC00405213
   29    29     0     0     0
SMALL
USER_CHARGES
N-[2-morpholino-2-(2-thienyl)ethyl]acetamide
@<TRIPOS>ATOM
      1 C1         -1.2145    3.6256    0.0275 C.3       1 <0>        -0.1732
      2 C2         -1.1940    2.1187    0.0192 C.2       1 <0>         0.5084
      3 O1         -2.2360    1.4981    0.0208 O.2       1 <0>        -0.5467
      4 N1         -0.0178    1.4608    0.0101 N.am      1 <0>        -0.7325
      5 C3          0.0021   -0.0041    0.0020 C.3       1 <0>         0.1245
      6 C4          1.4513   -0.4944   -0.0145 C.3       1 <0>        -0.0805
      7 C5          1.4717   -2.0012   -0.0227 C.ar      1 <0>        -0.1172
      8 C6          1.6025   -2.6974    1.1635 C.ar      1 <0>        -0.0756
      9 C7          1.6165   -4.0798    1.1570 C.ar      1 <0>        -0.1551
     10 C8          1.5103   -4.7691   -0.0371 C.ar      1 <0>        -0.0797
     11 C9          1.3847   -4.0777   -1.2262 C.ar      1 <0>        -0.2072
     12 C10         1.3651   -2.6903   -1.2219 C.ar      1 <0>         0.1325
     13 O2          1.2420   -2.0077   -2.3905 O.3       1 <0>        -0.3140
     14 C11         1.1369   -2.7826   -3.5865 C.3       1 <0>         0.0262
     15 H1         -1.2243    3.9944   -0.9981 H         1 <0>         0.0939
     16 H2         -2.1068    3.9740    0.5475 H         1 <0>         0.0935
     17 H3         -0.3271    3.9982    0.5392 H         1 <0>         0.0799
     18 H4          0.8156    1.9572    0.0048 H         1 <0>         0.4012
     19 H5         -0.4983   -0.3791    0.8948 H         1 <0>         0.0672
     20 H6         -0.5153   -0.3696   -0.8850 H         1 <0>         0.0699
     21 H7          1.9516   -0.1193   -0.9073 H         1 <0>         0.0826
     22 H8          1.9686   -0.1289    0.8726 H         1 <0>         0.0781
     23 H9          1.6897   -2.1613    2.0970 H         1 <0>         0.1300
     24 H10         1.7146   -4.6223    2.0857 H         1 <0>         0.1256
     25 H11         1.5260   -5.8490   -0.0400 H         1 <0>         0.1256
     26 H12         1.3022   -4.6164   -2.1586 H         1 <0>         0.1289
     27 H13         1.0442   -2.1164   -4.4442 H         1 <0>         0.1011
     28 H14         2.0288   -3.3988   -3.6998 H         1 <0>         0.0561
     29 H15         0.2573   -3.4238   -3.5278 H         1 <0>         0.0564
@<TRIPOS>BOND
     1    1    2 1
     2    1   15 1
     3    1   16 1
     4    1   17 1
     5    2    3 2
     6    2    4 am
     7    4    5 1
     8    4   18 1
     9    5    6 1
    10    5   19 1
    11    5   20 1
    12    6    7 1
    13    6   21 1
    14    6   22 1
    15    7   12 ar
    16    7    8 ar
    17    8    9 ar
    18    8   23 1
    19    9   10 ar
    20    9   24 1
    21   10   11 ar
    22   10   25 1
    23   11   12 ar
    24   11   26 1
    25   12   13 1
    26   13   14 1
    27   14   27 1
    28   14   28 1
    29   14   29 1
@<TRIPOS>MOLECULE
ZINC13741582
   33    34     0     0     0
SMALL
USER_CHARGES
N-[(2R)-8-methoxytetralin-2-yl]acetamide
@<TRIPOS>ATOM
      1 C1         -2.0404    5.5210    7.2550 C.3       1 <0>        -0.1723
      2 C2         -2.7784    4.8537    6.1232 C.2       1 <0>         0.5110
      3 O1         -3.8610    5.2741    5.7739 O.2       1 <0>        -0.5454
      4 N1         -2.2353    3.7897    5.4992 N.am      1 <0>        -0.7274
      5 C3         -2.9527    3.1410    4.3989 C.3       1 <0>         0.1432
      6 H1         -3.5055    3.8881    3.8294 H         1 <0>         0.0928
      7 C4         -3.9245    2.0967    4.9607 C.3       1 <0>        -0.1286
      8 C5         -4.8240    1.6195    3.8181 C.3       1 <0>        -0.0788
      9 C6         -3.9934    1.1935    2.6359 C.ar      1 <0>        -0.0387
     10 C7         -4.5965    0.3863    1.6790 C.ar      1 <0>        -0.1565
     11 C8         -3.8957   -0.0282    0.5653 C.ar      1 <0>        -0.0785
     12 C9         -2.5808    0.3612    0.3962 C.ar      1 <0>        -0.2130
     13 C10        -1.9749    1.1630    1.3482 C.ar      1 <0>         0.1297
     14 C11        -2.6811    1.5747    2.4774 C.ar      1 <0>        -0.1058
     15 C12        -1.9574    2.4298    3.4843 C.3       1 <0>        -0.0737
     16 O2         -0.6816    1.5467    1.1837 O.3       1 <0>        -0.3157
     17 C13        -0.0127    1.0858    0.0080 C.3       1 <0>         0.0267
     18 H2         -1.0937    5.0079    7.4241 H         1 <0>         0.0756
     19 H3         -1.8482    6.5630    6.9992 H         1 <0>         0.0952
     20 H4         -2.6454    5.4749    8.1605 H         1 <0>         0.0952
     21 H5         -1.3693    3.4535    5.7785 H         1 <0>         0.4010
     22 H6         -3.3639    1.2566    5.3707 H         1 <0>         0.0693
     23 H7         -4.5353    2.5471    5.7432 H         1 <0>         0.0741
     24 H8         -5.4944    2.4238    3.5152 H         1 <0>         0.0847
     25 H9         -5.4147    0.7722    4.1663 H         1 <0>         0.0818
     26 H10        -5.6240    0.0801    1.8086 H         1 <0>         0.1244
     27 H11        -4.3737   -0.6553   -0.1727 H         1 <0>         0.1258
     28 H12        -2.0281    0.0412   -0.4747 H         1 <0>         0.1286
     29 H13        -1.3026    1.7999    4.0864 H         1 <0>         0.0794
     30 H14        -1.3576    3.1734    2.9594 H         1 <0>         0.0830
     31 H15         0.0021   -0.0041    0.0020 H         1 <0>         0.0560
     32 H16         1.0099    1.4631    0.0003 H         1 <0>         0.1010
     33 H17        -0.5399    1.4469   -0.8751 H         1 <0>         0.0560
@<TRIPOS>BOND
     1    1    2 1
     2    1   18 1
     3    1   19 1
     4    1   20 1
     5    2    3 2
     6    2    4 am
     7    4    5 1
     8    4   21 1
     9    5    6 1
    10    5   15 1
    11    5    7 1
    12    7    8 1
    13    7   22 1
    14    7   23 1
    15    8    9 1
    16    8   24 1
    17    8   25 1
    18    9   14 ar
    19    9   10 ar
    20   10   11 ar
    21   10   26 1
    22   11   12 ar
    23   11   27 1
    24   12   13 ar
    25   12   28 1
    26   13   14 ar
    27   13   16 1
    28   14   15 1
    29   15   29 1
    30   15   30 1
    31   16   17 1
    32   17   31 1
    33   17   32 1
    34   17   33 1
@<TRIPOS>MOLECULE
ZINC13741583
   33    34     0     0     0
SMALL
USER_CHARGES
N-[(2S)-8-methoxytetralin-2-yl]acetamide
@<TRIPOS>ATOM
      1 C1         -5.2404    5.4840    5.4664 C.3       1 <0>        -0.1758
      2 C2         -3.8808    4.8362    5.5195 C.2       1 <0>         0.5108
      3 O1         -3.0355    5.2618    6.2780 O.2       1 <0>        -0.5440
      4 N1         -3.6041    3.7840    4.7240 N.am      1 <0>        -0.7288
      5 C3         -2.2824    3.1543    4.7756 C.3       1 <0>         0.1445
      6 H1         -1.5205    3.9139    4.9507 H         1 <0>         0.0920
      7 C4         -2.2478    2.1182    5.9054 C.3       1 <0>        -0.1288
      8 C5         -0.8040    1.6559    6.0908 C.3       1 <0>        -0.0788
      9 C6         -0.2099    1.2332    4.7727 C.ar      1 <0>        -0.0386
     10 C7          0.9340    0.4447    4.8022 C.ar      1 <0>        -0.1565
     11 C8          1.5327    0.0293    3.6308 C.ar      1 <0>        -0.0784
     12 C9          0.9887    0.3939    2.4141 C.ar      1 <0>        -0.2130
     13 C10        -0.1488    1.1821    2.3796 C.ar      1 <0>         0.1297
     14 C11        -0.7545    1.5996    3.5637 C.ar      1 <0>        -0.1058
     15 C12        -2.0010    2.4383    3.4563 C.3       1 <0>        -0.0737
     16 O2         -0.6816    1.5467    1.1837 O.3       1 <0>        -0.3157
     17 C13        -0.0127    1.0858    0.0080 C.3       1 <0>         0.0267
     18 H2         -6.0031    4.7499    5.7261 H         1 <0>         0.0883
     19 H3         -5.2765    6.3116    6.1748 H         1 <0>         0.0927
     20 H4         -5.4251    5.8592    4.4597 H         1 <0>         0.0883
     21 H5         -4.2802    3.4437    4.1174 H         1 <0>         0.4012
     22 H6         -2.8750    1.2666    5.6418 H         1 <0>         0.0685
     23 H7         -2.6102    2.5698    6.8289 H         1 <0>         0.0745
     24 H8         -0.7824    0.8131    6.7817 H         1 <0>         0.0826
     25 H9         -0.2153    2.4748    6.5043 H         1 <0>         0.0838
     26 H10         1.3588    0.1545    5.7518 H         1 <0>         0.1244
     27 H11         2.4215   -0.5832    3.6647 H         1 <0>         0.1259
     28 H12         1.4517    0.0692    1.4939 H         1 <0>         0.1286
     29 H13        -1.8694    3.1782    2.6668 H         1 <0>         0.0831
     30 H14        -2.8461    1.7959    3.2087 H         1 <0>         0.0794
     31 H15         0.0021   -0.0041    0.0020 H         1 <0>         0.0560
     32 H16         1.0099    1.4631    0.0003 H         1 <0>         0.0560
     33 H17        -0.5399    1.4469   -0.8751 H         1 <0>         0.1010
@<TRIPOS>BOND
     1    1    2 1
     2    1   18 1
     3    1   19 1
     4    1   20 1
     5    2    3 2
     6    2    4 am
     7    4    5 1
     8    4   21 1
     9    5    6 1
    10    5   15 1
    11    5    7 1
    12    7    8 1
    13    7   22 1
    14    7   23 1
    15    8    9 1
    16    8   24 1
    17    8   25 1
    18    9   14 ar
    19    9   10 ar
    20   10   11 ar
    21   10   26 1
    22   11   12 ar
    23   11   27 1
    24   12   13 ar
    25   12   28 1
    26   13   14 ar
    27   13   16 1
    28   14   15 1
    29   15   29 1
    30   15   30 1
    31   16   17 1
    32   17   31 1
    33   17   32 1
    34   17   33 1
@<TRIPOS>MOLECULE
ZINC00391614
   36    36     0     0     0
SMALL
USER_CHARGES
N-[2-(3,4-dimethoxyphenyl)ethyl]propanamide
@<TRIPOS>ATOM
      1 C1         -2.6637    4.1159    0.0371 C.3       1 <0>        -0.1390
      2 C2         -1.2145    3.6256    0.0275 C.3       1 <0>        -0.1443
      3 C3         -1.1940    2.1187    0.0192 C.2       1 <0>         0.5090
      4 O1         -2.2360    1.4981    0.0208 O.2       1 <0>        -0.5378
      5 N1         -0.0178    1.4608    0.0101 N.am      1 <0>        -0.7358
      6 C4          0.0021   -0.0041    0.0020 C.3       1 <0>         0.1227
      7 C5          1.4513   -0.4944   -0.0145 C.3       1 <0>        -0.0864
      8 C6          1.4717   -2.0012   -0.0227 C.ar      1 <0>        -0.0822
      9 C7          1.4982   -2.6972    1.1715 C.ar      1 <0>        -0.1086
     10 C8          1.5113   -4.0796    1.1693 C.ar      1 <0>        -0.1702
     11 C9          1.5093   -4.7705   -0.0318 C.ar      1 <0>         0.0997
     12 C10         1.4884   -4.0699   -1.2339 C.ar      1 <0>         0.1019
     13 C11         1.4696   -2.6844   -1.2246 C.ar      1 <0>        -0.1659
     14 O2          1.4859   -4.7435   -2.4153 O.3       1 <0>        -0.3059
     15 C12         1.4635   -3.9588   -3.6094 C.3       1 <0>         0.0255
     16 O3          1.5274   -6.1303   -0.0358 O.3       1 <0>        -0.3066
     17 C13         1.5483   -6.7826    1.2355 C.3       1 <0>         0.0255
     18 H1         -2.6785    5.2058    0.0430 H         1 <0>         0.0623
     19 H2         -3.1768    3.7505   -0.8525 H         1 <0>         0.0616
     20 H3         -3.1683    3.7408    0.9274 H         1 <0>         0.0617
     21 H4         -0.7014    3.9910    0.9171 H         1 <0>         0.0934
     22 H5         -0.7098    4.0007   -0.8628 H         1 <0>         0.0932
     23 H6          0.8156    1.9572    0.0048 H         1 <0>         0.4012
     24 H7         -0.4983   -0.3791    0.8948 H         1 <0>         0.0702
     25 H8         -0.5153   -0.3696   -0.8850 H         1 <0>         0.0687
     26 H9          1.9516   -0.1193   -0.9073 H         1 <0>         0.0792
     27 H10         1.9686   -0.1289    0.8726 H         1 <0>         0.0816
     28 H11         1.5042   -2.1598    2.1083 H         1 <0>         0.1281
     29 H12         1.5275   -4.6210    2.1037 H         1 <0>         0.1369
     30 H13         1.4537   -2.1382   -2.1562 H         1 <0>         0.1356
     31 H14         1.4639   -4.6181   -4.4775 H         1 <0>         0.1018
     32 H15         0.5649   -3.3421   -3.6221 H         1 <0>         0.0553
     33 H16         2.3446   -3.3178   -3.6396 H         1 <0>         0.0550
     34 H17         0.6600   -6.5031    1.8019 H         1 <0>         0.0556
     35 H18         1.5613   -7.8627    1.0895 H         1 <0>         0.1017
     36 H19         2.4397   -6.4795    1.7847 H         1 <0>         0.0553
@<TRIPOS>BOND
     1    1    2 1
     2    1   18 1
     3    1   19 1
     4    1   20 1
     5    2    3 1
     6    2   21 1
     7    2   22 1
     8    3    4 2
     9    3    5 am
    10    5    6 1
    11    5   23 1
    12    6    7 1
    13    6   24 1
    14    6   25 1
    15    7    8 1
    16    7   26 1
    17    7   27 1
    18    8   13 ar
    19    8    9 ar
    20    9   10 ar
    21    9   28 1
    22   10   11 ar
    23   10   29 1
    24   11   12 ar
    25   11   16 1
    26   12   13 ar
    27   12   14 1
    28   13   30 1
    29   14   15 1
    30   15   31 1
    31   15   32 1
    32   15   33 1
    33   16   17 1
    34   17   34 1
    35   17   35 1
    36   17   36 1
@<TRIPOS>MOLECULE
ZINC00404234
   25    25     0     0     0
SMALL
USER_CHARGES
2-(5-bromo-2-methoxy-phenyl)ethanamine
@<TRIPOS>ATOM
      1 C1          2.3123   -0.3037   -0.0227 C.3       1 <0>         0.0210
      2 O1          2.3661    1.1243   -0.0150 O.3       1 <0>        -0.3189
      3 C2          1.1792    1.7863    0.0004 C.ar      1 <0>         0.1526
      4 C3         -0.0126    1.0758    0.0080 C.ar      1 <0>        -0.1969
      5 C4         -1.2177    1.7506    0.0173 C.ar      1 <0>        -0.0342
      6 C5         -1.2370    3.1340    0.0303 C.ar      1 <0>        -0.1274
      7 C6         -0.0500    3.8443    0.0233 C.ar      1 <0>        -0.0422
      8 C7          1.1576    3.1732    0.0081 C.ar      1 <0>        -0.1375
      9 C8          2.4504    3.9475    0.0004 C.3       1 <0>        -0.0928
     10 C9          2.9394    4.1094   -1.4403 C.3       1 <0>        -0.0017
     11 Br1        -2.8883    4.0552    0.0499 Br        1 <0>        -0.0298
     12 H1          1.7939   -0.6526    0.8704 H         1 <0>         0.0647
     13 H2          1.7765   -0.6424   -0.9094 H         1 <0>         0.0635
     14 H3          3.3256   -0.7054   -0.0348 H         1 <0>         0.1091
     15 H4          0.0021   -0.0041    0.0020 H         1 <0>         0.1446
     16 H5         -2.1456    1.1979    0.0187 H         1 <0>         0.1436
     17 H6         -0.0673    4.9241    0.0293 H         1 <0>         0.1428
     18 H7          2.2877    4.9308    0.4416 H         1 <0>         0.0971
     19 H8          3.2000    3.4087    0.5801 H         1 <0>         0.1015
     20 H9          3.1021    3.1260   -1.8814 H         1 <0>         0.1363
     21 H10         2.1898    4.6481   -2.0200 H         1 <0>         0.1327
     22 H11         4.8916    4.4183   -0.8643 H         1 <0>         0.4379
     23 H12         4.5434    4.9846   -2.3887 H         1 <0>         0.4409
     24 N1          4.1916    4.8860   -1.4378 N.4       1 <0>        -0.6462
     25 H13         4.0094    5.8190   -1.0496 H         1 <0>         0.4394
@<TRIPOS>BOND
     1    1    2 1
     2    1   12 1
     3    1   13 1
     4    1   14 1
     5    2    3 1
     6    3    8 ar
     7    3    4 ar
     8    4    5 ar
     9    4   15 1
    10    5    6 ar
    11    5   16 1
    12    6    7 ar
    13    6   11 1
    14    7    8 ar
    15    7   17 1
    16    8    9 1
    17    9   10 1
    18    9   18 1
    19    9   19 1
    20   10   20 1
    21   10   21 1
    22   10   24 1
    23   22   24 1
    24   23   24 1
    25   24   25 1
@<TRIPOS>MOLECULE
ZINC13741563
   33    33     0     0     0
SMALL
USER_CHARGES
N-[2-(2,5-dimethoxyphenyl)ethyl]acetamide
@<TRIPOS>ATOM
      1 C1          6.1161    5.8870   -2.6293 C.3       1 <0>        -0.1714
      2 C2          4.8214    5.1158   -2.6200 C.2       1 <0>         0.5087
      3 O1          4.3369    4.7317   -3.6634 O.2       1 <0>        -0.5472
      4 N1          4.2019    4.8529   -1.4523 N.am      1 <0>        -0.7315
      5 C3          2.9433    4.1032   -1.4433 C.3       1 <0>         0.1240
      6 C4          2.4551    3.9435   -0.0021 C.3       1 <0>        -0.0809
      7 C5          1.1604    3.1723    0.0071 C.ar      1 <0>        -0.0758
      8 C6         -0.0453    3.8467    0.0217 C.ar      1 <0>        -0.1073
      9 C7         -1.2367    3.1371    0.0298 C.ar      1 <0>         0.0949
     10 C8         -1.2179    1.7500    0.0173 C.ar      1 <0>        -0.1681
     11 C9         -0.0126    1.0758    0.0080 C.ar      1 <0>        -0.1658
     12 C10         1.1792    1.7857    0.0004 C.ar      1 <0>         0.0981
     13 O2          2.3659    1.1219   -0.0140 O.3       1 <0>        -0.3133
     14 C11         2.3105   -0.3060   -0.0207 C.3       1 <0>         0.0267
     15 O3         -2.4234    3.8009    0.0442 O.3       1 <0>        -0.3170
     16 C12        -3.6111    3.0063    0.0518 C.3       1 <0>         0.0271
     17 H1          6.3926    6.1451   -1.6070 H         1 <0>         0.0757
     18 H2          6.9005    5.2748   -3.0742 H         1 <0>         0.0950
     19 H3          5.9917    6.7989   -3.2132 H         1 <0>         0.0950
     20 H4          4.5894    5.1601   -0.6178 H         1 <0>         0.4013
     21 H5          3.1034    3.1191   -1.8839 H         1 <0>         0.0714
     22 H6          2.1946    4.6433   -2.0229 H         1 <0>         0.0683
     23 H7          2.2950    4.9276    0.4384 H         1 <0>         0.0808
     24 H8          3.2038    3.4034    0.5774 H         1 <0>         0.0863
     25 H9         -0.0599    4.9266    0.0266 H         1 <0>         0.1392
     26 H10        -2.1458    1.1974    0.0187 H         1 <0>         0.1317
     27 H11         0.0021   -0.0041    0.0020 H         1 <0>         0.1325
     28 H12         1.7747   -0.6447   -0.9074 H         1 <0>         0.0551
     29 H13         3.3232   -0.7089   -0.0322 H         1 <0>         0.1008
     30 H14         1.7913   -0.6537    0.8724 H         1 <0>         0.0547
     31 H15        -3.6359    2.3815   -0.8409 H         1 <0>         0.0550
     32 H16        -3.6189    2.3730    0.9389 H         1 <0>         0.0548
     33 H17        -4.4844    3.6585    0.0633 H         1 <0>         0.1012
@<TRIPOS>BOND
     1    1    2 1
     2    1   17 1
     3    1   18 1
     4    1   19 1
     5    2    3 2
     6    2    4 am
     7    4    5 1
     8    4   20 1
     9    5    6 1
    10    5   21 1
    11    5   22 1
    12    6    7 1
    13    6   23 1
    14    6   24 1
    15    7   12 ar
    16    7    8 ar
    17    8    9 ar
    18    8   25 1
    19    9   10 ar
    20    9   15 1
    21   10   11 ar
    22   10   26 1
    23   11   12 ar
    24   11   27 1
    25   12   13 1
    26   13   14 1
    27   14   28 1
    28   14   29 1
    29   14   30 1
    30   15   16 1
    31   16   31 1
    32   16   32 1
    33   16   33 1
@<TRIPOS>MOLECULE
ZINC03792122
   29    30     0     0     0
SMALL
USER_CHARGES
2-chloro-N-tetralin-2-yl-acetamide
@<TRIPOS>ATOM
      1 C1         -1.5338    5.1274   -2.2638 C.ar      1 <0>        -0.1205
      2 C2         -1.4430    5.8166   -1.0686 C.ar      1 <0>        -0.1198
      3 C3         -1.1255    5.1391    0.0902 C.ar      1 <0>        -0.1176
      4 C4         -0.8949    3.7695    0.0666 C.ar      1 <0>        -0.0727
      5 C5         -0.9899    3.0825   -1.1226 C.ar      1 <0>        -0.0814
      6 C6         -1.3087    3.7668   -2.2887 C.ar      1 <0>        -0.1188
      7 C7         -0.7617    1.5969   -1.2211 C.3       1 <0>        -0.0771
      8 C8         -0.0127    1.0858    0.0080 C.3       1 <0>        -0.1264
      9 C9         -0.7408    1.5855    1.2614 C.3       1 <0>         0.1472
     10 H1         -1.8047    1.3625    1.1814 H         1 <0>         0.0954
     11 C10        -0.5390    3.0957    1.3660 C.3       1 <0>        -0.0913
     12 N1         -0.1865    0.9297    2.4484 N.am      1 <0>        -0.7248
     13 C11        -0.9382    0.7999    3.5595 C.2       1 <0>         0.5032
     14 O1         -2.0736    1.2260    3.5767 O.2       1 <0>        -0.5106
     15 C12        -0.3680    0.1253    4.7805 C.3       1 <0>        -0.0676
     16 Cl1        -1.6068    0.1066    6.0904 Cl        1 <0>        -0.1277
     17 H2         -1.7806    5.6525   -3.1747 H         1 <0>         0.1226
     18 H3         -1.6204    6.8816   -1.0424 H         1 <0>         0.1227
     19 H4         -1.0547    5.6781    1.0234 H         1 <0>         0.1208
     20 H5         -1.3804    3.2291   -3.2225 H         1 <0>         0.1217
     21 H6         -0.1753    1.3818   -2.1144 H         1 <0>         0.0822
     22 H7         -1.7239    1.0898   -1.2922 H         1 <0>         0.0804
     23 H8          0.0021   -0.0041    0.0020 H         1 <0>         0.0775
     24 H9          1.0085    1.4668    0.0003 H         1 <0>         0.0738
     25 H10         0.5043    3.3026    1.6042 H         1 <0>         0.0789
     26 H11        -1.1738    3.4886    2.1603 H         1 <0>         0.0811
     27 H12         0.7216    0.5889    2.4346 H         1 <0>         0.4028
     28 H13        -0.0864   -0.8980    4.5321 H         1 <0>         0.1230
     29 H14         0.5117    0.6720    5.1201 H         1 <0>         0.1229
@<TRIPOS>BOND
     1    1    6 ar
     2    1    2 ar
     3    1   17 1
     4    2    3 ar
     5    2   18 1
     6    3    4 ar
     7    3   19 1
     8    4   11 1
     9    4    5 ar
    10    5    6 ar
    11    5    7 1
    12    6   20 1
    13    7    8 1
    14    7   21 1
    15    7   22 1
    16    8    9 1
    17    8   23 1
    18    8   24 1
    19    9   10 1
    20    9   11 1
    21    9   12 1
    22   11   25 1
    23   11   26 1
    24   12   13 am
    25   12   27 1
    26   13   14 2
    27   13   15 1
    28   15   16 1
    29   15   28 1
    30   15   29 1
@<TRIPOS>MOLECULE
ZINC13833082
   29    30     0     0     0
SMALL
USER_CHARGES
2-chloro-N-[(2S)-tetralin-2-yl]acetamide
@<TRIPOS>ATOM
      1 C1         -1.2195    1.7434    0.0173 C.ar      1 <0>        -0.1205
      2 C2         -1.2393    3.1259    0.0273 C.ar      1 <0>        -0.1199
      3 C3         -0.0520    3.8279    0.0204 C.ar      1 <0>        -0.1176
      4 C4          1.1645    3.1574    0.0089 C.ar      1 <0>        -0.0728
      5 C5          1.1842    1.7810    0.0003 C.ar      1 <0>        -0.0814
      6 C6         -0.0126    1.0758    0.0080 C.ar      1 <0>        -0.1188
      7 C7          2.4650    0.9885   -0.0223 C.3       1 <0>        -0.0771
      8 C8          3.6444    1.8616    0.4014 C.3       1 <0>        -0.1264
      9 C9          3.6189    3.1472   -0.4337 C.3       1 <0>         0.1473
     10 H1          3.5202    2.8970   -1.4900 H         1 <0>         0.0955
     11 C10         2.4223    3.9863    0.0101 C.3       1 <0>        -0.0912
     12 N1          4.8568    3.9004   -0.2181 N.am      1 <0>        -0.7249
     13 C11         5.2992    4.7545   -1.1622 C.2       1 <0>         0.5033
     14 O1          4.6724    4.8995   -2.1903 O.2       1 <0>        -0.5106
     15 C12         6.5726    5.5292   -0.9403 C.3       1 <0>        -0.0676
     16 Cl1         6.8954    6.5775   -2.3713 Cl        1 <0>        -0.1277
     17 H2         -2.1459    1.1882    0.0203 H         1 <0>         0.1226
     18 H3         -2.1812    3.6543    0.0370 H         1 <0>         0.1227
     19 H4         -0.0684    4.9078    0.0237 H         1 <0>         0.1208
     20 H5          0.0021   -0.0041    0.0020 H         1 <0>         0.1218
     21 H6          2.3780    0.1451    0.6626 H         1 <0>         0.0822
     22 H7          2.6391    0.6154   -1.0316 H         1 <0>         0.0804
     23 H8          3.5564    2.1093    1.4593 H         1 <0>         0.0738
     24 H9          4.5782    1.3276    0.2258 H         1 <0>         0.0775
     25 H10         2.6022    4.3649    1.0163 H         1 <0>         0.0789
     26 H11         2.2995    4.8268   -0.6729 H         1 <0>         0.0811
     27 H12         5.3581    3.7844    0.6042 H         1 <0>         0.4028
     28 H13         6.4696    6.1505   -0.0506 H         1 <0>         0.1229
     29 H14         7.4015    4.8346   -0.8044 H         1 <0>         0.1230
@<TRIPOS>BOND
     1    1    6 ar
     2    1    2 ar
     3    1   17 1
     4    2    3 ar
     5    2   18 1
     6    3    4 ar
     7    3   19 1
     8    4   11 1
     9    4    5 ar
    10    5    6 ar
    11    5    7 1
    12    6   20 1
    13    7    8 1
    14    7   21 1
    15    7   22 1
    16    8    9 1
    17    8   23 1
    18    8   24 1
    19    9   10 1
    20    9   11 1
    21    9   12 1
    22   11   25 1
    23   11   26 1
    24   12   13 am
    25   12   27 1
    26   13   14 2
    27   13   15 1
    28   15   16 1
    29   15   28 1
    30   15   29 1
@<TRIPOS>MOLECULE
ZINC03792127
   36    37     0     0     0
SMALL
USER_CHARGES

@<TRIPOS>ATOM
      1 C1         -0.0187    1.5258    0.0104 C.3       1 <0>        -0.1384
      2 C2          0.0021   -0.0041    0.0020 C.3       1 <0>        -0.1451
      3 C3          0.7074   -0.4901   -1.2379 C.2       1 <0>         0.5115
      4 O1          1.1500    0.3085   -2.0362 O.2       1 <0>        -0.5376
      5 N1          0.8465   -1.8122   -1.4596 N.am      1 <0>        -0.7295
      6 C4          1.5322   -2.2846   -2.6649 C.3       1 <0>         0.1453
      7 H1          2.3436   -1.6019   -2.9170 H         1 <0>         0.0922
      8 C5          0.5378   -2.3573   -3.8297 C.3       1 <0>        -0.1286
      9 C6          1.3200   -2.6186   -5.1152 C.3       1 <0>        -0.0788
     10 C7          2.2421   -3.7974   -4.9438 C.ar      1 <0>        -0.0385
     11 C8          2.7355   -4.4046   -6.0922 C.ar      1 <0>        -0.1565
     12 C9          3.5893   -5.4847   -6.0056 C.ar      1 <0>        -0.0785
     13 C10         3.9600   -5.9702   -4.7662 C.ar      1 <0>        -0.2130
     14 C11         3.4687   -5.3704   -3.6194 C.ar      1 <0>         0.1296
     15 C12         2.6039   -4.2806   -3.7076 C.ar      1 <0>        -0.1057
     16 C13         2.0942   -3.6838   -2.4219 C.3       1 <0>        -0.0737
     17 O2          3.8325   -5.8464   -2.3996 O.3       1 <0>        -0.3157
     18 C14         4.7220   -6.9647   -2.3785 C.3       1 <0>         0.0267
     19 H2          1.0039    1.9031    0.0027 H         1 <0>         0.0616
     20 H3         -0.5459    1.8868   -0.8726 H         1 <0>         0.0615
     21 H4         -0.5289    1.8773    0.9072 H         1 <0>         0.0617
     22 H5          0.5293   -0.3651    0.8851 H         1 <0>         0.0931
     23 H6         -1.0205   -0.3814    0.0098 H         1 <0>         0.0931
     24 H7          0.4926   -2.4509   -0.8211 H         1 <0>         0.4006
     25 H8         -0.1692   -3.1691   -3.6587 H         1 <0>         0.0684
     26 H9          0.0000   -1.4129   -3.9127 H         1 <0>         0.0744
     27 H10         0.6208   -2.8241   -5.9258 H         1 <0>         0.0824
     28 H11         1.9082   -1.7353   -5.3640 H         1 <0>         0.0837
     29 H12         2.4480   -4.0269   -7.0623 H         1 <0>         0.1243
     30 H13         3.9667   -5.9499   -6.9042 H         1 <0>         0.1258
     31 H14         4.6304   -6.8138   -4.6925 H         1 <0>         0.1286
     32 H15         2.9124   -3.6228   -1.7043 H         1 <0>         0.0830
     33 H16         1.3084   -4.3213   -2.0166 H         1 <0>         0.0792
     34 H17         4.2603   -7.8060   -2.8954 H         1 <0>         0.0560
     35 H18         5.6531   -6.6978   -2.8784 H         1 <0>         0.0560
     36 H19         4.9310   -7.2433   -1.3456 H         1 <0>         0.1010
@<TRIPOS>BOND
     1    1    2 1
     2    1   19 1
     3    1   20 1
     4    1   21 1
     5    2    3 1
     6    2   22 1
     7    2   23 1
     8    3    4 2
     9    3    5 am
    10    5    6 1
    11    5   24 1
    12    6    7 1
    13    6   16 1
    14    6    8 1
    15    8    9 1
    16    8   25 1
    17    8   26 1
    18    9   10 1
    19    9   27 1
    20    9   28 1
    21   10   15 ar
    22   10   11 ar
    23   11   12 ar
    24   11   29 1
    25   12   13 ar
    26   12   30 1
    27   13   14 ar
    28   13   31 1
    29   14   15 ar
    30   14   17 1
    31   15   16 1
    32   16   32 1
    33   16   33 1
    34   17   18 1
    35   18   34 1
    36   18   35 1
    37   18   36 1
@<TRIPOS>MOLECULE
ZINC03995801
   36    37     0     0     0
SMALL
USER_CHARGES

@<TRIPOS>ATOM
      1 C1         -0.0187    1.5258    0.0104 C.3       1 <0>        -0.1384
      2 C2          0.0021   -0.0041    0.0020 C.3       1 <0>        -0.1451
      3 C3          0.7074   -0.4901   -1.2379 C.2       1 <0>         0.5115
      4 O1          1.1500    0.3085   -2.0362 O.2       1 <0>        -0.5376
      5 N1          0.8465   -1.8122   -1.4596 N.am      1 <0>        -0.7295
      6 C4          1.5322   -2.2846   -2.6649 C.3       1 <0>         0.1452
      7 H1          1.3185   -1.6126   -3.4960 H         1 <0>         0.0922
      8 C5          3.0441   -2.3311   -2.4141 C.3       1 <0>        -0.1286
      9 C6          3.7454   -2.5933   -3.7453 C.3       1 <0>        -0.0788
     10 C7          3.1413   -3.7880   -4.4359 C.ar      1 <0>        -0.0385
     11 C8          3.8796   -4.3926   -5.4460 C.ar      1 <0>        -0.1565
     12 C9          3.3819   -5.4869   -6.1227 C.ar      1 <0>        -0.0785
     13 C10         2.1369   -5.9893   -5.7959 C.ar      1 <0>        -0.2130
     14 C11         1.3989   -5.3920   -4.7884 C.ar      1 <0>         0.1296
     15 C12         1.9039   -4.2883   -4.1028 C.ar      1 <0>        -0.1057
     16 C13         1.0562   -3.6947   -3.0082 C.3       1 <0>        -0.0738
     17 O2          0.1741   -5.8847   -4.4659 O.3       1 <0>        -0.3157
     18 C14        -0.2853   -7.0170   -5.2067 C.3       1 <0>         0.0267
     19 H2          1.0039    1.9031    0.0027 H         1 <0>         0.0615
     20 H3         -0.5459    1.8868   -0.8726 H         1 <0>         0.0616
     21 H4         -0.5289    1.8773    0.9072 H         1 <0>         0.0617
     22 H5          0.5293   -0.3651    0.8851 H         1 <0>         0.0931
     23 H6         -1.0205   -0.3814    0.0098 H         1 <0>         0.0931
     24 H7          0.4926   -2.4509   -0.8211 H         1 <0>         0.4006
     25 H8          3.3778   -1.3776   -2.0049 H         1 <0>         0.0744
     26 H9          3.2754   -3.1331   -1.7131 H         1 <0>         0.0684
     27 H10         3.6408   -1.7172   -4.3854 H         1 <0>         0.0837
     28 H11         4.8037   -2.7804   -3.5633 H         1 <0>         0.0824
     29 H12         4.8528   -4.0017   -5.7040 H         1 <0>         0.1243
     30 H13         3.9637   -5.9495   -6.9063 H         1 <0>         0.1258
     31 H14         1.7414   -6.8444   -6.3238 H         1 <0>         0.1286
     32 H15         1.1249   -4.3232   -2.1203 H         1 <0>         0.0792
     33 H16         0.0184   -3.6531   -3.3389 H         1 <0>         0.0830
     34 H17        -0.3421   -6.7605   -6.2645 H         1 <0>         0.0560
     35 H18         0.4090   -7.8462   -5.0707 H         1 <0>         0.0560
     36 H19        -1.2733   -7.3081   -4.8499 H         1 <0>         0.1010
@<TRIPOS>BOND
     1    1    2 1
     2    1   19 1
     3    1   20 1
     4    1   21 1
     5    2    3 1
     6    2   22 1
     7    2   23 1
     8    3    4 2
     9    3    5 am
    10    5    6 1
    11    5   24 1
    12    6    7 1
    13    6   16 1
    14    6    8 1
    15    8    9 1
    16    8   25 1
    17    8   26 1
    18    9   10 1
    19    9   27 1
    20    9   28 1
    21   10   15 ar
    22   10   11 ar
    23   11   12 ar
    24   11   29 1
    25   12   13 ar
    26   12   30 1
    27   13   14 ar
    28   13   31 1
    29   14   15 ar
    30   14   17 1
    31   15   16 1
    32   16   32 1
    33   16   33 1
    34   17   18 1
    35   18   34 1
    36   18   35 1
    37   18   36 1
