@<TRIPOS>MOLECULE
ZINC19594585
   14    14     0     0     0
SMALL
USER_CHARGES

@<TRIPOS>ATOM
      1 C1         -0.0187    1.5258    0.0104 C.3       1 <0>        -0.1653
      2 C2          0.0021   -0.0041    0.0020 C.3       1 <0>         0.0236
      3 H1         -0.8731   -0.4913    0.4318 H         1 <0>         0.1092
      4 C3          0.7052   -0.7011   -1.1645 C.3       1 <0>        -0.5989
      5 H2          0.2973   -1.6516   -1.5085 H         1 <0>         0.0960
      6 O1          1.2662   -0.6537    0.1509 O.3       1 <0>        -0.3315
      7 P1          1.4598    0.3477   -2.4505 P.3       1 <0>         2.2682
      8 O2          0.3699    1.2274   -3.1026 O.2       1 <0>        -1.0825
      9 O3          2.5370    1.2519   -1.8110 O.3       1 <0>        -1.0828
     10 O4          2.1394   -0.5851   -3.5731 O.3       1 <0>        -0.9037
     11 H3          1.0039    1.9031    0.0027 H         1 <0>         0.0944
     12 H4         -0.5459    1.8868   -0.8726 H         1 <0>         0.0976
     13 H5         -0.5289    1.8773    0.9072 H         1 <0>         0.0614
     14 H6          2.5615   -0.0929   -4.2906 H         1 <0>         0.4143
@<TRIPOS>BOND
     1    1    2 1
     2    1   11 1
     3    1   12 1
     4    1   13 1
     5    2    3 1
     6    2    6 1
     7    2    4 1
     8    4    5 1
     9    4    6 1
    10    4    7 1
    11    7    8 2
    12    7    9 1
    13    7   10 1
    14   10   14 1
