@<TRIPOS>MOLECULE
ZINC03814434
   62    69     0     0     0
SMALL
USER_CHARGES

@<TRIPOS>ATOM
      1 C1         -0.1295    1.5952   -0.2973 C.3       1 <0>        -0.1687
      2 C2         -0.0862    0.0696   -0.1900 C.3       1 <0>         0.3342
      3 C3          0.5692   -0.4501   -1.4637 C.3       1 <0>         0.0405
      4 H1          1.4796    0.1159   -1.6612 H         1 <0>         0.1372
      5 C4          0.9167   -1.9328   -1.2889 C.3       1 <0>        -0.0061
      6 H2          1.3963   -2.3075   -2.1932 H         1 <0>         0.1555
      7 C5          1.8785   -2.0596   -0.1021 C.3       1 <0>        -0.1827
      8 C6          1.2061   -1.5198    1.1541 C.3       1 <0>         0.2999
      9 H3          1.9797   -1.4243    1.9161 H         1 <0>         0.1550
     10 O1          0.6555   -0.2442    0.9666 O.3       1 <0>        -0.3234
     11 N1          0.2189   -2.4746    1.6600 N.pl3     1 <0>        -0.5366
     12 C7          0.4705   -3.5508    2.4739 C.ar      1 <0>         0.1469
     13 C8          1.6649   -4.0152    3.0240 C.ar      1 <0>        -0.1522
     14 C9          1.5948   -5.1456    3.8201 C.ar      1 <0>        -0.0582
     15 C10         0.4006   -5.7997    4.0696 C.ar      1 <0>        -0.1457
     16 C11        -0.7984   -5.3597    3.5358 C.ar      1 <0>        -0.0280
     17 C12        -0.7487   -4.2198    2.7307 C.ar      1 <0>        -0.1131
     18 C13        -1.7893   -3.4830    2.0197 C.ar      1 <0>         0.0276
     19 C14        -1.1442   -2.4197    1.3841 C.ar      1 <0>         0.0376
     20 C15        -1.8806   -1.5095    0.6175 C.ar      1 <0>         0.0894
     21 N2         -1.4718   -0.3951   -0.1095 N.pl3     1 <0>        -0.5183
     22 C16        -2.5611    0.1913   -0.7090 C.ar      1 <0>         0.1618
     23 C17        -2.6521    1.3277   -1.5118 C.ar      1 <0>        -0.1305
     24 C18        -3.9109    1.6745   -1.9733 C.ar      1 <0>        -0.0737
     25 C19        -5.0393    0.9368   -1.6616 C.ar      1 <0>        -0.1358
     26 C20        -4.9745   -0.1955   -0.8662 C.ar      1 <0>        -0.0503
     27 C21        -3.7147   -0.5596   -0.3919 C.ar      1 <0>        -0.1042
     28 C22        -3.2693   -1.6660    0.4845 C.ar      1 <0>        -0.0360
     29 C23        -3.9084   -2.7313    1.1102 C.ar      1 <0>        -0.0288
     30 C24        -3.1873   -3.6421    1.8754 C.ar      1 <0>        -0.1255
     31 C25        -4.1221   -4.6480    2.4030 C.2       1 <0>         0.5632
     32 O2         -3.8062   -5.5851    3.1110 O.2       1 <0>        -0.5106
     33 N3         -5.3744   -4.3851    1.9926 N.am      1 <0>        -0.7162
     34 C26        -5.3495   -3.1771    1.1601 C.3       1 <0>         0.1358
     35 N4         -0.3067   -2.7008   -1.0216 N.4       1 <0>        -0.5252
     36 C27         0.0145   -4.1336   -0.9773 C.3       1 <0>        -0.0497
     37 O3         -0.3340   -0.2979   -2.5607 O.3       1 <0>        -0.3614
     38 C28         0.3101   -0.0933   -3.8198 C.3       1 <0>         0.0162
     39 H4          0.8261    2.0094    0.0240 H         1 <0>         0.0984
     40 H5         -0.3202    1.8814   -1.3317 H         1 <0>         0.1036
     41 H6         -0.9255    1.9818    0.3392 H         1 <0>         0.0921
     42 H7          2.1370   -3.1081    0.0458 H         1 <0>         0.1233
     43 H8          2.7835   -1.4869   -0.3048 H         1 <0>         0.1455
     44 H9          2.6036   -3.5149    2.8368 H         1 <0>         0.1365
     45 H10         2.5026   -5.5304    4.2610 H         1 <0>         0.1359
     46 H11         0.4045   -6.6780    4.6980 H         1 <0>         0.1352
     47 H12        -1.7278   -5.8736    3.7323 H         1 <0>         0.1600
     48 H13        -1.7792    1.9122   -1.7624 H         1 <0>         0.1440
     49 H14        -4.0153    2.5500   -2.5970 H         1 <0>         0.1336
     50 H15        -5.9967    1.2527   -2.0488 H         1 <0>         0.1332
     51 H16        -5.8575   -0.7687   -0.6249 H         1 <0>         0.1415
     52 H17        -6.1628   -4.9065    2.2103 H         1 <0>         0.4348
     53 H18        -5.9671   -2.3994    1.6094 H         1 <0>         0.1115
     54 H19        -5.7060   -3.4063    0.1559 H         1 <0>         0.1103
     55 H20        -0.6958   -2.4158   -0.1353 H         1 <0>         0.4186
     56 H21         0.4349   -4.4415   -1.9347 H         1 <0>         0.1256
     57 H22         0.7403   -4.3189   -0.1854 H         1 <0>         0.1191
     58 H23        -0.8932   -4.7035   -0.7789 H         1 <0>         0.1256
     59 H24         0.9168    0.8112   -3.7748 H         1 <0>         0.0633
     60 H25         0.9482   -0.9479   -4.0446 H         1 <0>         0.0514
     61 H26        -0.4433    0.0130   -4.6003 H         1 <0>         0.1100
     62 H27        -0.9785   -2.5293   -1.7546 H         1 <0>         0.4274
@<TRIPOS>BOND
     1    1    2 1
     2    1   39 1
     3    1   40 1
     4    1   41 1
     5    2   10 1
     6    2   21 1
     7    2    3 1
     8    3    4 1
     9    3    5 1
    10    3   37 1
    11    5    6 1
    12    5    7 1
    13    5   35 1
    14    7    8 1
    15    7   42 1
    16    7   43 1
    17    8    9 1
    18    8   10 1
    19    8   11 1
    20   11   19 1
    21   11   12 1
    22   12   17 ar
    23   12   13 ar
    24   13   14 ar
    25   13   44 1
    26   14   15 ar
    27   14   45 1
    28   15   16 ar
    29   15   46 1
    30   16   17 ar
    31   16   47 1
    32   17   18 1
    33   18   30 ar
    34   18   19 ar
    35   19   20 ar
    36   20   28 ar
    37   20   21 1
    38   21   22 1
    39   22   27 ar
    40   22   23 ar
    41   23   24 ar
    42   23   48 1
    43   24   25 ar
    44   24   49 1
    45   25   26 ar
    46   25   50 1
    47   26   27 ar
    48   26   51 1
    49   27   28 1
    50   28   29 ar
    51   29   34 1
    52   29   30 ar
    53   30   31 1
    54   31   32 2
    55   31   33 am
    56   33   34 1
    57   33   52 1
    58   34   53 1
    59   34   54 1
    60   35   36 1
    61   35   55 1
    62   35   62 1
    63   36   56 1
    64   36   57 1
    65   36   58 1
    66   37   38 1
    67   38   59 1
    68   38   60 1
    69   38   61 1
@<TRIPOS>MOLECULE
ZINC03874317
   33    35     0     0     0
SMALL
USER_CHARGES

@<TRIPOS>ATOM
      1 C1          2.0732    1.4062   -0.8308 C.ar      1 <0>        -0.0859
      2 C2          1.1849    2.0922    0.0020 C.ar      1 <0>        -0.0258
      3 C3          0.3126    1.3779    0.8279 C.ar      1 <0>        -0.1033
      4 C4          0.3308   -0.0046    0.8189 C.ar      1 <0>         0.0938
      5 C5          1.2167   -0.6850   -0.0116 C.ar      1 <0>         0.0764
      6 C6          2.0867    0.0236   -0.8354 C.ar      1 <0>         0.0966
      7 O1          2.9505   -0.6446   -1.6458 O.3       1 <0>        -0.4863
      8 O2          1.2322   -2.0446   -0.0183 O.3       1 <0>        -0.4787
      9 O3         -0.5174   -0.7003    1.6227 O.3       1 <0>        -0.4812
     10 C7          1.1683    3.5667    0.0096 C.2       1 <0>         0.1312
     11 C8          2.3519    4.2356    0.1004 C.2       1 <0>        -0.0374
     12 C9          2.3527    5.6546    0.1089 C.2       1 <0>         0.4012
     13 O4          3.3933    6.2877    0.1887 O.2       1 <0>        -0.4464
     14 C10         1.0501    6.3331    0.0174 C.ar      1 <0>        -0.2690
     15 C11         0.9572    7.7312    0.0184 C.ar      1 <0>         0.2250
     16 C12        -0.2849    8.3310   -0.0697 C.ar      1 <0>        -0.2079
     17 C13        -1.4331    7.5508   -0.1581 C.ar      1 <0>         0.2004
     18 C14        -1.3490    6.1675   -0.1597 C.ar      1 <0>        -0.1855
     19 C15        -0.1119    5.5470   -0.0726 C.ar      1 <0>         0.1879
     20 O5         -0.0133    4.2011   -0.0789 O.3       1 <0>        -0.1974
     21 O6         -2.6481    8.1504   -0.2432 O.3       1 <0>        -0.4866
     22 O7          2.0786    8.4907    0.1056 O.3       1 <0>        -0.4725
     23 O8          3.5237    3.5485    0.1828 O.3       1 <0>        -0.4491
     24 H1          2.7453    1.9555   -1.4734 H         1 <0>         0.1463
     25 H2         -0.3747    1.9053    1.4728 H         1 <0>         0.1442
     26 H3          3.8063   -0.8341   -1.2374 H         1 <0>         0.3987
     27 H4          0.6310   -2.4417   -0.6632 H         1 <0>         0.3936
     28 H5         -1.3687   -0.9054    1.2124 H         1 <0>         0.3924
     29 H6         -0.3642    9.4081   -0.0694 H         1 <0>         0.1517
     30 H7         -2.2476    5.5724   -0.2288 H         1 <0>         0.1557
     31 H8         -2.9359    8.3293   -1.1489 H         1 <0>         0.4053
     32 H9          2.4687    8.7158   -0.7501 H         1 <0>         0.4040
     33 H10         4.3069    4.1124    0.2436 H         1 <0>         0.4089
@<TRIPOS>BOND
     1    1    6 ar
     2    1    2 ar
     3    1   24 1
     4    2    3 ar
     5    2   10 1
     6    3    4 ar
     7    3   25 1
     8    4    5 ar
     9    4    9 1
    10    5    6 ar
    11    5    8 1
    12    6    7 1
    13    7   26 1
    14    8   27 1
    15    9   28 1
    16   10   20 1
    17   10   11 2
    18   11   12 1
    19   11   23 1
    20   12   13 2
    21   12   14 1
    22   14   19 ar
    23   14   15 ar
    24   15   16 ar
    25   15   22 1
    26   16   17 ar
    27   16   29 1
    28   17   18 ar
    29   17   21 1
    30   18   19 ar
    31   18   30 1
    32   19   20 1
    33   21   31 1
    34   22   32 1
    35   23   33 1
@<TRIPOS>MOLECULE
ZINC03874317
   32    34     0     0     0
SMALL
USER_CHARGES

@<TRIPOS>ATOM
      1 C1          2.0771    1.4053   -0.8287 C.ar      1 <0>        -0.0905
      2 C2          1.1858    2.0921    0.0020 C.ar      1 <0>        -0.0015
      3 C3          0.3103    1.3773    0.8258 C.ar      1 <0>        -0.1070
      4 C4          0.3284   -0.0047    0.8166 C.ar      1 <0>         0.0918
      5 C5          1.2173   -0.6854   -0.0113 C.ar      1 <0>         0.0627
      6 C6          2.0900    0.0232   -0.8331 C.ar      1 <0>         0.0937
      7 O1          2.9560   -0.6454   -1.6409 O.3       1 <0>        -0.4882
      8 O2          1.2332   -2.0446   -0.0173 O.3       1 <0>        -0.4810
      9 O3         -0.5225   -0.7004    1.6174 O.3       1 <0>        -0.4835
     10 C7          1.1696    3.5647    0.0095 C.2       1 <0>         0.0969
     11 C8          2.3645    4.2546    0.1013 C.2       1 <0>         0.0017
     12 C9          2.3581    5.6552    0.1091 C.2       1 <0>         0.3347
     13 C10         1.1162    6.3213    0.0219 C.2       1 <0>        -0.3328
     14 C11         1.0516    7.7306    0.0250 C.2       1 <0>         0.2668
     15 C12        -0.1591    8.3550   -0.0605 C.2       1 <0>        -0.3747
     16 C13        -1.3400    7.6005   -0.1516 C.2       1 <0>         0.3649
     17 O4         -2.5185    8.2209   -0.2352 O.2       1 <0>        -0.6597
     18 C14        -1.2886    6.2026   -0.1556 C.2       1 <0>        -0.3140
     19 C15        -0.0694    5.5584   -0.0695 C.2       1 <0>         0.2123
     20 O5         -0.0059    4.2104   -0.0783 O.3       1 <0>        -0.2019
     21 O6          2.1901    8.4635    0.1132 O.3       1 <0>        -0.4481
     22 O7          3.5130    6.3524    0.1984 O.3       1 <0>        -0.5726
     23 O8          3.5409    3.5760    0.1840 O.3       1 <0>        -0.4646
     24 H1          2.7513    1.9542   -1.4694 H         1 <0>         0.1458
     25 H2         -0.3788    1.9047    1.4687 H         1 <0>         0.1447
     26 H3          3.8105   -0.8352   -1.2299 H         1 <0>         0.3943
     27 H4          0.6340   -2.4421   -0.6639 H         1 <0>         0.3880
     28 H5         -1.3725   -0.9053    1.2042 H         1 <0>         0.3891
     29 H6         -0.2092    9.4338   -0.0579 H         1 <0>         0.1182
     30 H7         -2.2003    5.6280   -0.2254 H         1 <0>         0.1230
     31 H8          2.0440    9.4194    0.1078 H         1 <0>         0.3850
     32 H9          4.3201    4.1455    0.2445 H         1 <0>         0.4068
@<TRIPOS>BOND
     1    1    6 ar
     2    1    2 ar
     3    1   24 1
     4    2    3 ar
     5    2   10 1
     6    3    4 ar
     7    3   25 1
     8    4    5 ar
     9    4    9 1
    10    5    6 ar
    11    5    8 1
    12    6    7 1
    13    7   26 1
    14    8   27 1
    15    9   28 1
    16   10   20 1
    17   10   11 2
    18   11   12 1
    19   11   23 1
    20   12   13 2
    21   12   22 1
    22   13   19 1
    23   13   14 1
    24   14   15 2
    25   14   21 1
    26   15   16 1
    27   15   29 1
    28   16   17 2
    29   16   18 1
    30   18   19 2
    31   18   30 1
    32   19   20 1
    33   21   31 1
    34   23   32 1
@<TRIPOS>MOLECULE
ZINC03938688
   39    41     0     0     0
SMALL
USER_CHARGES

@<TRIPOS>ATOM
      1 C1         -0.0095    1.3826    0.0704 C.ar      1 <0>        -0.0343
      2 C2          0.5587    1.0580   -1.1482 C.ar      1 <0>        -0.1609
      3 C3          1.7655    0.3862   -1.1955 C.ar      1 <0>         0.1753
      4 C4          2.4129    0.0342   -0.0053 C.ar      1 <0>        -0.1954
      5 C5          1.8304    0.3669    1.2233 C.ar      1 <0>         0.1741
      6 C6          0.6231    1.0388    1.2514 C.ar      1 <0>        -0.1610
      7 F1          2.4463    0.0317    2.3781 F         1 <0>        -0.1212
      8 C7          3.6999   -0.6827   -0.0456 C.2       1 <0>         0.6210
      9 O1          4.7383   -0.0615   -0.1600 O.2       1 <0>        -0.4669
     10 N1          3.7255   -2.0272    0.0446 N.am      1 <0>        -0.3962
     11 C8          4.8314   -2.8210    0.1249 C.2       1 <0>         0.5948
     12 N2          4.4249   -4.0694    0.1979 N.2       1 <0>        -0.5873
     13 C9          3.0869   -4.1118    0.1675 C.2       1 <0>         0.5191
     14 N3          2.6183   -2.8904    0.0808 N.2       1 <0>        -0.3480
     15 N4          2.3148   -5.2702    0.2247 N.pl3     1 <0>        -0.6226
     16 C10         2.9267   -6.5079    0.4407 C.ar      1 <0>         0.2365
     17 C11         4.1432   -6.5760    1.1080 C.ar      1 <0>        -0.1584
     18 C12         4.7450   -7.8008    1.3202 C.ar      1 <0>         0.0098
     19 C13         4.1379   -8.9586    0.8692 C.ar      1 <0>        -0.7033
     20 C14         2.9269   -8.8944    0.2046 C.ar      1 <0>         0.0112
     21 C15         2.3170   -7.6734   -0.0063 C.ar      1 <0>        -0.1777
     22 S1          4.9094  -10.5191    1.1415 S.o2      1 <0>         2.7034
     23 O2          4.4084  -11.3993    0.1448 O.2       1 <0>        -0.9656
     24 O3          6.2977  -10.2630    1.3036 O.2       1 <0>        -0.9650
     25 N5          4.3605  -11.0895    2.5960 N.pl3     1 <0>        -1.2510
     26 N6          6.1422   -2.3912    0.1281 N.pl3     1 <0>        -0.7911
     27 F2          2.3185    0.0697   -2.3868 F         1 <0>        -0.1201
     28 H1         -0.9506    1.9116    0.0998 H         1 <0>         0.1546
     29 H2          0.0576    1.3300   -2.0654 H         1 <0>         0.1549
     30 H3          0.1721    1.2963    2.1984 H         1 <0>         0.1546
     31 H4          1.3525   -5.2176    0.1147 H         1 <0>         0.4325
     32 H5          4.6180   -5.6722    1.4601 H         1 <0>         0.1556
     33 H6          5.6909   -7.8544    1.8385 H         1 <0>         0.1456
     34 H7          2.4556   -9.8005   -0.1466 H         1 <0>         0.1475
     35 H8          1.3691   -7.6243   -0.5215 H         1 <0>         0.1387
     36 H9          3.7284  -10.5673    3.1145 H         1 <0>         0.4165
     37 H10         4.6709  -11.9458    2.9296 H         1 <0>         0.4206
     38 H11         6.3422   -1.4439    0.0694 H         1 <0>         0.4292
     39 H12         6.8640   -3.0364    0.1890 H         1 <0>         0.4303
@<TRIPOS>BOND
     1    1    6 ar
     2    1    2 ar
     3    1   28 1
     4    2    3 ar
     5    2   29 1
     6    3    4 ar
     7    3   27 1
     8    4    5 ar
     9    4    8 1
    10    5    6 ar
    11    5    7 1
    12    6   30 1
    13    8    9 2
    14    8   10 am
    15   10   14 1
    16   10   11 1
    17   11   12 2
    18   11   26 1
    19   12   13 1
    20   13   14 2
    21   13   15 1
    22   15   16 1
    23   15   31 1
    24   16   21 ar
    25   16   17 ar
    26   17   18 ar
    27   17   32 1
    28   18   19 ar
    29   18   33 1
    30   19   20 ar
    31   19   22 1
    32   20   21 ar
    33   20   34 1
    34   21   35 1
    35   22   23 2
    36   22   24 2
    37   22   25 1
    38   25   36 1
    39   25   37 1
    40   26   38 1
    41   26   39 1
@<TRIPOS>MOLECULE
ZINC02555126
   32    33     0     0     0
SMALL
USER_CHARGES

@<TRIPOS>ATOM
      1 C1         -0.7619    0.9602    0.1001 C.ar      1 <0>        -0.1448
      2 C2          0.2411    1.8782    0.0328 C.ar      1 <0>        -0.0303
      3 C3          1.5744    1.4456   -0.0578 C.ar      1 <0>        -0.0705
      4 C4          1.8545    0.0563   -0.0777 C.ar      1 <0>         0.0392
      5 C5          3.1886   -0.3765   -0.1693 C.ar      1 <0>        -0.1428
      6 C6          4.1915    0.5410   -0.2375 C.ar      1 <0>        -0.0675
      7 C7          3.9174    1.9071   -0.2175 C.ar      1 <0>        -0.1098
      8 C8          2.6372    2.3641   -0.1296 C.ar      1 <0>        -0.0102
      9 Cl1         2.3191    4.0706   -0.1071 Cl        1 <0>        -0.0432
     10 C9          0.7930   -0.8614   -0.0060 C.ar      1 <0>        -0.6850
     11 C10        -0.4868   -0.4055    0.0805 C.ar      1 <0>         0.0208
     12 S1          1.1165   -2.5933   -0.0292 S.o2      1 <0>         2.6976
     13 O1         -0.1402   -3.2430    0.1042 O.2       1 <0>        -0.9447
     14 O2          1.9834   -2.8298   -1.1301 O.2       1 <0>        -0.9309
     15 N1          1.9805   -2.9484    1.3383 N.pl3     1 <0>        -1.1170
     16 C11         1.3741   -2.7572    2.6581 C.3       1 <0>         0.0886
     17 C12         2.1887   -3.5151    3.7083 C.3       1 <0>        -0.0160
     18 N2          1.5806   -3.3234    5.0317 N.4       1 <0>        -0.6344
     19 H1         -1.7859    1.2955    0.1743 H         1 <0>         0.1444
     20 H2          0.0128    2.9337    0.0487 H         1 <0>         0.1452
     21 H3          3.4167   -1.4320   -0.1851 H         1 <0>         0.1362
     22 H4          5.2155    0.2051   -0.3078 H         1 <0>         0.1441
     23 H5          4.7320    2.6141   -0.2726 H         1 <0>         0.1450
     24 H6         -1.3009   -1.1130    0.1351 H         1 <0>         0.1507
     25 H7          2.8880   -3.2829    1.2654 H         1 <0>         0.4273
     26 H8          1.3642   -1.6951    2.9030 H         1 <0>         0.0902
     27 H9          0.3525   -3.1370    2.6470 H         1 <0>         0.1052
     28 H10         2.1986   -4.5772    3.4634 H         1 <0>         0.1459
     29 H11         3.2103   -3.1352    3.7193 H         1 <0>         0.1435
     30 H12         2.1178   -3.8232    5.7243 H         1 <0>         0.4450
     31 H13         1.5714   -2.3402    5.2584 H         1 <0>         0.4383
     32 H14         0.6349   -3.6750    5.0215 H         1 <0>         0.4398
@<TRIPOS>BOND
     1    1   11 ar
     2    1    2 ar
     3    1   19 1
     4    2    3 ar
     5    2   20 1
     6    3    8 ar
     7    3    4 ar
     8    4    5 ar
     9    4   10 ar
    10    5    6 ar
    11    5   21 1
    12    6    7 ar
    13    6   22 1
    14    7    8 ar
    15    7   23 1
    16    8    9 1
    17   10   11 ar
    18   10   12 1
    19   11   24 1
    20   12   13 2
    21   12   14 2
    22   12   15 1
    23   15   16 1
    24   15   25 1
    25   16   17 1
    26   16   26 1
    27   16   27 1
    28   17   18 1
    29   17   28 1
    30   17   29 1
    31   18   30 1
    32   18   31 1
    33   18   32 1
@<TRIPOS>MOLECULE
ZINC02597113
   39    41     0     0     0
SMALL
USER_CHARGES

@<TRIPOS>ATOM
      1 C1          1.9282    1.3854   -0.9652 C.ar      1 <0>        -0.1387
      2 C2          1.2942    2.1044    0.0014 C.ar      1 <0>        -0.0420
      3 C3          0.5884    1.4353    1.0151 C.ar      1 <0>        -0.0434
      4 C4          0.5479    0.0184    1.0148 C.ar      1 <0>         0.0335
      5 C5         -0.1576   -0.6509    2.0296 C.ar      1 <0>        -0.1267
      6 C6         -0.7907    0.0677    2.9965 C.ar      1 <0>        -0.0742
      7 C7         -0.7512    1.4608    2.9973 C.ar      1 <0>        -0.0719
      8 C8         -0.0783    2.1435    2.0304 C.ar      1 <0>        -0.0840
      9 I1         -0.0353    4.2379    2.0561 I         1 <0>        -0.0122
     10 C9          1.2141   -0.6895    0.0004 C.ar      1 <0>        -0.6676
     11 C10         1.8885   -0.0073   -0.9655 C.ar      1 <0>        -0.0005
     12 S1          1.1773   -2.4509   -0.0212 S.o2      1 <0>         2.6884
     13 O1          2.1533   -2.8890    0.9141 O.2       1 <0>        -0.9368
     14 O2         -0.1892   -2.8298    0.0700 O.2       1 <0>        -0.9326
     15 N1          1.7036   -2.9334   -1.5154 N.pl3     1 <0>        -1.0121
     16 C11         0.7838   -3.0346   -2.6170 C.3       1 <0>         0.0906
     17 C12         0.1149   -4.4136   -2.8216 C.3       1 <0>        -0.1666
     18 C13         1.1514   -5.5435   -2.6162 C.3       1 <0>        -0.0239
     19 N2          2.4231   -5.1480   -3.1741 N.4       1 <0>        -0.4915
     20 C14         3.2069   -4.7147   -2.0215 C.3       1 <0>        -0.0361
     21 C15         3.1502   -3.2666   -1.7443 C.3       1 <0>         0.0901
     22 H1          2.4664    1.9024   -1.7459 H         1 <0>         0.1424
     23 H2          1.3339    3.1836   -0.0108 H         1 <0>         0.1453
     24 H3         -0.1973   -1.7301    2.0418 H         1 <0>         0.1331
     25 H4         -1.3323   -0.4494    3.7747 H         1 <0>         0.1470
     26 H5         -1.2623    2.0069    3.7763 H         1 <0>         0.1435
     27 H6          2.4001   -0.5539   -1.7440 H         1 <0>         0.1344
     28 H7         -0.0026   -2.2940   -2.4717 H         1 <0>         0.1074
     29 H8          1.3194   -2.7781   -3.5310 H         1 <0>         0.0865
     30 H9         -0.6960   -4.5321   -2.1030 H         1 <0>         0.1214
     31 H10        -0.2889   -4.4730   -3.8323 H         1 <0>         0.1120
     32 H11         1.2683   -5.7386   -1.5502 H         1 <0>         0.1320
     33 H12         0.8035   -6.4490   -3.1133 H         1 <0>         0.1372
     34 H13         2.8678   -5.9318   -3.6280 H         1 <0>         0.4399
     35 H14         2.8500   -5.2499   -1.1416 H         1 <0>         0.1397
     36 H15         4.2478   -4.9916   -2.1892 H         1 <0>         0.1456
     37 H16         3.5313   -2.7063   -2.5981 H         1 <0>         0.1123
     38 H17         3.7324   -3.0320   -0.8532 H         1 <0>         0.1484
     39 H18         2.3011   -4.3857   -3.8238 H         1 <0>         0.4298
@<TRIPOS>BOND
     1    1   11 ar
     2    1    2 ar
     3    1   22 1
     4    2    3 ar
     5    2   23 1
     6    3    8 ar
     7    3    4 ar
     8    4    5 ar
     9    4   10 ar
    10    5    6 ar
    11    5   24 1
    12    6    7 ar
    13    6   25 1
    14    7    8 ar
    15    7   26 1
    16    8    9 1
    17   10   11 ar
    18   10   12 1
    19   11   27 1
    20   12   13 2
    21   12   14 2
    22   12   15 1
    23   15   21 1
    24   15   16 1
    25   16   17 1
    26   16   28 1
    27   16   29 1
    28   17   18 1
    29   17   30 1
    30   17   31 1
    31   18   19 1
    32   18   32 1
    33   18   33 1
    34   19   20 1
    35   19   34 1
    36   19   39 1
    37   20   21 1
    38   20   35 1
    39   20   36 1
    40   21   37 1
    41   21   38 1
@<TRIPOS>MOLECULE
ZINC03872984
   56    63     0     0     0
SMALL
USER_CHARGES

@<TRIPOS>ATOM
      1 C1         -1.1449    0.9207   -2.2992 C.3       1 <0>        -0.1734
      2 C2         -0.8443   -0.1869   -1.2874 C.3       1 <0>         0.3608
      3 C3          0.6608   -0.5271   -1.2917 C.3       1 <0>         0.1089
      4 C4          1.0548   -0.6349    0.1959 C.3       1 <0>        -0.1931
      5 C5         -0.2437   -0.3496    0.9788 C.3       1 <0>         0.3159
      6 H1         -0.0464    0.3283    1.8093 H         1 <0>         0.1526
      7 O1         -1.1290    0.2586    0.0385 O.3       1 <0>        -0.3365
      8 N1         -0.7907   -1.6169    1.4725 N.pl3     1 <0>        -0.5139
      9 C6         -0.6316   -2.1589    2.7227 C.ar      1 <0>         0.1521
     10 C7          0.1280   -1.7303    3.8106 C.ar      1 <0>        -0.1535
     11 C8          0.0716   -2.4964    4.9622 C.ar      1 <0>        -0.0728
     12 C9         -0.6995   -3.6426    5.0489 C.ar      1 <0>        -0.1588
     13 C10        -1.4586   -4.0939    3.9832 C.ar      1 <0>        -0.0351
     14 C11        -1.4138   -3.3367    2.8110 C.ar      1 <0>        -0.1065
     15 C12        -2.0522   -3.5178    1.5109 C.ar      1 <0>         0.0000
     16 C13        -1.6151   -2.4505    0.7283 C.ar      1 <0>         0.1116
     17 C14        -1.9686   -2.3749   -0.6239 C.ar      1 <0>         0.1598
     18 N2         -1.6213   -1.3899   -1.6007 N.pl3     1 <0>        -0.5050
     19 C15        -2.1482   -1.7391   -2.8210 C.ar      1 <0>         0.1774
     20 C16        -2.0102   -1.1429   -4.0736 C.ar      1 <0>        -0.1496
     21 C17        -2.6914   -1.7253   -5.1291 C.ar      1 <0>        -0.0801
     22 C18        -3.4791   -2.8511   -4.9669 C.ar      1 <0>        -0.1542
     23 C19        -3.6271   -3.4663   -3.7348 C.ar      1 <0>        -0.0533
     24 C20        -2.9440   -2.8977   -2.6603 C.ar      1 <0>        -0.0998
     25 C21        -2.7951   -3.3523   -1.1935 C.ar      1 <0>        -0.0500
     26 C22        -3.2927   -4.3756   -0.3931 C.ar      1 <0>        -0.0443
     27 C23        -2.9346   -4.4703    0.9497 C.ar      1 <0>        -0.1321
     28 C24        -3.6117   -5.6413    1.5281 C.2       1 <0>         0.5681
     29 O2         -3.5170   -5.9945    2.6881 O.2       1 <0>        -0.5237
     30 N3         -4.3501   -6.2651    0.5950 N.am      1 <0>        -0.7231
     31 C25        -4.2144   -5.5378   -0.6718 C.3       1 <0>         0.1445
     32 C26         1.4435    0.5727   -1.9615 C.2       1 <0>         0.4474
     33 O3          1.9444    1.4488   -1.2970 O.2       1 <0>        -0.4796
     34 O4          1.5843    0.5792   -3.2964 O.3       1 <0>        -0.3367
     35 C27         2.3389    1.6518   -3.8640 C.3       1 <0>         0.0263
     36 O5          0.8858   -1.7724   -1.9557 O.3       1 <0>        -0.5063
     37 H2         -0.8247    1.8803   -1.8932 H         1 <0>         0.0927
     38 H3         -0.6079    0.7211   -3.2265 H         1 <0>         0.1054
     39 H4         -2.2161    0.9498   -2.4986 H         1 <0>         0.0969
     40 H5          1.4184   -1.6379    0.4192 H         1 <0>         0.1158
     41 H6          1.8148    0.1070    0.4406 H         1 <0>         0.1253
     42 H7          0.7351   -0.8387    3.7568 H         1 <0>         0.1302
     43 H8          0.6489   -2.1895    5.8218 H         1 <0>         0.1266
     44 H9         -0.7088   -4.2005    5.9737 H         1 <0>         0.1257
     45 H10        -2.0581   -4.9894    4.0552 H         1 <0>         0.1522
     46 H11        -1.3985   -0.2640   -4.2147 H         1 <0>         0.1366
     47 H12        -2.6051   -1.2859   -6.1119 H         1 <0>         0.1259
     48 H13        -3.9928   -3.2611   -5.8239 H         1 <0>         0.1251
     49 H14        -4.2422   -4.3455   -3.6122 H         1 <0>         0.1356
     50 H15        -4.8835   -7.0630    0.7354 H         1 <0>         0.4273
     51 H16        -5.1877   -5.1737   -1.0009 H         1 <0>         0.1006
     52 H17        -3.7798   -6.1869   -1.4321 H         1 <0>         0.1012
     53 H18         2.3752    1.5370   -4.9473 H         1 <0>         0.1105
     54 H19         1.8648    2.6011   -3.6149 H         1 <0>         0.0661
     55 H20         3.3522    1.6353   -3.4627 H         1 <0>         0.0654
     56 H21         1.8150   -2.0380   -1.9892 H         1 <0>         0.3910
@<TRIPOS>BOND
     1    1    2 1
     2    1   37 1
     3    1   38 1
     4    1   39 1
     5    2    7 1
     6    2   18 1
     7    2    3 1
     8    3    4 1
     9    3   32 1
    10    3   36 1
    11    4    5 1
    12    4   40 1
    13    4   41 1
    14    5    6 1
    15    5    7 1
    16    5    8 1
    17    8   16 1
    18    8    9 1
    19    9   14 ar
    20    9   10 ar
    21   10   11 ar
    22   10   42 1
    23   11   12 ar
    24   11   43 1
    25   12   13 ar
    26   12   44 1
    27   13   14 ar
    28   13   45 1
    29   14   15 1
    30   15   27 ar
    31   15   16 ar
    32   16   17 ar
    33   17   25 ar
    34   17   18 1
    35   18   19 1
    36   19   24 ar
    37   19   20 ar
    38   20   21 ar
    39   20   46 1
    40   21   22 ar
    41   21   47 1
    42   22   23 ar
    43   22   48 1
    44   23   24 ar
    45   23   49 1
    46   24   25 1
    47   25   26 ar
    48   26   31 1
    49   26   27 ar
    50   27   28 1
    51   28   29 2
    52   28   30 am
    53   30   31 1
    54   30   50 1
    55   31   51 1
    56   31   52 1
    57   32   33 2
    58   32   34 1
    59   34   35 1
    60   35   53 1
    61   35   54 1
    62   35   55 1
    63   36   56 1
@<TRIPOS>MOLECULE
ZINC01554668
   47    52     0     0     0
SMALL
USER_CHARGES

@<TRIPOS>ATOM
      1 C1         -0.2832    1.4683    0.0475 C.3       1 <0>         0.0335
      2 N1         -0.3334    0.0041    0.0468 N.pl3     1 <0>        -0.5008
      3 C2         -0.5714   -0.7779   -1.0665 C.ar      1 <0>         0.1449
      4 C3         -0.8140   -0.4635   -2.4006 C.ar      1 <0>        -0.1504
      5 C4         -1.0221   -1.4689   -3.3192 C.ar      1 <0>        -0.0730
      6 C5         -0.9931   -2.7997   -2.9282 C.ar      1 <0>        -0.1553
      7 C6         -0.7551   -3.1321   -1.6130 C.ar      1 <0>        -0.0437
      8 C7         -0.5418   -2.1252   -0.6721 C.ar      1 <0>        -0.1078
      9 C8         -0.2671   -2.1312    0.7736 C.ar      1 <0>        -0.0040
     10 C9         -0.1431   -0.7961    1.1613 C.ar      1 <0>         0.1149
     11 C10         0.1286   -0.4838    2.5010 C.ar      1 <0>         0.1604
     12 C11         0.2766   -1.5171    3.4386 C.ar      1 <0>        -0.0610
     13 C12         0.5516   -0.8661    4.7341 C.ar      1 <0>        -0.0929
     14 C13         0.7864   -1.3502    6.0188 C.ar      1 <0>        -0.0597
     15 C14         1.0184   -0.4670    7.0511 C.ar      1 <0>        -0.1431
     16 C15         1.0181    0.8993    6.8147 C.ar      1 <0>        -0.0807
     17 C16         0.7867    1.3916    5.5485 C.ar      1 <0>        -0.1379
     18 C17         0.5514    0.5155    4.4929 C.ar      1 <0>         0.1380
     19 N2          0.2962    0.7228    3.1497 N.pl3     1 <0>        -0.4936
     20 C18         0.2152    2.0366    2.5066 C.3       1 <0>         0.0651
     21 C19        -1.2333    2.5288    2.5328 C.3       1 <0>        -0.0543
     22 C20        -1.3368    3.7895    1.7800 C.1       1 <0>         0.1939
     23 N3         -1.4166    4.7625    1.1991 N.1       1 <0>        -0.4012
     24 C21         0.1556   -2.8451    3.0480 C.ar      1 <0>        -0.0459
     25 C22        -0.1218   -3.1674    1.7235 C.ar      1 <0>        -0.1335
     26 C23        -0.1930   -4.6318    1.6069 C.2       1 <0>         0.5670
     27 O1         -0.4091   -5.2361    0.5739 O.2       1 <0>        -0.5231
     28 N4          0.0149   -5.2077    2.8033 N.am      1 <0>        -0.7241
     29 C24         0.2569   -4.1527    3.7942 C.3       1 <0>         0.1441
     30 H1          0.7562    1.7962    0.0589 H         1 <0>         0.0786
     31 H2         -0.7745    1.8491   -0.8479 H         1 <0>         0.0907
     32 H3         -0.7940    1.8489    0.9320 H         1 <0>         0.1054
     33 H4         -0.8395    0.5692   -2.7157 H         1 <0>         0.1218
     34 H5         -1.2099   -1.2189   -4.3529 H         1 <0>         0.1296
     35 H6         -1.1581   -3.5783   -3.6582 H         1 <0>         0.1286
     36 H7         -0.7338   -4.1689   -1.3114 H         1 <0>         0.1459
     37 H8          0.7864   -2.4139    6.2055 H         1 <0>         0.1280
     38 H9          1.2007   -0.8404    8.0480 H         1 <0>         0.1295
     39 H10         1.2005    1.5837    7.6301 H         1 <0>         0.1308
     40 H11         0.7883    2.4576    5.3751 H         1 <0>         0.1245
     41 H12         0.8488    2.7432    3.0426 H         1 <0>         0.1062
     42 H13         0.5532    1.9568    1.4734 H         1 <0>         0.1310
     43 H14        -1.8800    1.7792    2.0768 H         1 <0>         0.1201
     44 H15        -1.5418    2.6955    3.5649 H         1 <0>         0.1260
     45 H16         0.0160   -6.1615    2.9800 H         1 <0>         0.4270
     46 H17         1.2496   -4.2588    4.2316 H         1 <0>         0.1007
     47 H18        -0.5038   -4.1996    4.5734 H         1 <0>         0.0998
@<TRIPOS>BOND
     1    1    2 1
     2    1   30 1
     3    1   31 1
     4    1   32 1
     5    2   10 1
     6    2    3 1
     7    3    8 ar
     8    3    4 ar
     9    4    5 ar
    10    4   33 1
    11    5    6 ar
    12    5   34 1
    13    6    7 ar
    14    6   35 1
    15    7    8 ar
    16    7   36 1
    17    8    9 1
    18    9   25 ar
    19    9   10 ar
    20   10   11 ar
    21   11   19 1
    22   11   12 ar
    23   12   13 1
    24   12   24 ar
    25   13   18 ar
    26   13   14 ar
    27   14   15 ar
    28   14   37 1
    29   15   16 ar
    30   15   38 1
    31   16   17 ar
    32   16   39 1
    33   17   18 ar
    34   17   40 1
    35   18   19 1
    36   19   20 1
    37   20   21 1
    38   20   41 1
    39   20   42 1
    40   21   22 1
    41   21   43 1
    42   21   44 1
    43   22   23 3
    44   24   29 1
    45   24   25 ar
    46   25   26 1
    47   26   27 2
    48   26   28 am
    49   28   29 1
    50   28   45 1
    51   29   46 1
    52   29   47 1
@<TRIPOS>MOLECULE
ZINC00006486
   38    40     0     0     0
SMALL
USER_CHARGES

@<TRIPOS>ATOM
      1 C1          1.9298    1.3878   -0.9612 C.ar      1 <0>        -0.1576
      2 C2          1.2945    2.1069    0.0055 C.ar      1 <0>        -0.0072
      3 C3          0.5887    1.4353    1.0155 C.ar      1 <0>        -0.1351
      4 C4         -0.0859    2.1226    2.0377 C.ar      1 <0>         0.1714
      5 N1         -0.7330    1.4506    2.9607 N.ar      1 <0>        -0.4845
      6 C5         -0.7853    0.1257    2.9804 C.ar      1 <0>         0.1226
      7 C6         -0.1649   -0.6326    2.0348 C.ar      1 <0>        -0.1974
      8 C7          0.5498    0.0164    1.0112 C.ar      1 <0>         0.0591
      9 C8          1.2155   -0.6907    0.0002 C.ar      1 <0>        -0.6812
     10 C9          1.8908   -0.0050   -0.9643 C.ar      1 <0>         0.0183
     11 S1          1.1797   -2.4522   -0.0228 S.o2      1 <0>         2.6894
     12 O1          2.1558   -2.8904    0.9123 O.2       1 <0>        -0.9370
     13 O2         -0.1866   -2.8318    0.0679 O.2       1 <0>        -0.9323
     14 N2          1.7064   -2.9332   -1.5173 N.pl3     1 <0>        -1.0124
     15 C10         0.7868   -3.0345   -2.6189 C.3       1 <0>         0.0909
     16 C11         0.1192   -4.4141   -2.8245 C.3       1 <0>        -0.1667
     17 C12         1.1568   -5.5430   -2.6198 C.3       1 <0>        -0.0238
     18 N3          2.4281   -5.1459   -3.1775 N.4       1 <0>        -0.4914
     19 C13         3.2116   -4.7126   -2.0246 C.3       1 <0>        -0.0360
     20 C14         3.1534   -3.2648   -1.7465 C.3       1 <0>         0.0902
     21 H1          2.4689    1.9057   -1.7406 H         1 <0>         0.1429
     22 H2          1.3340    3.1862   -0.0051 H         1 <0>         0.1499
     23 H3         -0.0718    3.2022    2.0643 H         1 <0>         0.1757
     24 H4         -1.3354   -0.3659    3.7691 H         1 <0>         0.1673
     25 H5         -0.2201   -1.7107    2.0699 H         1 <0>         0.1385
     26 H6          2.4035   -0.5495   -1.7435 H         1 <0>         0.1345
     27 H7         -0.0004   -2.2948   -2.4732 H         1 <0>         0.1069
     28 H8          1.3221   -2.7769   -3.5328 H         1 <0>         0.0865
     29 H9         -0.6916   -4.5338   -2.1059 H         1 <0>         0.1214
     30 H10        -0.2846   -4.4731   -3.8352 H         1 <0>         0.1121
     31 H11         1.2739   -5.7387   -1.5540 H         1 <0>         0.1320
     32 H12         0.8098   -6.4486   -3.1175 H         1 <0>         0.1373
     33 H13         2.8736   -5.9290   -3.6319 H         1 <0>         0.4400
     34 H14         2.8551   -5.2487   -1.1450 H         1 <0>         0.1397
     35 H15         4.2526   -4.9884   -2.1925 H         1 <0>         0.1457
     36 H16         3.5339   -2.7035   -2.5999 H         1 <0>         0.1123
     37 H17         3.7354   -3.0302   -0.8552 H         1 <0>         0.1481
     38 H18         2.3053   -4.3833   -3.8267 H         1 <0>         0.4297
@<TRIPOS>BOND
     1    1   10 ar
     2    1    2 ar
     3    1   21 1
     4    2    3 ar
     5    2   22 1
     6    3    8 ar
     7    3    4 ar
     8    4    5 ar
     9    4   23 1
    10    5    6 ar
    11    6    7 ar
    12    6   24 1
    13    7    8 ar
    14    7   25 1
    15    8    9 ar
    16    9   10 ar
    17    9   11 1
    18   10   26 1
    19   11   12 2
    20   11   13 2
    21   11   14 1
    22   14   20 1
    23   14   15 1
    24   15   16 1
    25   15   27 1
    26   15   28 1
    27   16   17 1
    28   16   29 1
    29   16   30 1
    30   17   18 1
    31   17   31 1
    32   17   32 1
    33   18   19 1
    34   18   33 1
    35   18   38 1
    36   19   20 1
    37   19   34 1
    38   19   35 1
    39   20   36 1
    40   20   37 1
@<TRIPOS>MOLECULE
ZINC03801072
   57    62     0     0     0
SMALL
USER_CHARGES
3-(aminomethylBLAHyl)-4-(1-methylindol-3-yl)-pyrrole-2,5-dione
@<TRIPOS>ATOM
      1 C1         -3.3259    7.1513   -1.4756 C.3       1 <0>         0.0723
      2 N1         -2.7966    6.0928   -0.6121 N.pl3     1 <0>        -0.4749
      3 C2         -1.9223    5.1286   -1.0105 C.2       1 <0>         0.1101
      4 C3         -1.6367    4.3057    0.0389 C.2       1 <0>        -0.1496
      5 C4         -2.4117    4.8068    1.1877 C.ar      1 <0>        -0.0736
      6 C5         -3.1136    5.9306    0.7206 C.ar      1 <0>         0.0952
      7 C6         -3.9408    6.6294    1.5934 C.ar      1 <0>        -0.1201
      8 C7         -4.0730    6.2101    2.8997 C.ar      1 <0>        -0.1007
      9 C8         -3.3765    5.1025    3.3605 C.ar      1 <0>        -0.1389
     10 C9         -2.5480    4.3999    2.5129 C.ar      1 <0>        -0.0798
     11 C10        -0.7356    3.1412    0.0251 C.2       1 <0>        -0.0074
     12 C11         0.6542    3.1601    0.0122 C.2       1 <0>        -0.0489
     13 C12         1.0829    1.7461    0.0011 C.2       1 <0>         0.5569
     14 O1          2.2328    1.3543   -0.0120 O.2       1 <0>        -0.4501
     15 N2         -0.0111    0.9658    0.0074 N.am      1 <0>        -0.6904
     16 C13        -1.1258    1.7161    0.0162 C.2       1 <0>         0.5503
     17 O2         -2.2647    1.2931    0.0185 O.2       1 <0>        -0.4368
     18 C14         1.5234    4.3487    0.0094 C.2       1 <0>        -0.1029
     19 C15         2.0341    5.0570   -1.1625 C.ar      1 <0>        -0.0809
     20 C16         1.8723    4.8452   -2.5318 C.ar      1 <0>        -0.0685
     21 C17         2.5154    5.7314   -3.3791 C.ar      1 <0>        -0.1378
     22 C18         3.2819    6.7783   -2.8957 C.ar      1 <0>        -0.0920
     23 C19         3.4473    7.0091   -1.5406 C.ar      1 <0>        -0.1299
     24 C20         2.8142    6.1277   -0.6658 C.ar      1 <0>         0.1065
     25 N3          2.7859    6.0659    0.7003 N.pl3     1 <0>        -0.4762
     26 C21         2.0165    5.0037    1.1008 C.2       1 <0>         0.0993
     27 C22         1.7661    4.6329    2.5442 C.3       1 <0>        -0.0498
     28 C23         2.7987    5.3589    3.4147 C.3       1 <0>        -0.1226
     29 H1          3.7825    4.9161    3.2592 H         1 <0>         0.1052
     30 C24         2.8343    6.8379    3.0190 C.3       1 <0>        -0.1422
     31 C25         3.4640    6.9813    1.6311 C.3       1 <0>         0.1126
     32 C26         2.4057    5.2326    4.8879 C.3       1 <0>        -0.0001
     33 H2         -4.2445    6.8072   -1.9508 H         1 <0>         0.0775
     34 H3         -3.5365    8.0374   -0.8768 H         1 <0>         0.0850
     35 H4         -2.5905    7.3969   -2.2418 H         1 <0>         0.0880
     36 H5         -1.5164    5.0301   -2.0064 H         1 <0>         0.1742
     37 H6         -4.4891    7.4919    1.2444 H         1 <0>         0.1218
     38 H7         -4.7194    6.7536    3.5730 H         1 <0>         0.1276
     39 H8         -3.4845    4.7892    4.3884 H         1 <0>         0.1235
     40 H9         -2.0071    3.5376    2.8741 H         1 <0>         0.1166
     41 H10         0.0021   -0.0041    0.0020 H         1 <0>         0.4311
     42 H11         1.2751    4.0297   -2.9123 H         1 <0>         0.1298
     43 H12         2.4160    5.6028   -4.4468 H         1 <0>         0.1249
     44 H13         3.7619    7.4416   -3.5999 H         1 <0>         0.1259
     45 H14         4.0500    7.8285   -1.1775 H         1 <0>         0.1275
     46 H15         0.7610    4.9401    2.8333 H         1 <0>         0.1021
     47 H16         1.8712    3.5553    2.6702 H         1 <0>         0.1005
     48 H17         1.8187    7.2331    2.9995 H         1 <0>         0.0956
     49 H18         3.4264    7.3941    3.7456 H         1 <0>         0.0809
     50 H19         3.3484    8.0075    1.2824 H         1 <0>         0.0966
     51 H20         4.5233    6.7296    1.6834 H         1 <0>         0.0844
     52 H21         1.4654    5.7567    5.0594 H         1 <0>         0.1414
     53 H22         2.2864    4.1796    5.1432 H         1 <0>         0.1406
     54 H23         3.6306    6.7829    5.4663 H         1 <0>         0.4337
     55 H24         3.2198    5.7530    6.7058 H         1 <0>         0.4433
     56 N4          3.4755    5.8090    5.7213 N.4       1 <0>        -0.6481
     57 H25         4.3429    5.2808    5.5699 H         1 <0>         0.4410
@<TRIPOS>BOND
     1    1    2 1
     2    1   33 1
     3    1   34 1
     4    1   35 1
     5    2    6 1
     6    2    3 1
     7    3    4 2
     8    3   36 1
     9    4    5 1
    10    4   11 1
    11    5   10 ar
    12    5    6 ar
    13    6    7 ar
    14    7    8 ar
    15    7   37 1
    16    8    9 ar
    17    8   38 1
    18    9   10 ar
    19    9   39 1
    20   10   40 1
    21   11   16 1
    22   11   12 2
    23   12   13 1
    24   12   18 1
    25   13   14 2
    26   13   15 am
    27   15   16 am
    28   15   41 1
    29   16   17 2
    30   18   26 2
    31   18   19 1
    32   19   24 ar
    33   19   20 ar
    34   20   21 ar
    35   20   42 1
    36   21   22 ar
    37   21   43 1
    38   22   23 ar
    39   22   44 1
    40   23   24 ar
    41   23   45 1
    42   24   25 1
    43   25   31 1
    44   25   26 1
    45   26   27 1
    46   27   28 1
    47   27   46 1
    48   27   47 1
    49   28   29 1
    50   28   30 1
    51   28   32 1
    52   30   31 1
    53   30   48 1
    54   30   49 1
    55   31   50 1
    56   31   51 1
    57   32   52 1
    58   32   53 1
    59   32   56 1
    60   54   56 1
    61   55   56 1
    62   56   57 1
@<TRIPOS>MOLECULE
ZINC03871742
   57    62     0     0     0
SMALL
USER_CHARGES
3-(aminomethylBLAHyl)-4-(1-methylindol-3-yl)-pyrrole-2,5-dione
@<TRIPOS>ATOM
      1 C1         -1.1887   -0.8574    0.0084 C.3       1 <0>         0.0721
      2 N1          0.0021   -0.0041    0.0020 N.pl3     1 <0>        -0.4749
      3 C2         -0.0164    1.3569    0.0095 C.2       1 <0>         0.1103
      4 C3          1.2614    1.8336   -0.0001 C.2       1 <0>        -0.1482
      5 C4          2.1479    0.6566   -0.0149 C.ar      1 <0>        -0.0735
      6 C5          1.3021   -0.4652   -0.0129 C.ar      1 <0>         0.0954
      7 C6          1.8593   -1.7394   -0.0243 C.ar      1 <0>        -0.1198
      8 C7          3.2291   -1.8910   -0.0389 C.ar      1 <0>        -0.1018
      9 C8          4.0630   -0.7824   -0.0409 C.ar      1 <0>        -0.1402
     10 C9          3.5305    0.4884   -0.0290 C.ar      1 <0>        -0.0800
     11 C10         1.6741    3.2471    0.0035 C.2       1 <0>        -0.0109
     12 C11         1.6378    4.1254    1.0802 C.2       1 <0>        -0.0459
     13 C12         2.1552    5.4140    0.5751 C.2       1 <0>         0.5561
     14 O1          2.2787    6.4322    1.2261 O.2       1 <0>        -0.4479
     15 N2          2.4610    5.2735   -0.7259 N.am      1 <0>        -0.6903
     16 C13         2.2046    4.0205   -1.1382 C.2       1 <0>         0.5507
     17 O2          2.3795    3.5948   -2.2625 O.2       1 <0>        -0.4377
     18 C14         1.1793    3.8307    2.4481 C.2       1 <0>        -0.1038
     19 C15        -0.1788    3.9792    2.9672 C.ar      1 <0>        -0.0807
     20 C16        -1.3704    4.3967    2.3738 C.ar      1 <0>        -0.0687
     21 C17        -2.4967    4.4063    3.1788 C.ar      1 <0>        -0.1376
     22 C18        -2.4492    4.0151    4.5061 C.ar      1 <0>        -0.0921
     23 C19        -1.2776    3.5924    5.1106 C.ar      1 <0>        -0.1297
     24 C20        -0.1286    3.5737    4.3217 C.ar      1 <0>         0.1064
     25 N3          1.1618    3.2177    4.6031 N.pl3     1 <0>        -0.4761
     26 C21         1.9397    3.3702    3.4840 C.2       1 <0>         0.0999
     27 C22         3.4190    3.0664    3.4303 C.3       1 <0>        -0.0509
     28 C23         3.7816    2.2172    4.6545 C.3       1 <0>        -0.1214
     29 H1          3.3660    1.2160    4.5398 H         1 <0>         0.1054
     30 C24         3.1994    2.8749    5.9089 C.3       1 <0>        -0.1438
     31 C25         1.6745    2.7401    5.8965 C.3       1 <0>         0.1131
     32 C26         5.3036    2.1279    4.7828 C.3       1 <0>        -0.0001
     33 H2         -1.4937   -1.0632   -1.0177 H         1 <0>         0.0777
     34 H3         -0.9609   -1.7954    0.5147 H         1 <0>         0.0848
     35 H4         -1.9976   -0.3486    0.5328 H         1 <0>         0.0884
     36 H5         -0.9077    1.9668    0.0172 H         1 <0>         0.1746
     37 H6          1.2192   -2.6093   -0.0229 H         1 <0>         0.1218
     38 H7          3.6574   -2.8824   -0.0480 H         1 <0>         0.1272
     39 H8          5.1347   -0.9160   -0.0522 H         1 <0>         0.1230
     40 H9          4.1820    1.3498   -0.0303 H         1 <0>         0.1166
     41 H10         2.8172    5.9784   -1.2889 H         1 <0>         0.4313
     42 H11        -1.4112    4.7019    1.3387 H         1 <0>         0.1299
     43 H12        -3.4388    4.7276    2.7596 H         1 <0>         0.1249
     44 H13        -3.3573    4.0410    5.0902 H         1 <0>         0.1260
     45 H14        -1.2550    3.2902    6.1472 H         1 <0>         0.1276
     46 H15         3.6476    2.5137    2.5191 H         1 <0>         0.1042
     47 H16         3.9860    3.9972    3.4480 H         1 <0>         0.0990
     48 H17         3.6002    2.3840    6.7957 H         1 <0>         0.0806
     49 H18         3.4703    3.9306    5.9245 H         1 <0>         0.0964
     50 H19         1.3997    1.6944    6.0341 H         1 <0>         0.0833
     51 H20         1.2490    3.3381    6.7024 H         1 <0>         0.0974
     52 H21         5.7252    1.7492    3.8517 H         1 <0>         0.1439
     53 H22         5.7095    3.1182    4.9892 H         1 <0>         0.1380
     54 H23         5.2305    0.3102    5.7467 H         1 <0>         0.4383
     55 H24         6.6503    1.1419    5.9880 H         1 <0>         0.4433
     56 N4          5.6391    1.2303    5.9022 N.4       1 <0>        -0.6481
     57 H25         5.2619    1.6215    6.7733 H         1 <0>         0.4361
@<TRIPOS>BOND
     1    1    2 1
     2    1   33 1
     3    1   34 1
     4    1   35 1
     5    2    6 1
     6    2    3 1
     7    3    4 2
     8    3   36 1
     9    4    5 1
    10    4   11 1
    11    5   10 ar
    12    5    6 ar
    13    6    7 ar
    14    7    8 ar
    15    7   37 1
    16    8    9 ar
    17    8   38 1
    18    9   10 ar
    19    9   39 1
    20   10   40 1
    21   11   16 1
    22   11   12 2
    23   12   13 1
    24   12   18 1
    25   13   14 2
    26   13   15 am
    27   15   16 am
    28   15   41 1
    29   16   17 2
    30   18   26 2
    31   18   19 1
    32   19   24 ar
    33   19   20 ar
    34   20   21 ar
    35   20   42 1
    36   21   22 ar
    37   21   43 1
    38   22   23 ar
    39   22   44 1
    40   23   24 ar
    41   23   45 1
    42   24   25 1
    43   25   31 1
    44   25   26 1
    45   26   27 1
    46   27   28 1
    47   27   46 1
    48   27   47 1
    49   28   29 1
    50   28   30 1
    51   28   32 1
    52   30   31 1
    53   30   48 1
    54   30   49 1
    55   31   50 1
    56   31   51 1
    57   32   52 1
    58   32   53 1
    59   32   56 1
    60   54   56 1
    61   55   56 1
    62   56   57 1
@<TRIPOS>MOLECULE
ZINC01619592
   55    59     0     0     0
SMALL
USER_CHARGES

@<TRIPOS>ATOM
      1 C1         -0.0184    1.5028    0.0103 C.3       1 <0>        -0.1511
      2 C2          0.0021   -0.0041    0.0020 C.2       1 <0>         0.4597
      3 O1          1.0565   -0.5939   -0.0112 O.2       1 <0>        -0.4999
      4 O2         -1.1511   -0.6910    0.0093 O.3       1 <0>        -0.3474
      5 C3         -1.0568   -2.1201    0.0008 C.3       1 <0>         0.1219
      6 H1         -0.1268   -2.3839    0.5135 H         1 <0>         0.1078
      7 C4         -0.9300   -2.5524   -1.4583 C.3       1 <0>        -0.1184
      8 C5         -1.5070   -3.9418   -1.6157 C.3       1 <0>        -0.1187
      9 C6         -3.0076   -3.8238   -1.2599 C.3       1 <0>        -0.0498
     10 H2         -3.4688   -3.0269   -1.8517 H         1 <0>         0.1063
     11 C7         -3.5424   -5.1804   -1.7235 C.3       1 <0>        -0.1009
     12 C8         -2.7629   -5.4191   -3.0462 C.3       1 <0>        -0.1830
     13 C9         -1.5465   -4.4997   -3.0127 C.2       1 <0>         0.3855
     14 O3         -0.7805   -4.2605   -3.9130 O.2       1 <0>        -0.4254
     15 C10        -3.1349   -3.4967    0.1921 C.2       1 <0>        -0.1113
     16 C11        -2.2157   -2.7096    0.7678 C.2       1 <0>        -0.0220
     17 C12        -2.2470   -2.4186    2.2520 C.3       1 <0>        -0.0027
     18 C13        -3.5419   -2.8944    2.8428 C.2       1 <0>        -0.1255
     19 C14        -4.0137   -2.4591    4.1090 C.2       1 <0>        -0.2743
     20 C15        -5.1338   -3.1850    4.3420 C.2       1 <0>         0.1107
     21 O4         -5.3667   -3.9750    3.2644 O.3       1 <0>        -0.1272
     22 C16        -4.4651   -3.7201    2.3152 C.2       1 <0>        -0.0593
     23 C17        -4.2994   -4.0888    0.9041 C.2       1 <0>         0.4739
     24 O5         -5.0852   -4.8388    0.3501 O.2       1 <0>        -0.4050
     25 C18        -3.2587   -1.3792    4.7707 C.2       1 <0>         0.5710
     26 O6         -3.4416   -1.0831    5.9367 O.2       1 <0>        -0.4406
     27 O7         -2.3673   -0.7035    4.0022 O.3       1 <0>        -0.3342
     28 C19        -2.1782   -0.9381    2.6104 C.3       1 <0>         0.1418
     29 H3         -1.2274   -0.5290    2.3161 H         1 <0>         0.1331
     30 C20        -3.3080   -0.2057    1.8834 C.3       1 <0>         0.0325
     31 O8         -3.1902    1.1997    2.1137 O.3       1 <0>        -0.3752
     32 C21        -4.2027    1.9802    1.4751 C.3       1 <0>         0.0299
     33 C22        -1.0932   -3.1555    2.9462 C.3       1 <0>        -0.1410
     34 C23        -0.7898   -4.9340   -0.7021 C.3       1 <0>        -0.1431
     35 H4          1.0042    1.8801    0.0026 H         1 <0>         0.1053
     36 H5         -0.5455    1.8639   -0.8728 H         1 <0>         0.1024
     37 H6         -0.5286    1.8543    0.9071 H         1 <0>         0.1090
     38 H7         -1.4691   -1.8509   -2.0999 H         1 <0>         0.0889
     39 H8          0.1251   -2.5564   -1.7479 H         1 <0>         0.0943
     40 H9         -3.3312   -5.9617   -0.9953 H         1 <0>         0.0820
     41 H10        -4.6154   -5.1243   -1.9164 H         1 <0>         0.0922
     42 H11        -2.4449   -6.4590   -3.1085 H         1 <0>         0.1059
     43 H12        -3.3960   -5.1755   -3.9005 H         1 <0>         0.1025
     44 H13        -5.7345   -3.1423    5.2384 H         1 <0>         0.2359
     45 H14        -3.2413   -0.4054    0.8139 H         1 <0>         0.0819
     46 H15        -4.2692   -0.5562    2.2593 H         1 <0>         0.0526
     47 H16        -4.0433    3.0351    1.6985 H         1 <0>         0.0920
     48 H17        -4.1546    1.8258    0.3972 H         1 <0>         0.0450
     49 H18        -5.1825    1.6750    1.8425 H         1 <0>         0.0405
     50 H19        -0.1439   -2.8172    2.5309 H         1 <0>         0.0813
     51 H20        -1.1181   -2.9442    4.0152 H         1 <0>         0.0779
     52 H21        -1.1983   -4.2284    2.7854 H         1 <0>         0.0788
     53 H22        -0.9157   -4.6281    0.3365 H         1 <0>         0.0689
     54 H23        -1.2137   -5.9285   -0.8418 H         1 <0>         0.0723
     55 H24         0.2717   -4.9535   -0.9490 H         1 <0>         0.0724
@<TRIPOS>BOND
     1    1    2 1
     2    1   35 1
     3    1   36 1
     4    1   37 1
     5    2    3 2
     6    2    4 1
     7    4    5 1
     8    5    6 1
     9    5   16 1
    10    5    7 1
    11    7    8 1
    12    7   38 1
    13    7   39 1
    14    8   13 1
    15    8    9 1
    16    8   34 1
    17    9   10 1
    18    9   11 1
    19    9   15 1
    20   11   12 1
    21   11   40 1
    22   11   41 1
    23   12   13 1
    24   12   42 1
    25   12   43 1
    26   13   14 2
    27   15   23 1
    28   15   16 2
    29   16   17 1
    30   17   28 1
    31   17   18 1
    32   17   33 1
    33   18   22 2
    34   18   19 1
    35   19   20 2
    36   19   25 1
    37   20   21 1
    38   20   44 1
    39   21   22 1
    40   22   23 1
    41   23   24 2
    42   25   26 2
    43   25   27 1
    44   27   28 1
    45   28   29 1
    46   28   30 1
    47   30   31 1
    48   30   45 1
    49   30   46 1
    50   31   32 1
    51   32   47 1
    52   32   48 1
    53   32   49 1
    54   33   50 1
    55   33   51 1
    56   33   52 1
    57   34   53 1
    58   34   54 1
    59   34   55 1
@<TRIPOS>MOLECULE
ZINC00402771
   39    41     0     0     0
SMALL
USER_CHARGES

@<TRIPOS>ATOM
      1 C1          1.9286    1.3858   -0.9641 C.ar      1 <0>        -0.1459
      2 C2          1.2952    2.1044    0.0033 C.ar      1 <0>        -0.0296
      3 C3          0.5897    1.4348    1.0167 C.ar      1 <0>        -0.0644
      4 C4          0.5487    0.0181    1.0156 C.ar      1 <0>         0.0408
      5 C5         -0.1565   -0.6518    2.0302 C.ar      1 <0>        -0.1421
      6 C6         -0.7892    0.0662    2.9980 C.ar      1 <0>        -0.0638
      7 C7         -0.7499    1.4591    2.9999 C.ar      1 <0>        -0.1039
      8 C8         -0.0766    2.1429    2.0332 C.ar      1 <0>        -0.0128
      9 Cl1        -0.0406    3.8783    2.0558 Cl        1 <0>        -0.0422
     10 C9          1.2142   -0.6894    0.0004 C.ar      1 <0>        -0.6719
     11 C10         1.8884   -0.0069   -0.9654 C.ar      1 <0>         0.0033
     12 S1          1.1774   -2.4509   -0.0219 S.o2      1 <0>         2.6891
     13 O1          2.1536   -2.8894    0.9131 O.2       1 <0>        -0.9370
     14 O2         -0.1891   -2.8298    0.0694 O.2       1 <0>        -0.9328
     15 N1          1.7033   -2.9328   -1.5164 N.pl3     1 <0>        -1.0123
     16 C11         0.7833   -3.0336   -2.6178 C.3       1 <0>         0.0908
     17 C12         0.1144   -4.4125   -2.8228 C.3       1 <0>        -0.1666
     18 C13         1.1510   -5.5424   -2.6181 C.3       1 <0>        -0.0238
     19 N2          2.4226   -5.1467   -3.1761 N.4       1 <0>        -0.4915
     20 C14         3.2066   -4.7138   -2.0235 C.3       1 <0>        -0.0359
     21 C15         3.1499   -3.2659   -1.7458 C.3       1 <0>         0.0902
     22 H1          2.4666    1.9031   -1.7447 H         1 <0>         0.1420
     23 H2          1.3353    3.1836   -0.0083 H         1 <0>         0.1461
     24 H3         -0.1965   -1.7310    2.0416 H         1 <0>         0.1331
     25 H4         -1.3302   -0.4516    3.7762 H         1 <0>         0.1476
     26 H5         -1.2609    2.0047    3.7794 H         1 <0>         0.1480
     27 H6          2.3995   -0.5531   -1.7444 H         1 <0>         0.1340
     28 H7         -0.0031   -2.2930   -2.4721 H         1 <0>         0.1074
     29 H8          1.3187   -2.7767   -3.5319 H         1 <0>         0.0864
     30 H9         -0.6964   -4.5313   -2.1040 H         1 <0>         0.1214
     31 H10        -0.2897   -4.4715   -3.8334 H         1 <0>         0.1119
     32 H11         1.2681   -5.7380   -1.5522 H         1 <0>         0.1320
     33 H12         0.8030   -6.4478   -3.1155 H         1 <0>         0.1370
     34 H13         2.8671   -5.9303   -3.6304 H         1 <0>         0.4398
     35 H14         2.8499   -5.2493   -1.1437 H         1 <0>         0.1397
     36 H15         4.2474   -4.9906   -2.1916 H         1 <0>         0.1454
     37 H16         3.5307   -2.7052   -2.5994 H         1 <0>         0.1122
     38 H17         3.7323   -3.0316   -0.8547 H         1 <0>         0.1484
     39 H18         2.3003   -4.3841   -3.8255 H         1 <0>         0.4299
@<TRIPOS>BOND
     1    1   11 ar
     2    1    2 ar
     3    1   22 1
     4    2    3 ar
     5    2   23 1
     6    3    8 ar
     7    3    4 ar
     8    4    5 ar
     9    4   10 ar
    10    5    6 ar
    11    5   24 1
    12    6    7 ar
    13    6   25 1
    14    7    8 ar
    15    7   26 1
    16    8    9 1
    17   10   11 ar
    18   10   12 1
    19   11   27 1
    20   12   13 2
    21   12   14 2
    22   12   15 1
    23   15   21 1
    24   15   16 1
    25   16   17 1
    26   16   28 1
    27   16   29 1
    28   17   18 1
    29   17   30 1
    30   17   31 1
    31   18   19 1
    32   18   32 1
    33   18   33 1
    34   19   20 1
    35   19   34 1
    36   19   39 1
    37   20   21 1
    38   20   35 1
    39   20   36 1
    40   21   37 1
    41   21   38 1
@<TRIPOS>MOLECULE
ZINC03816310
   51    55     0     0     0
SMALL
USER_CHARGES
4-amino-5-fluoro-3-[5-(4-methylpiperazin-1-yl)-3H-benzoimidazol-2-yl]-1H-quinolin-2-one
@<TRIPOS>ATOM
      1 C1         -4.4670    0.8494    3.0633 C.3       1 <0>        -0.0407
      2 C2         -3.3790    0.9463    0.9019 C.3       1 <0>         0.0019
      3 C3         -3.5151    1.4789   -0.5264 C.3       1 <0>         0.0203
      4 N1         -3.5799    2.9467   -0.4951 N.pl3     1 <0>        -0.4822
      5 C4         -4.7239    3.4034    0.3063 C.3       1 <0>         0.0231
      6 C5         -4.5878    2.8708    1.7347 C.3       1 <0>         0.0021
      7 C6         -3.6324    3.4738   -1.7895 C.ar      1 <0>         0.0898
      8 C7         -3.6187    2.6172   -2.8884 C.ar      1 <0>        -0.1658
      9 C8         -3.6694    3.1157   -4.1588 C.ar      1 <0>        -0.0428
     10 C9         -3.7362    4.4973   -4.3655 C.ar      1 <0>         0.0571
     11 C10        -3.7506    5.3641   -3.2589 C.ar      1 <0>         0.0655
     12 C11        -3.7036    4.8454   -1.9734 C.ar      1 <0>        -0.1134
     13 N2         -3.8198    6.6467   -3.7722 N.pl3     1 <0>        -0.5851
     14 H1         -3.8464    7.4962   -3.2453 H         1 <0>         0.4436
     15 C12        -3.8451    6.5353   -5.1390 C.2       1 <0>         0.4046
     16 N3         -3.7957    5.2687   -5.4809 N.2       1 <0>        -0.5294
     17 C13        -3.9164    7.6652   -6.0804 C.2       1 <0>        -0.3025
     18 C14        -4.0559    7.4305   -7.4504 C.2       1 <0>         0.3760
     19 C15        -4.1228    8.5898   -8.3476 C.ar      1 <0>        -0.1878
     20 C16        -4.0447    9.8830   -7.7997 C.ar      1 <0>         0.2450
     21 C17        -4.1078   10.9864   -8.6429 C.ar      1 <0>        -0.1734
     22 C18        -4.2458   10.8081  -10.0035 C.ar      1 <0>        -0.0185
     23 C19        -4.3231    9.5350  -10.5468 C.ar      1 <0>        -0.1801
     24 C20        -4.2628    8.4239   -9.7304 C.ar      1 <0>         0.1680
     25 F1         -4.3388    7.1843  -10.2623 F         1 <0>        -0.1206
     26 N4         -3.9076   10.0470   -6.4354 N.am      1 <0>        -0.6368
     27 H2         -3.8498   10.9715   -6.0585 H         1 <0>         0.4300
     28 C21        -3.8500    8.9949   -5.6023 C.2       1 <0>         0.5826
     29 O1         -3.7334    9.1908   -4.4050 O.2       1 <0>        -0.5600
     30 N5         -4.1288    6.1500   -7.9440 N.pl3     1 <0>        -0.8025
     31 H3         -3.5472    1.1734    3.5502 H         1 <0>         0.1241
     32 H4         -5.3249    1.2032    3.6351 H         1 <0>         0.1225
     33 H5         -4.4877   -0.2393    3.0134 H         1 <0>         0.1228
     34 H6         -3.3598   -0.1434    0.8835 H         1 <0>         0.1376
     35 H7         -2.4541    1.3189    1.3424 H         1 <0>         0.1399
     36 H8         -2.6529    1.1655   -1.1151 H         1 <0>         0.1307
     37 H9         -4.4260    1.0841   -0.9765 H         1 <0>         0.0717
     38 H10        -4.7431    4.4931    0.3248 H         1 <0>         0.1261
     39 H11        -5.6486    3.0309   -0.1345 H         1 <0>         0.0691
     40 H12        -3.6769    3.2656    2.1847 H         1 <0>         0.1400
     41 H13        -5.4498    3.1846    2.3235 H         1 <0>         0.1367
     42 H14        -3.5672    1.5496   -2.7341 H         1 <0>         0.1314
     43 H15        -3.6582    2.4431   -5.0037 H         1 <0>         0.1346
     44 H16        -3.7183    5.5073   -1.1202 H         1 <0>         0.1268
     45 H17        -4.0491   11.9836   -8.2323 H         1 <0>         0.1496
     46 H18        -4.2944   11.6697  -10.6529 H         1 <0>         0.1516
     47 H19        -4.4307    9.4121  -11.6144 H         1 <0>         0.1515
     48 H20        -4.3218    5.4103   -7.3468 H         1 <0>         0.4285
     49 H21        -3.9874    5.9859   -8.8895 H         1 <0>         0.4092
     50 N6         -4.5458    1.3938    1.6909 N.4       1 <0>        -0.3998
     51 H22        -5.4033    1.0486    1.2438 H         1 <0>         0.4274
@<TRIPOS>BOND
     1    1   31 1
     2    1   32 1
     3    1   33 1
     4    1   50 1
     5    2    3 1
     6    2   34 1
     7    2   35 1
     8    2   50 1
     9    3    4 1
    10    3   36 1
    11    3   37 1
    12    4    5 1
    13    4    7 1
    14    5    6 1
    15    5   38 1
    16    5   39 1
    17    6   40 1
    18    6   41 1
    19    6   50 1
    20    7   12 ar
    21    7    8 ar
    22    8    9 ar
    23    8   42 1
    24    9   10 ar
    25    9   43 1
    26   10   16 1
    27   10   11 ar
    28   11   12 ar
    29   11   13 1
    30   12   44 1
    31   13   14 1
    32   13   15 1
    33   15   16 2
    34   15   17 1
    35   17   28 1
    36   17   18 2
    37   18   19 1
    38   18   30 1
    39   19   24 ar
    40   19   20 ar
    41   20   21 ar
    42   20   26 1
    43   21   22 ar
    44   21   45 1
    45   22   23 ar
    46   22   46 1
    47   23   24 ar
    48   23   47 1
    49   24   25 1
    50   26   27 1
    51   26   28 am
    52   28   29 2
    53   30   48 1
    54   30   49 1
    55   50   51 1
@<TRIPOS>MOLECULE
ZINC03964325
   57    59     0     0     0
SMALL
USER_CHARGES

@<TRIPOS>ATOM
      1 C1          0.1489    2.0884    0.1150 C.3       1 <0>        -0.1876
      2 C2          0.1348    0.5603    0.1888 C.3       1 <0>        -0.0191
      3 N1         -1.2520    0.0881    0.2979 N.4       1 <0>        -0.3822
      4 C3         -1.9779    0.4111   -0.9377 C.3       1 <0>        -0.0142
      5 C4         -3.4549    0.0484   -0.7712 C.3       1 <0>        -0.1895
      6 C5         -1.2593   -1.3663    0.5041 C.3       1 <0>        -0.0265
      7 C6         -0.6131   -1.6936    1.8518 C.3       1 <0>         0.0952
      8 N2         -0.6203   -3.1440    2.0575 N.am      1 <0>        -0.7289
      9 C7         -0.0988   -3.6675    3.1846 C.2       1 <0>         0.6111
     10 O1          0.3779   -2.9358    4.0309 O.2       1 <0>        -0.5184
     11 C8         -0.1061   -5.1270    3.3915 C.2       1 <0>        -0.2420
     12 C9          0.9071   -6.0320    3.0089 C.2       1 <0>        -0.0577
     13 C10         0.4868   -7.2892    3.3960 C.2       1 <0>        -0.0075
     14 N3         -0.7476   -7.1595    3.9982 N.pl3     1 <0>        -0.4910
     15 H1         -1.2731   -7.8879    4.3645 H         1 <0>         0.4270
     16 C11        -1.1044   -5.8642    4.0022 C.2       1 <0>         0.1158
     17 C12        -2.3825   -5.3072    4.5743 C.3       1 <0>        -0.0999
     18 C13         1.1957   -8.4957    3.2079 C.2       1 <0>         0.0729
     19 C14         0.5100   -9.6674    2.9570 C.2       1 <0>        -0.1889
     20 C15         1.0648  -11.0377    2.8871 C.ar      1 <0>        -0.0736
     21 C16         2.3472  -11.5557    3.0375 C.ar      1 <0>        -0.1000
     22 C17         2.5553  -12.9162    2.9116 C.ar      1 <0>         0.0861
     23 C18         1.4888  -13.7593    2.6366 C.ar      1 <0>        -0.1139
     24 C19         0.2139  -13.2531    2.4856 C.ar      1 <0>        -0.1021
     25 C20        -0.0144  -11.8871    2.6092 C.ar      1 <0>         0.1282
     26 N4         -1.1765  -11.1301    2.5069 N.am      1 <0>        -0.6466
     27 C21        -0.9294   -9.8245    2.7079 C.2       1 <0>         0.5595
     28 O2         -1.7538   -8.9280    2.6842 O.2       1 <0>        -0.5156
     29 F1          3.7984  -13.4252    3.0561 F         1 <0>        -0.1318
     30 C22         2.1990   -5.6919    2.3116 C.3       1 <0>        -0.0931
     31 H2          1.1793    2.4435    0.1331 H         1 <0>         0.1076
     32 H3         -0.3308    2.4121   -0.8087 H         1 <0>         0.0811
     33 H4         -0.3916    2.4984    0.9682 H         1 <0>         0.0809
     34 H5          0.5888    0.1488   -0.7126 H         1 <0>         0.1317
     35 H6          0.6996    0.2334    1.0619 H         1 <0>         0.1337
     36 H7         -1.8867    1.4775   -1.1444 H         1 <0>         0.1351
     37 H8         -1.5554   -0.1571   -1.7664 H         1 <0>         0.1307
     38 H9         -3.5537   -1.0316   -0.6617 H         1 <0>         0.0802
     39 H10        -3.8523    0.5414    0.1160 H         1 <0>         0.0808
     40 H11        -4.0109    0.3769   -1.6492 H         1 <0>         0.1074
     41 H12        -2.2871   -1.7292    0.4963 H         1 <0>         0.1397
     42 H13        -0.6973   -1.8494   -0.2952 H         1 <0>         0.1376
     43 H14         0.4147   -1.3306    1.8596 H         1 <0>         0.0893
     44 H15        -1.1751   -1.2105    2.6511 H         1 <0>         0.0890
     45 H16        -1.0005   -3.7277    1.3824 H         1 <0>         0.4099
     46 H17        -3.1529   -5.3000    3.8032 H         1 <0>         0.0840
     47 H18        -2.7087   -5.9289    5.4080 H         1 <0>         0.0782
     48 H19        -2.2103   -4.2898    4.9254 H         1 <0>         0.0840
     49 H20         2.2744   -8.5020    3.2604 H         1 <0>         0.1589
     50 H21         3.1765  -10.8977    3.2512 H         1 <0>         0.1436
     51 H22         1.6578  -14.8215    2.5394 H         1 <0>         0.1485
     52 H23        -0.6084  -13.9196    2.2712 H         1 <0>         0.1415
     53 H24        -2.0541  -11.4980    2.3189 H         1 <0>         0.4217
     54 H25         2.9686   -5.4822    3.0545 H         1 <0>         0.0785
     55 H26         2.5107   -6.5337    1.6932 H         1 <0>         0.0726
     56 H27         2.0522   -4.8138    1.6827 H         1 <0>         0.0634
     57 H28        -1.7009    0.5410    1.0799 H         1 <0>         0.4247
@<TRIPOS>BOND
     1    1    2 1
     2    1   31 1
     3    1   32 1
     4    1   33 1
     5    2    3 1
     6    2   34 1
     7    2   35 1
     8    3    4 1
     9    3    6 1
    10    3   57 1
    11    4    5 1
    12    4   36 1
    13    4   37 1
    14    5   38 1
    15    5   39 1
    16    5   40 1
    17    6    7 1
    18    6   41 1
    19    6   42 1
    20    7    8 1
    21    7   43 1
    22    7   44 1
    23    8    9 am
    24    8   45 1
    25    9   10 2
    26    9   11 1
    27   11   16 2
    28   11   12 1
    29   12   13 2
    30   12   30 1
    31   13   14 1
    32   13   18 1
    33   14   15 1
    34   14   16 1
    35   16   17 1
    36   17   46 1
    37   17   47 1
    38   17   48 1
    39   18   19 2
    40   18   49 1
    41   19   27 1
    42   19   20 1
    43   20   25 ar
    44   20   21 ar
    45   21   22 ar
    46   21   50 1
    47   22   23 ar
    48   22   29 1
    49   23   24 ar
    50   23   51 1
    51   24   25 ar
    52   24   52 1
    53   25   26 1
    54   26   27 am
    55   26   53 1
    56   27   28 2
    57   30   54 1
    58   30   55 1
    59   30   56 1
@<TRIPOS>MOLECULE
ZINC03963016
   42    46     0     0     0
SMALL
USER_CHARGES
3-(morpholinoBLAHyl)phenol
@<TRIPOS>ATOM
      1 C1         -1.2199    1.7485    0.0174 C.ar      1 <0>        -0.1114
      2 C2         -1.2454    3.1288    0.0308 C.ar      1 <0>        -0.0774
      3 C3         -0.0514    3.8476    0.0228 C.ar      1 <0>        -0.0316
      4 C4          1.1652    3.1691    0.0075 C.ar      1 <0>        -0.0947
      5 C5          1.1814    1.7842    0.0004 C.ar      1 <0>         0.0969
      6 C6         -0.0126    1.0758    0.0080 C.ar      1 <0>        -0.1204
      7 O1          2.3662    1.1187   -0.0145 O.3       1 <0>        -0.4955
      8 C7         -0.0760    5.3307    0.0300 C.ar      1 <0>         0.3845
      9 N1          1.0710    5.9932    0.0217 N.ar      1 <0>        -0.4874
     10 C8          1.0827    7.3220    0.0274 C.ar      1 <0>         0.1715
     11 C9          2.1340    8.3518    0.0216 C.ar      1 <0>        -0.1770
     12 C10         3.5264    8.3236    0.0080 C.ar      1 <0>         0.0114
     13 C11         4.2037    9.5307    0.0066 C.ar      1 <0>        -0.1955
     14 C12         3.4805   10.7116    0.0188 C.ar      1 <0>         0.1704
     15 N2          2.1641   10.7119    0.0316 N.ar      1 <0>        -0.4762
     16 C13         1.4636    9.5855    0.0336 C.ar      1 <0>         0.3115
     17 O2          0.1349    9.3460    0.0455 O.3       1 <0>        -0.1672
     18 C14        -0.1299    8.0233    0.0423 C.ar      1 <0>        -0.0415
     19 C15        -1.3182    7.2817    0.0506 C.ar      1 <0>         0.4009
     20 N3         -1.2469    5.9562    0.0390 N.ar      1 <0>        -0.5158
     21 N4         -2.5483    7.9214    0.0658 N.pl3     1 <0>        -0.4671
     22 C16        -2.6536    8.8336    1.2139 C.3       1 <0>         0.0181
     23 C17        -3.9995    9.5613    1.1590 C.3       1 <0>         0.0659
     24 O3         -5.0560    8.5977    1.1343 O.3       1 <0>        -0.3796
     25 C18        -4.9848    7.6934    0.0286 C.3       1 <0>         0.0595
     26 C19        -3.6490    6.9468    0.0722 C.3       1 <0>         0.0258
     27 H1         -2.1460    1.1928    0.0184 H         1 <0>         0.1359
     28 H2         -2.1904    3.6515    0.0423 H         1 <0>         0.1394
     29 H3          2.0932    3.7215    0.0009 H         1 <0>         0.1435
     30 H4          0.0021   -0.0041    0.0020 H         1 <0>         0.1341
     31 H5          2.7007    0.9308   -0.9022 H         1 <0>         0.3927
     32 H6          4.0626    7.3862   -0.0010 H         1 <0>         0.1508
     33 H7          5.2835    9.5514   -0.0034 H         1 <0>         0.1556
     34 H8          4.0084   11.6537    0.0174 H         1 <0>         0.1815
     35 H9         -2.5862    8.2625    2.1399 H         1 <0>         0.0633
     36 H10        -1.8440    9.5623    1.1753 H         1 <0>         0.1014
     37 H11        -4.0451   10.1746    0.2590 H         1 <0>         0.0678
     38 H12        -4.1066   10.1965    2.0382 H         1 <0>         0.1107
     39 H13        -5.0591    8.2524   -0.9042 H         1 <0>         0.0641
     40 H14        -5.8042    6.9772    0.0900 H         1 <0>         0.1096
     41 H15        -3.5659    6.2983   -0.8000 H         1 <0>         0.1026
     42 H16        -3.5970    6.3450    0.9795 H         1 <0>         0.0691
@<TRIPOS>BOND
     1    1    6 ar
     2    1    2 ar
     3    1   27 1
     4    2    3 ar
     5    2   28 1
     6    3    4 ar
     7    3    8 1
     8    4    5 ar
     9    4   29 1
    10    5    6 ar
    11    5    7 1
    12    6   30 1
    13    7   31 1
    14    8   20 ar
    15    8    9 ar
    16    9   10 ar
    17   10   18 ar
    18   10   11 1
    19   11   16 ar
    20   11   12 ar
    21   12   13 ar
    22   12   32 1
    23   13   14 ar
    24   13   33 1
    25   14   15 ar
    26   14   34 1
    27   15   16 ar
    28   16   17 1
    29   17   18 1
    30   18   19 ar
    31   19   20 ar
    32   19   21 1
    33   21   26 1
    34   21   22 1
    35   22   23 1
    36   22   35 1
    37   22   36 1
    38   23   24 1
    39   23   37 1
    40   23   38 1
    41   24   25 1
    42   25   26 1
    43   25   39 1
    44   25   40 1
    45   26   41 1
    46   26   42 1
@<TRIPOS>MOLECULE
ZINC18825339
   59    62     0     0     0
SMALL
USER_CHARGES
5-[(Z)-(5-fluoro-2-oxo-indolin-3-ylidene)methyl]-N-[(2R)-2-hydroxy-3-morpholino-propyl]-2,4-dimethyl-1H-pyrrole-3-carboxamide
@<TRIPOS>ATOM
      1 C1          3.5607    0.7280    0.3667 C.3       1 <0>        -0.0956
      2 C2          2.0758    0.7165    0.1102 C.2       1 <0>        -0.0564
      3 C3          1.2591    1.8188   -0.0477 C.2       1 <0>        -0.0308
      4 N1         -0.0271    1.3691   -0.2640 N.pl3     1 <0>        -0.5068
      5 H1         -0.8436    2.0903   -0.4163 H         1 <0>         0.4494
      6 C4         -0.0354    0.0257   -0.2455 C.2       1 <0>         0.1277
      7 C5          1.2525   -0.4230   -0.0155 C.2       1 <0>        -0.2308
      8 C6          1.6847   -1.8291    0.0810 C.2       1 <0>         0.5980
      9 O1          2.0430   -2.4250   -0.9167 O.2       1 <0>        -0.5421
     10 N2          1.6827   -2.4542    1.2750 N.am      1 <0>        -0.7266
     11 C7          2.1121   -3.8516    1.3710 C.3       1 <0>         0.1299
     12 C8          2.0150   -4.3162    2.8255 C.3       1 <0>         0.1144
     13 H2          2.5334   -3.6206    3.5018 H         1 <0>         0.0568
     14 C9          2.5799   -5.7329    2.9471 C.3       1 <0>         0.0228
     15 N3          2.4867   -6.1790    4.3436 N.3       1 <0>        -0.5349
     16 C10         3.3671   -5.3829    5.2109 C.3       1 <0>         0.0083
     17 C11         3.1945   -5.8402    6.6618 C.3       1 <0>         0.0618
     18 O2          3.4694   -7.2408    6.7508 O.3       1 <0>        -0.3843
     19 C12         2.6296   -8.0463    5.9193 C.3       1 <0>         0.0614
     20 C13         2.7965   -7.6114    4.4609 C.3       1 <0>         0.0172
     21 O3          0.6463   -4.3123    3.2364 O.3       1 <0>        -0.5882
     22 C14        -1.2476   -0.8477   -0.4426 C.3       1 <0>        -0.0994
     23 C15         1.6686    3.1691    0.0027 C.2       1 <0>         0.0908
     24 C16         0.8216    4.1284    0.5209 C.2       1 <0>        -0.2125
     25 C17         1.0162    5.5955    0.5210 C.ar      1 <0>        -0.0684
     26 C18         2.0202    6.4240    0.0297 C.ar      1 <0>        -0.1043
     27 C19         1.9118    7.7937    0.1786 C.ar      1 <0>         0.0808
     28 C20         0.8031    8.3379    0.8097 C.ar      1 <0>        -0.1198
     29 C21        -0.2000    7.5233    1.2941 C.ar      1 <0>        -0.1061
     30 C22        -0.1080    6.1430    1.1533 C.ar      1 <0>         0.1250
     31 N4         -0.9593    5.1144    1.5420 N.am      1 <0>        -0.6604
     32 C23        -0.4649    3.9133    1.1971 C.2       1 <0>         0.5647
     33 O4         -0.9909    2.8351    1.4086 O.2       1 <0>        -0.5132
     34 F1          2.8866    8.6030   -0.2904 F         1 <0>        -0.1355
     35 H3          3.9167    1.7678    0.4131 H         1 <0>         0.0672
     36 H4          4.0776    0.1994   -0.4478 H         1 <0>         0.0746
     37 H5          3.7717    0.2252    1.3221 H         1 <0>         0.0710
     38 H6          1.3586   -1.9152    2.1775 H         1 <0>         0.4262
     39 H7          1.4633   -4.4786    0.7417 H         1 <0>         0.0750
     40 H8          3.1531   -3.9398    1.0266 H         1 <0>         0.0785
     41 H9          2.0023   -6.4143    2.3052 H         1 <0>         0.0900
     42 H10         3.6334   -5.7360    2.6307 H         1 <0>         0.0465
     43 H11         4.4130   -5.5254    4.9015 H         1 <0>         0.0459
     44 H12         3.1012   -4.3189    5.1257 H         1 <0>         0.0881
     45 H13         3.8925   -5.2859    7.3064 H         1 <0>         0.1001
     46 H14         2.1618   -5.6458    6.9871 H         1 <0>         0.0615
     47 H15         2.9156   -9.1033    6.0238 H         1 <0>         0.1009
     48 H16         1.5805   -7.9185    6.2243 H         1 <0>         0.0621
     49 H17         2.1104   -8.1883    3.8234 H         1 <0>         0.0898
     50 H18         3.8332   -7.7899    4.1393 H         1 <0>         0.0455
     51 H19         0.3780   -4.6185    4.2583 H         1 <0>         0.4136
     52 H20        -0.9523   -1.9052   -0.3757 H         1 <0>         0.0845
     53 H21        -1.6843   -0.6508   -1.4328 H         1 <0>         0.0777
     54 H22        -1.9909   -0.6245    0.3369 H         1 <0>         0.0809
     55 H23         2.6624    3.4568   -0.3709 H         1 <0>         0.1579
     56 H24         2.8828    5.9984   -0.4614 H         1 <0>         0.1409
     57 H25         0.7239    9.4091    0.9228 H         1 <0>         0.1443
     58 H26        -1.0583    7.9589    1.7840 H         1 <0>         0.1386
     59 H27        -1.9003    5.3463    2.0623 H         1 <0>         0.4455
@<TRIPOS>BOND
     1    1    2 1
     2    1   35 1
     3    1   36 1
     4    1   37 1
     5    2    7 1
     6    2    3 2
     7    3    4 1
     8    3   23 1
     9    4    5 1
    10    4    6 1
    11    6    7 2
    12    6   22 1
    13    7    8 1
    14    8    9 2
    15    8   10 am
    16   10   11 1
    17   10   38 1
    18   11   12 1
    19   11   39 1
    20   11   40 1
    21   12   13 1
    22   12   14 1
    23   12   21 1
    24   14   15 1
    25   14   41 1
    26   14   42 1
    27   15   20 1
    28   15   16 1
    29   16   17 1
    30   16   43 1
    31   16   44 1
    32   17   18 1
    33   17   45 1
    34   17   46 1
    35   18   19 1
    36   19   20 1
    37   19   47 1
    38   19   48 1
    39   20   49 1
    40   20   50 1
    41   21   51 1
    42   22   52 1
    43   22   53 1
    44   22   54 1
    45   23   24 2
    46   23   55 1
    47   24   32 1
    48   24   25 1
    49   25   30 ar
    50   25   26 ar
    51   26   27 ar
    52   26   56 1
    53   27   28 ar
    54   27   34 1
    55   28   29 ar
    56   28   57 1
    57   29   30 ar
    58   29   58 1
    59   30   31 1
    60   31   32 am
    61   31   59 1
    62   32   33 2
@<TRIPOS>MOLECULE
ZINC18825344
   59    62     0     0     0
SMALL
USER_CHARGES
5-[(Z)-(5-fluoro-2-oxo-indolin-3-ylidene)methyl]-N-[(2S)-2-hydroxy-3-morpholino-propyl]-2,4-dimethyl-1H-pyrrole-3-carboxamide
@<TRIPOS>ATOM
      1 C1          4.7056    0.6287    1.0117 C.3       1 <0>        -0.0968
      2 C2          3.2464    0.8378    0.6983 C.2       1 <0>        -0.0523
      3 C3          2.5980    2.0501    0.5678 C.2       1 <0>        -0.0327
      4 N1          1.2732    1.7961    0.2789 N.pl3     1 <0>        -0.5060
      5 H1          0.5720    2.6311    0.1339 H         1 <0>         0.4496
      6 C4          1.0783    0.4679    0.2258 C.2       1 <0>         0.1246
      7 C5          2.2801   -0.1676    0.4808 C.2       1 <0>        -0.2308
      8 C6          2.5088   -1.6234    0.5191 C.2       1 <0>         0.5976
      9 O1          2.8262   -2.2159   -0.4944 O.2       1 <0>        -0.5428
     10 N2          2.3662   -2.2977    1.6773 N.am      1 <0>        -0.7254
     11 C7          2.5935   -3.7444    1.7154 C.3       1 <0>         0.1298
     12 C8          2.3672   -4.2590    3.1384 C.3       1 <0>         0.1172
     13 H2          1.3599   -4.0040    3.4994 H         1 <0>         0.0560
     14 C9          2.6045   -5.7699    3.1781 C.3       1 <0>         0.0219
     15 N3          2.3382   -6.2720    4.5327 N.3       1 <0>        -0.5356
     16 C10         2.9762   -7.5793    4.7450 C.3       1 <0>         0.0168
     17 C11         2.7241   -8.0365    6.1842 C.3       1 <0>         0.0612
     18 O2          1.3152   -8.0759    6.4267 O.3       1 <0>        -0.3844
     19 C12         0.6618   -6.8191    6.2299 C.3       1 <0>         0.0617
     20 C13         0.8930   -6.3496    4.7911 C.3       1 <0>         0.0111
     21 O3          3.2765   -3.6103    4.0297 O.3       1 <0>        -0.5892
     22 C14        -0.2328   -0.2165   -0.0637 C.3       1 <0>        -0.0987
     23 C15         3.1876    3.3256    0.7056 C.2       1 <0>         0.0935
     24 C16         2.4515    4.3746    1.2192 C.2       1 <0>        -0.2157
     25 C17         2.8515    5.7966    1.3077 C.ar      1 <0>        -0.0669
     26 C18         3.9943    6.4912    0.9234 C.ar      1 <0>        -0.1048
     27 C19         4.0710    7.8545    1.1363 C.ar      1 <0>         0.0814
     28 C20         3.0098    8.5263    1.7247 C.ar      1 <0>        -0.1204
     29 C21         1.8704    7.8457    2.1029 C.ar      1 <0>        -0.1055
     30 C22         1.7753    6.4739    1.8965 C.ar      1 <0>         0.1237
     31 N4          0.7622    5.5637    2.1775 N.am      1 <0>        -0.6596
     32 C23         1.1039    4.3195    1.8021 C.2       1 <0>         0.5657
     33 O4          0.4171    3.3209    1.9242 O.2       1 <0>        -0.5153
     34 F1          5.1807    8.5334    0.7715 F         1 <0>        -0.1355
     35 H3          5.1994    1.6049    1.1269 H         1 <0>         0.0668
     36 H4          5.1808    0.0720    0.1906 H         1 <0>         0.0744
     37 H5          4.8016    0.0567    1.9464 H         1 <0>         0.0741
     38 H6          2.0791   -1.7617    2.5940 H         1 <0>         0.4273
     39 H7          1.8935   -4.2437    1.0293 H         1 <0>         0.0777
     40 H8          3.6268   -3.9615    1.4070 H         1 <0>         0.0736
     41 H9          1.9304   -6.2658    2.4641 H         1 <0>         0.0486
     42 H10         3.6486   -5.9844    2.9062 H         1 <0>         0.0884
     43 H11         2.5501   -8.3132    4.0451 H         1 <0>         0.0451
     44 H12         4.0587   -7.4917    4.5704 H         1 <0>         0.0900
     45 H13         3.1515   -9.0395    6.3305 H         1 <0>         0.1008
     46 H14         3.1986   -7.3305    6.8817 H         1 <0>         0.0620
     47 H15        -0.4170   -6.9344    6.4112 H         1 <0>         0.1000
     48 H16         1.0741   -6.0778    6.9303 H         1 <0>         0.0613
     49 H17         0.4415   -5.3564    4.6504 H         1 <0>         0.0873
     50 H18         0.4333   -7.0637    4.0920 H         1 <0>         0.0461
     51 H19         3.2627   -3.8533    5.1024 H         1 <0>         0.4141
     52 H20        -0.0899   -1.3070   -0.0417 H         1 <0>         0.0829
     53 H21        -0.5927    0.0862   -1.0581 H         1 <0>         0.0781
     54 H22        -0.9728    0.0718    0.6974 H         1 <0>         0.0803
     55 H23         4.2335    3.4835    0.4037 H         1 <0>         0.1584
     56 H24         4.8196    5.9664    0.4654 H         1 <0>         0.1411
     57 H25         3.0756    9.5918    1.8882 H         1 <0>         0.1443
     58 H26         1.0507    8.3797    2.5605 H         1 <0>         0.1385
     59 H27        -0.1701    5.9069    2.6497 H         1 <0>         0.4455
@<TRIPOS>BOND
     1    1    2 1
     2    1   35 1
     3    1   36 1
     4    1   37 1
     5    2    7 1
     6    2    3 2
     7    3    4 1
     8    3   23 1
     9    4    5 1
    10    4    6 1
    11    6    7 2
    12    6   22 1
    13    7    8 1
    14    8    9 2
    15    8   10 am
    16   10   11 1
    17   10   38 1
    18   11   12 1
    19   11   39 1
    20   11   40 1
    21   12   13 1
    22   12   14 1
    23   12   21 1
    24   14   15 1
    25   14   41 1
    26   14   42 1
    27   15   20 1
    28   15   16 1
    29   16   17 1
    30   16   43 1
    31   16   44 1
    32   17   18 1
    33   17   45 1
    34   17   46 1
    35   18   19 1
    36   19   20 1
    37   19   47 1
    38   19   48 1
    39   20   49 1
    40   20   50 1
    41   21   51 1
    42   22   52 1
    43   22   53 1
    44   22   54 1
    45   23   24 2
    46   23   55 1
    47   24   32 1
    48   24   25 1
    49   25   30 ar
    50   25   26 ar
    51   26   27 ar
    52   26   56 1
    53   27   28 ar
    54   27   34 1
    55   28   29 ar
    56   28   57 1
    57   29   30 ar
    58   29   58 1
    59   30   31 1
    60   31   32 am
    61   31   59 1
    62   32   33 2
@<TRIPOS>MOLECULE
ZINC03812168
   64    69     0     0     0
SMALL
USER_CHARGES
dimethylaminomethylBLAHdione
@<TRIPOS>ATOM
      1 C1         -3.6591   -3.4932   -0.5238 C.3       1 <0>        -0.0551
      2 C2         -2.4926   -2.9550   -2.5762 C.3       1 <0>        -0.0445
      3 C3         -2.6578   -1.3072   -0.8098 C.3       1 <0>        -0.0358
      4 C4         -2.4673   -1.1012    0.6860 C.3       1 <0>         0.0654
      5 H1         -3.1645   -1.7751    1.2185 H         1 <0>         0.0947
      6 C5         -2.7230    0.3270    1.1457 C.3       1 <0>        -0.1345
      7 C6         -2.5225    1.3892    0.0793 C.3       1 <0>         0.1021
      8 N1         -1.1339    1.8402    0.0096 N.pl3     1 <0>        -0.4782
      9 C7         -0.0126    1.0747    0.0080 C.2       1 <0>         0.0759
     10 C8          1.1009    1.8532    0.0015 C.2       1 <0>        -0.1124
     11 C9          0.6150    3.2557   -0.0375 C.ar      1 <0>        -0.0829
     12 C10        -0.7846    3.1777   -0.0610 C.ar      1 <0>         0.0902
     13 C11        -1.5354    4.3459   -0.1576 C.ar      1 <0>        -0.1369
     14 C12        -0.9089    5.5725   -0.1941 C.ar      1 <0>        -0.0870
     15 C13         0.4756    5.6497   -0.1263 C.ar      1 <0>        -0.1387
     16 C14         1.2312    4.5008   -0.0317 C.ar      1 <0>        -0.0542
     17 C15         2.5293    1.4989    0.0288 C.2       1 <0>        -0.0575
     18 C16         3.2121    0.4058    0.5546 C.2       1 <0>        -0.0318
     19 C17         2.7061   -0.7744    1.2787 C.2       1 <0>        -0.1258
     20 C18         1.4206   -1.0272    1.6582 C.2       1 <0>         0.1002
     21 N2          1.3169   -2.2819    2.1682 N.pl3     1 <0>        -0.4767
     22 C19         2.5720   -2.8515    2.2654 C.ar      1 <0>         0.0850
     23 C20         3.5031   -1.9214    1.7684 C.ar      1 <0>        -0.0774
     24 C21         4.8560   -2.2219    1.8708 C.ar      1 <0>        -0.0704
     25 C22         5.2705   -3.4529    2.3343 C.ar      1 <0>        -0.1401
     26 C23         4.3436   -4.3996    2.7389 C.ar      1 <0>        -0.0882
     27 C24         3.0009   -4.0952    2.7142 C.ar      1 <0>        -0.1389
     28 C25         0.0751   -2.9597    2.5494 C.3       1 <0>         0.1083
     29 C26        -0.9464   -2.8428    1.4151 C.3       1 <0>         0.0261
     30 O1         -1.1329   -1.4683    1.0718 O.3       1 <0>        -0.3787
     31 C27         4.6407    0.6399    0.2297 C.2       1 <0>         0.5576
     32 O2          5.5801   -0.0982    0.4313 O.2       1 <0>        -0.4501
     33 N3          4.7726    1.8285   -0.3761 N.am      1 <0>        -0.6884
     34 C28         3.5684    2.3701   -0.5773 C.2       1 <0>         0.5496
     35 O3          3.3676    3.4021   -1.1909 O.2       1 <0>        -0.4507
     36 H2         -4.6064   -3.1194   -0.9125 H         1 <0>         0.1320
     37 H3         -3.5558   -4.5494   -0.7723 H         1 <0>         0.1292
     38 H4         -3.6371   -3.3709    0.5591 H         1 <0>         0.1176
     39 H5         -1.6226   -2.4415   -2.9853 H         1 <0>         0.1242
     40 H6         -2.4140   -4.0227   -2.7812 H         1 <0>         0.1266
     41 H7         -3.3976   -2.5618   -3.0392 H         1 <0>         0.1281
     42 H8         -3.6420   -0.9427   -1.1043 H         1 <0>         0.1512
     43 H9         -1.8892   -0.7576   -1.3530 H         1 <0>         0.1401
     44 H10        -3.7581    0.3948    1.5248 H         1 <0>         0.1133
     45 H11        -2.0693    0.5478    1.9998 H         1 <0>         0.1111
     46 H12        -2.8851    1.1097   -0.8943 H         1 <0>         0.0847
     47 H13        -3.1227    2.2722    0.3811 H         1 <0>         0.1001
     48 H14         0.0021   -0.0041    0.0020 H         1 <0>         0.1790
     49 H15        -2.6150    4.2937   -0.2077 H         1 <0>         0.1188
     50 H16        -1.4958    6.4773   -0.2780 H         1 <0>         0.1308
     51 H17         0.9608    6.6157   -0.1385 H         1 <0>         0.1284
     52 H18         2.3072    4.5814    0.0562 H         1 <0>         0.1320
     53 H19         0.6104   -0.3170    1.5917 H         1 <0>         0.1871
     54 H20         5.6126   -1.4944    1.6337 H         1 <0>         0.1514
     55 H21         6.3257   -3.6782    2.3787 H         1 <0>         0.1280
     56 H22         4.6724   -5.3687    3.0799 H         1 <0>         0.1300
     57 H23         2.2783   -4.8297    3.0422 H         1 <0>         0.1175
     58 H24         0.2774   -4.0129    2.7458 H         1 <0>         0.1169
     59 H25        -0.3264   -2.4933    3.4522 H         1 <0>         0.0971
     60 H26        -0.5876   -3.3893    0.5423 H         1 <0>         0.0664
     61 H27        -1.8985   -3.2659    1.7424 H         1 <0>         0.0864
     62 H28         5.6204    2.2247   -0.6318 H         1 <0>         0.4332
     63 N4         -2.5268   -2.7479   -1.1131 N.4       1 <0>        -0.4048
     64 H29        -1.6507   -3.0961   -0.7064 H         1 <0>         0.4232
@<TRIPOS>BOND
     1    1   36 1
     2    1   37 1
     3    1   38 1
     4    1   63 1
     5    2   39 1
     6    2   40 1
     7    2   41 1
     8    2   63 1
     9    3    4 1
    10    3   42 1
    11    3   43 1
    12    3   63 1
    13    4    5 1
    14    4   30 1
    15    4    6 1
    16    6    7 1
    17    6   44 1
    18    6   45 1
    19    7    8 1
    20    7   46 1
    21    7   47 1
    22    8   12 1
    23    8    9 1
    24    9   10 2
    25    9   48 1
    26   10   11 1
    27   10   17 1
    28   11   16 ar
    29   11   12 ar
    30   12   13 ar
    31   13   14 ar
    32   13   49 1
    33   14   15 ar
    34   14   50 1
    35   15   16 ar
    36   15   51 1
    37   16   52 1
    38   17   34 1
    39   17   18 2
    40   18   19 1
    41   18   31 1
    42   19   23 1
    43   19   20 2
    44   20   21 1
    45   20   53 1
    46   21   22 1
    47   21   28 1
    48   22   27 ar
    49   22   23 ar
    50   23   24 ar
    51   24   25 ar
    52   24   54 1
    53   25   26 ar
    54   25   55 1
    55   26   27 ar
    56   26   56 1
    57   27   57 1
    58   28   29 1
    59   28   58 1
    60   28   59 1
    61   29   30 1
    62   29   60 1
    63   29   61 1
    64   31   32 2
    65   31   33 am
    66   33   34 am
    67   33   62 1
    68   34   35 2
    69   63   64 1
@<TRIPOS>MOLECULE
ZINC03872983
   56    63     0     0     0
SMALL
USER_CHARGES

@<TRIPOS>ATOM
      1 C1         -0.0187    1.5258    0.0104 C.3       1 <0>        -0.1407
      2 C2          0.0021   -0.0041    0.0020 C.3       1 <0>         0.3579
      3 C3          0.6608   -0.5271   -1.2917 C.3       1 <0>         0.1132
      4 C4          1.6076   -1.6561   -0.8349 C.3       1 <0>        -0.1898
      5 C5          1.4457   -1.7229    0.6980 C.3       1 <0>         0.3130
      6 H1          2.4193   -1.8096    1.1803 H         1 <0>         0.1532
      7 O1          0.8138   -0.4973    1.0676 O.3       1 <0>        -0.3330
      8 N1          0.6026   -2.8728    1.0385 N.pl3     1 <0>        -0.5167
      9 C6          1.0184   -4.1199    1.4309 C.ar      1 <0>         0.1519
     10 C7          2.2990   -4.6615    1.5345 C.ar      1 <0>        -0.1541
     11 C8          2.3988   -5.9678    1.9816 C.ar      1 <0>        -0.0734
     12 C9          1.2861   -6.7205    2.3154 C.ar      1 <0>        -0.1593
     13 C10         0.0034   -6.2102    2.2168 C.ar      1 <0>        -0.0353
     14 C11        -0.1195   -4.8946    1.7654 C.ar      1 <0>        -0.1066
     15 C12        -1.2883   -4.0550    1.5216 C.ar      1 <0>         0.0006
     16 C13        -0.7856   -2.8411    1.0562 C.ar      1 <0>         0.1042
     17 C14        -1.6574   -1.8321    0.6310 C.ar      1 <0>         0.1849
     18 N2         -1.3604   -0.5342    0.1091 N.pl3     1 <0>        -0.5069
     19 C15        -2.5268    0.1096   -0.2279 C.ar      1 <0>         0.1905
     20 C16        -2.7381    1.3431   -0.8422 C.ar      1 <0>        -0.1655
     21 C17        -4.0518    1.7366   -1.0343 C.ar      1 <0>        -0.0792
     22 C18        -5.1215    0.9522   -0.6409 C.ar      1 <0>        -0.1580
     23 C19        -4.9386   -0.2798   -0.0351 C.ar      1 <0>        -0.0532
     24 C20        -3.6224   -0.6962    0.1618 C.ar      1 <0>        -0.0932
     25 C21        -3.0439   -2.0199    0.7036 C.ar      1 <0>        -0.0470
     26 C22        -3.5450   -3.2021    1.2390 C.ar      1 <0>        -0.0435
     27 C23        -2.6872   -4.2198    1.6501 C.ar      1 <0>        -0.1376
     28 C24        -3.5012   -5.3310    2.1668 C.2       1 <0>         0.5687
     29 O2         -3.0532   -6.3689    2.6153 O.2       1 <0>        -0.5251
     30 N3         -4.8090   -5.0377    2.0742 N.am      1 <0>        -0.7236
     31 C25        -4.9478   -3.6986    1.4912 C.3       1 <0>         0.1448
     32 C26        -0.3867   -1.0704   -2.2290 C.2       1 <0>         0.4303
     33 O3         -1.4390   -1.4719   -1.7917 O.2       1 <0>        -0.4517
     34 O4         -0.1506   -1.1083   -3.5499 O.3       1 <0>        -0.3530
     35 C27        -1.1878   -1.6359   -4.3794 C.3       1 <0>         0.0364
     36 O5          1.4030    0.5158   -1.9268 O.3       1 <0>        -0.5193
     37 H2          0.9864    1.9017    0.2018 H         1 <0>         0.0986
     38 H3         -0.3647    1.8898   -0.9570 H         1 <0>         0.0944
     39 H4         -0.6925    1.8757    0.7925 H         1 <0>         0.0826
     40 H5          1.3135   -2.6029   -1.2879 H         1 <0>         0.1035
     41 H6          2.6379   -1.4147   -1.0962 H         1 <0>         0.1271
     42 H7          3.1760   -4.0863    1.2766 H         1 <0>         0.1299
     43 H8          3.3777   -6.4148    2.0726 H         1 <0>         0.1264
     44 H9          1.4227   -7.7342    2.6620 H         1 <0>         0.1255
     45 H10        -0.8619   -6.8015    2.4775 H         1 <0>         0.1518
     46 H11        -1.9125    1.9655   -1.1544 H         1 <0>         0.1356
     47 H12        -4.2479    2.6877   -1.5068 H         1 <0>         0.1246
     48 H13        -6.1261    1.3105   -0.8104 H         1 <0>         0.1240
     49 H14        -5.7761   -0.8897    0.2698 H         1 <0>         0.1343
     50 H15        -5.5393   -5.6148    2.3469 H         1 <0>         0.4267
     51 H16        -5.4595   -3.0369    2.1901 H         1 <0>         0.1001
     52 H17        -5.5003   -3.7534    0.5532 H         1 <0>         0.0997
     53 H18        -0.8686   -1.6093   -5.4213 H         1 <0>         0.1065
     54 H19        -1.3964   -2.6657   -4.0895 H         1 <0>         0.0617
     55 H20        -2.0894   -1.0351   -4.2601 H         1 <0>         0.0644
     56 H21         1.8396    0.2451   -2.7461 H         1 <0>         0.3986
@<TRIPOS>BOND
     1    1    2 1
     2    1   37 1
     3    1   38 1
     4    1   39 1
     5    2    7 1
     6    2   18 1
     7    2    3 1
     8    3    4 1
     9    3   32 1
    10    3   36 1
    11    4    5 1
    12    4   40 1
    13    4   41 1
    14    5    6 1
    15    5    7 1
    16    5    8 1
    17    8   16 1
    18    8    9 1
    19    9   14 ar
    20    9   10 ar
    21   10   11 ar
    22   10   42 1
    23   11   12 ar
    24   11   43 1
    25   12   13 ar
    26   12   44 1
    27   13   14 ar
    28   13   45 1
    29   14   15 1
    30   15   27 ar
    31   15   16 ar
    32   16   17 ar
    33   17   25 ar
    34   17   18 1
    35   18   19 1
    36   19   24 ar
    37   19   20 ar
    38   20   21 ar
    39   20   46 1
    40   21   22 ar
    41   21   47 1
    42   22   23 ar
    43   22   48 1
    44   23   24 ar
    45   23   49 1
    46   24   25 1
    47   25   26 ar
    48   26   31 1
    49   26   27 ar
    50   27   28 1
    51   28   29 2
    52   28   30 am
    53   30   31 1
    54   30   50 1
    55   31   51 1
    56   31   52 1
    57   32   33 2
    58   32   34 1
    59   34   35 1
    60   35   53 1
    61   35   54 1
    62   35   55 1
    63   36   56 1
