@<TRIPOS>MOLECULE
ZINC16346669
   45    47     0     0     0
SMALL
USER_CHARGES

@<TRIPOS>ATOM
      1 C1         -1.1223    0.0174   -2.1304 C.ar      1 <0>        -0.1221
      2 C2         -0.2995    0.8708   -2.8390 C.ar      1 <0>        -0.0298
      3 C3          0.1486    2.0428   -2.2577 C.ar      1 <0>        -0.0666
      4 C4         -0.2253    2.3642   -0.9658 C.ar      1 <0>        -0.0298
      5 C5         -1.0483    1.5153   -0.2520 C.ar      1 <0>        -0.1453
      6 C6         -1.4999    0.3375   -0.8329 C.ar      1 <0>         0.2169
      7 N1         -2.3339   -0.5248   -0.1124 N.am      1 <0>        -0.6783
      8 C7         -2.2513   -1.8566   -0.3020 C.2       1 <0>         0.7066
      9 O1         -1.3906   -2.3151   -1.0282 O.2       1 <0>        -0.5396
     10 N2         -3.1228   -2.6802    0.3133 N.am      1 <0>        -0.6793
     11 C8         -2.9695   -4.0670    0.2068 C.ar      1 <0>         0.2230
     12 C9         -1.6993   -4.6222    0.1234 C.ar      1 <0>        -0.1400
     13 C10        -1.5513   -5.9914    0.0183 C.ar      1 <0>         0.0072
     14 C11        -2.6662   -6.8092   -0.0038 C.ar      1 <0>        -0.6941
     15 C12        -3.9323   -6.2594    0.0791 C.ar      1 <0>         0.0071
     16 C13        -4.0869   -4.8914    0.1901 C.ar      1 <0>        -0.1642
     17 S1         -2.4731   -8.5553   -0.1385 S.o2      1 <0>         2.6909
     18 O2         -3.6317   -9.0421   -0.8019 O.2       1 <0>        -0.9426
     19 O3         -1.1604   -8.7818   -0.6332 O.2       1 <0>        -0.9429
     20 N3         -2.5129   -9.1723    1.3977 N.pl3     1 <0>        -1.0551
     21 C14        -1.5409   -8.7945    2.3278 C.ar      1 <0>         0.1626
     22 C15        -0.2003   -8.7746    1.9640 C.ar      1 <0>        -0.1366
     23 C16         0.7588   -8.4010    2.8847 C.ar      1 <0>        -0.0724
     24 C17         0.3860   -8.0469    4.1694 C.ar      1 <0>        -0.0405
     25 C18        -0.9494   -8.0661    4.5355 C.ar      1 <0>        -0.0147
     26 C19        -1.9138   -8.4329    3.6156 C.ar      1 <0>        -0.1111
     27 Cl1        -1.4132   -7.6223    6.1484 Cl        1 <0>        -0.0393
     28 Cl2         1.5945   -7.5783    5.3243 Cl        1 <0>        -0.0415
     29 N4          1.0307    2.9550   -3.0199 N.pl3     1 <0>         0.0351
     30 O4          1.3587    2.6750   -4.1493 O.2       1 <0>        -0.1575
     31 O5          1.4232    3.9800   -2.5129 O.3       1 <0>        -0.1590
     32 H1         -1.4752   -0.8958   -2.5864 H         1 <0>         0.1592
     33 H2         -0.0054    0.6224   -3.8481 H         1 <0>         0.1590
     34 H3          0.1269    3.2800   -0.5143 H         1 <0>         0.1600
     35 H4         -1.3397    1.7667    0.7571 H         1 <0>         0.1520
     36 H5         -2.9714   -0.1640    0.5234 H         1 <0>         0.4176
     37 H6         -3.8564   -2.3116    0.8300 H         1 <0>         0.4159
     38 H7         -0.8282   -3.9841    0.1403 H         1 <0>         0.1476
     39 H8         -0.5638   -6.4238   -0.0469 H         1 <0>         0.1473
     40 H9         -4.8011   -6.9007    0.0615 H         1 <0>         0.1465
     41 H10        -5.0758   -4.4630    0.2596 H         1 <0>         0.1400
     42 H11        -3.2110   -9.7960    1.6519 H         1 <0>         0.4319
     43 H12         0.0917   -9.0515    0.9618 H         1 <0>         0.1727
     44 H13         1.8010   -8.3855    2.6019 H         1 <0>         0.1535
     45 H14        -2.9557   -8.4433    3.8997 H         1 <0>         0.1499
@<TRIPOS>BOND
     1    1    6 ar
     2    1    2 ar
     3    1   32 1
     4    2    3 ar
     5    2   33 1
     6    3    4 ar
     7    3   29 1
     8    4    5 ar
     9    4   34 1
    10    5    6 ar
    11    5   35 1
    12    6    7 1
    13    7    8 am
    14    7   36 1
    15    8    9 2
    16    8   10 am
    17   10   11 1
    18   10   37 1
    19   11   16 ar
    20   11   12 ar
    21   12   13 ar
    22   12   38 1
    23   13   14 ar
    24   13   39 1
    25   14   15 ar
    26   14   17 1
    27   15   16 ar
    28   15   40 1
    29   16   41 1
    30   17   18 2
    31   17   19 2
    32   17   20 1
    33   20   21 1
    34   20   42 1
    35   21   26 ar
    36   21   22 ar
    37   22   23 ar
    38   22   43 1
    39   23   24 ar
    40   23   44 1
    41   24   25 ar
    42   24   28 1
    43   25   26 ar
    44   25   27 1
    45   26   45 1
    46   29   30 2
    47   29   31 1
@<TRIPOS>MOLECULE
ZINC16346669
   44    46     0     0     0
SMALL
USER_CHARGES

@<TRIPOS>ATOM
      1 C1         -0.1101   -0.4587   -2.7244 C.ar      1 <0>        -0.1232
      2 C2          0.8134    0.2529   -3.4648 C.ar      1 <0>        -0.0291
      3 C3          1.3590    1.4178   -2.9573 C.ar      1 <0>        -0.0722
      4 C4          0.9821    1.8740   -1.7075 C.ar      1 <0>        -0.0302
      5 C5          0.0588    1.1673   -0.9623 C.ar      1 <0>        -0.1492
      6 C6         -0.4910   -0.0029   -1.4691 C.ar      1 <0>         0.2253
      7 N1         -1.4267   -0.7214   -0.7165 N.am      1 <0>        -0.6816
      8 C7         -1.4747   -2.0653   -0.8061 C.2       1 <0>         0.7035
      9 O1         -0.6455   -2.6605   -1.4668 O.2       1 <0>        -0.5410
     10 N2         -2.4418   -2.7494   -0.1634 N.am      1 <0>        -0.6742
     11 C8         -2.4292   -4.1487   -0.1666 C.ar      1 <0>         0.1895
     12 C9         -1.2212   -4.8336   -0.1746 C.ar      1 <0>        -0.1429
     13 C10        -1.2121   -6.2147   -0.1778 C.ar      1 <0>        -0.0016
     14 C11        -2.4042   -6.9155   -0.1730 C.ar      1 <0>        -0.6261
     15 C12        -3.6087   -6.2364   -0.1650 C.ar      1 <0>        -0.0021
     16 C13        -3.6246   -4.8554   -0.1560 C.ar      1 <0>        -0.1663
     17 S1         -2.3882   -8.6774   -0.1777 S.o2      1 <0>         2.6064
     18 O2         -3.6329   -9.0933   -0.7227 O.2       1 <0>        -1.0251
     19 O3         -1.1423   -9.0708   -0.7364 O.2       1 <0>        -1.0239
     20 N3         -2.3750   -9.1711    1.4030 N.2       1 <0>        -1.0821
     21 C14        -2.3610  -10.5345    1.7090 C.ar      1 <0>         0.2963
     22 C15        -2.3524  -11.4767    0.6881 C.ar      1 <0>        -0.2514
     23 C16        -2.3385  -12.8236    0.9927 C.ar      1 <0>        -0.0403
     24 C17        -2.3337  -13.2358    2.3137 C.ar      1 <0>        -0.1322
     25 C18        -2.3428  -12.2993    3.3337 C.ar      1 <0>         0.0233
     26 C19        -2.3499  -10.9498    3.0340 C.ar      1 <0>        -0.1653
     27 Cl1        -2.3379  -12.8202    4.9897 Cl        1 <0>        -0.0828
     28 Cl2        -2.3169  -14.9298    2.6927 Cl        1 <0>        -0.0934
     29 N4          2.3489    2.1778   -3.7533 N.pl3     1 <0>         0.0381
     30 O4          2.6796    1.7799   -4.8460 O.2       1 <0>        -0.1615
     31 O5          2.8266    3.1964   -3.3109 O.3       1 <0>        -0.1644
     32 H1         -0.5388   -1.3662   -3.1230 H         1 <0>         0.1609
     33 H2          1.1101   -0.1010   -4.4411 H         1 <0>         0.1577
     34 H3          1.4105    2.7838   -1.3136 H         1 <0>         0.1578
     35 H4         -0.2349    1.5239    0.0139 H         1 <0>         0.1511
     36 H5         -2.0409   -0.2521   -0.1304 H         1 <0>         0.4159
     37 H6         -3.1467   -2.2718    0.3014 H         1 <0>         0.4113
     38 H7         -0.2898   -4.2869   -0.1787 H         1 <0>         0.1394
     39 H8         -0.2729   -6.7479   -0.1844 H         1 <0>         0.1423
     40 H9         -4.5381   -6.7866   -0.1613 H         1 <0>         0.1436
     41 H10        -4.5657   -4.3256   -0.1449 H         1 <0>         0.1312
     42 H11        -2.3568  -11.1560   -0.3432 H         1 <0>         0.1118
     43 H12        -2.3318  -13.5560    0.1991 H         1 <0>         0.1240
     44 H13        -2.3521  -10.2193    3.8295 H         1 <0>         0.1328
@<TRIPOS>BOND
     1    1    6 ar
     2    1    2 ar
     3    1   32 1
     4    2    3 ar
     5    2   33 1
     6    3    4 ar
     7    3   29 1
     8    4    5 ar
     9    4   34 1
    10    5    6 ar
    11    5   35 1
    12    6    7 1
    13    7    8 am
    14    7   36 1
    15    8    9 2
    16    8   10 am
    17   10   11 1
    18   10   37 1
    19   11   16 ar
    20   11   12 ar
    21   12   13 ar
    22   12   38 1
    23   13   14 ar
    24   13   39 1
    25   14   15 ar
    26   14   17 1
    27   15   16 ar
    28   15   40 1
    29   16   41 1
    30   17   18 2
    31   17   19 2
    32   17   20 1
    33   20   21 1
    34   21   26 ar
    35   21   22 ar
    36   22   23 ar
    37   22   42 1
    38   23   24 ar
    39   23   43 1
    40   24   25 ar
    41   24   28 1
    42   25   26 ar
    43   25   27 1
    44   26   44 1
    45   29   30 2
    46   29   31 1
