@<TRIPOS>MOLECULE
ZINC72107303
   60    63     0     0     0
SMALL
USER_CHARGES

@<TRIPOS>ATOM
      1 C1         -2.4430   -2.2792    3.4689 C.3       1 <0>         0.0503
      2 N1         -1.5936   -2.4588    2.2888 N.am      1 <0>        -0.5434
      3 C2         -1.9258   -1.8483    1.1215 C.2       1 <0>         0.3918
      4 N2         -1.2251   -1.9580    0.0338 N.2       1 <0>        -0.4859
      5 C3         -0.0930   -2.7040   -0.0101 C.ar      1 <0>         0.1666
      6 C4          0.6622   -2.8230   -1.1781 C.ar      1 <0>        -0.0942
      7 C5          1.8057   -3.5927   -1.1724 C.ar      1 <0>         0.0142
      8 C6          2.2144   -4.2510   -0.0183 C.ar      1 <0>        -0.1238
      9 C7          1.4906   -4.1488    1.1371 C.ar      1 <0>        -0.0115
     10 C8          0.3308   -3.3764    1.1579 C.ar      1 <0>        -0.1954
     11 C9         -0.4825   -3.2269    2.3733 C.2       1 <0>         0.5526
     12 O1         -0.1707   -3.7756    3.4143 O.2       1 <0>        -0.5018
     13 C10         3.4684   -5.0866   -0.0410 C.3       1 <0>         0.1634
     14 N3          3.7589   -5.5680    1.3118 N.pl3     1 <0>        -0.6152
     15 C11         3.3028   -6.8957    1.7305 C.3       1 <0>         0.2282
     16 C12         4.3894   -7.8704    1.5404 C.1       1 <0>        -0.2190
     17 C13         5.2560   -8.6477    1.3887 C.1       1 <0>        -0.1711
     18 C14         4.4677   -4.7648    2.1983 C.ar      1 <0>         0.2415
     19 C15         4.8955   -3.5010    1.8007 C.ar      1 <0>        -0.1979
     20 C16         5.5971   -2.7037    2.6758 C.ar      1 <0>        -0.0078
     21 C17         5.8801   -3.1640    3.9651 C.ar      1 <0>        -0.1944
     22 C18         5.4491   -4.4335    4.3613 C.ar      1 <0>        -0.0355
     23 C19         4.7430   -5.2237    3.4835 C.ar      1 <0>        -0.1959
     24 C20         6.6324   -2.3120    4.9055 C.2       1 <0>         0.5663
     25 O2          7.0071   -1.2082    4.5595 O.2       1 <0>        -0.5409
     26 N4          6.9045   -2.7571    6.1482 N.am      1 <0>        -0.7283
     27 C21         7.6517   -1.9110    7.0821 C.3       1 <0>         0.1672
     28 C22         7.8207   -2.6365    8.3921 C.ar      1 <0>        -0.1634
     29 C23         6.8706   -2.5073    9.3939 C.ar      1 <0>        -0.0561
     30 C24         7.0676   -3.1931   10.5825 C.ar      1 <0>        -0.1734
     31 C25         8.1966   -3.9772   10.7285 C.ar      1 <0>         0.1064
     32 N5          9.0796   -4.0763    9.7543 N.ar      1 <0>        -0.4844
     33 C26         8.9216   -3.4432    8.6081 C.ar      1 <0>         0.1187
     34 Cl1         2.7463   -3.7421   -2.6238 Cl        1 <0>        -0.0461
     35 C27        -3.1714   -1.0007    1.0871 C.3       1 <0>         0.1275
     36 O3         -3.3391   -0.4534   -0.2223 O.3       1 <0>        -0.5388
     37 H1         -2.0221   -2.8341    4.3073 H         1 <0>         0.1052
     38 H2         -2.4932   -1.2203    3.7226 H         1 <0>         0.0844
     39 H3         -3.4455   -2.6495    3.2547 H         1 <0>         0.0845
     40 H4          0.3525   -2.3160   -2.0800 H         1 <0>         0.1548
     41 H5          1.8159   -4.6638    2.0289 H         1 <0>         0.1487
     42 H6          3.3257   -5.9378   -0.7068 H         1 <0>         0.1017
     43 H7          4.3017   -4.4816   -0.3982 H         1 <0>         0.0994
     44 H8          3.0200   -6.8676    2.7828 H         1 <0>         0.1022
     45 H9          2.4417   -7.1900    1.1306 H         1 <0>         0.1039
     46 H10         6.0311   -9.3430    1.2531 H         1 <0>         0.2177
     47 H11         4.6768   -3.1462    0.8044 H         1 <0>         0.1290
     48 H12         5.9290   -1.7236    2.3667 H         1 <0>         0.1358
     49 H13         5.6666   -4.7919    5.3566 H         1 <0>         0.1228
     50 H14         4.4056   -6.2027    3.7905 H         1 <0>         0.1288
     51 H15         6.6057   -3.6377    6.4243 H         1 <0>         0.3997
     52 H16         8.6321   -1.6849    6.6628 H         1 <0>         0.0820
     53 H17         7.1049   -0.9829    7.2487 H         1 <0>         0.0800
     54 H18         5.9981   -1.8870    9.2517 H         1 <0>         0.1369
     55 H19         6.3483   -3.1154   11.3843 H         1 <0>         0.1386
     56 H20         8.3574   -4.5147   11.6513 H         1 <0>         0.1585
     57 H21         9.6637   -3.5528    7.8311 H         1 <0>         0.1575
     58 H22        -4.0360   -1.6153    1.3375 H         1 <0>         0.0838
     59 H23        -3.0797   -0.1906    1.8105 H         1 <0>         0.0839
     60 H24        -4.1231    0.1046   -0.3178 H         1 <0>         0.3902
@<TRIPOS>BOND
     1    1    2 1
     2    1   37 1
     3    1   38 1
     4    1   39 1
     5    2   11 am
     6    2    3 1
     7    3    4 2
     8    3   35 1
     9    4    5 1
    10    5   10 ar
    11    5    6 ar
    12    6    7 ar
    13    6   40 1
    14    7    8 ar
    15    7   34 1
    16    8    9 ar
    17    8   13 1
    18    9   10 ar
    19    9   41 1
    20   10   11 1
    21   11   12 2
    22   13   14 1
    23   13   42 1
    24   13   43 1
    25   14   15 1
    26   14   18 1
    27   15   16 1
    28   15   44 1
    29   15   45 1
    30   16   17 3
    31   17   46 1
    32   18   23 ar
    33   18   19 ar
    34   19   20 ar
    35   19   47 1
    36   20   21 ar
    37   20   48 1
    38   21   22 ar
    39   21   24 1
    40   22   23 ar
    41   22   49 1
    42   23   50 1
    43   24   25 2
    44   24   26 am
    45   26   27 1
    46   26   51 1
    47   27   28 1
    48   27   52 1
    49   27   53 1
    50   28   33 ar
    51   28   29 ar
    52   29   30 ar
    53   29   54 1
    54   30   31 ar
    55   30   55 1
    56   31   32 ar
    57   31   56 1
    58   32   33 ar
    59   33   57 1
    60   35   36 1
    61   35   58 1
    62   35   59 1
    63   36   60 1
@<TRIPOS>MOLECULE
ZINC45260367
   62    65     0     0     0
SMALL
USER_CHARGES

@<TRIPOS>ATOM
      1 C1         -0.5323   -0.7350   -1.3464 C.ar      1 <0>        -0.1166
      2 C2          0.3455    0.3168   -1.5377 C.ar      1 <0>        -0.1167
      3 C3          1.6806    0.1713   -1.2197 C.ar      1 <0>        -0.1048
      4 C4          2.1438   -1.0382   -0.7049 C.ar      1 <0>        -0.0478
      5 C5          1.2548   -2.0945   -0.5142 C.ar      1 <0>        -0.1098
      6 C6         -0.0781   -1.9377   -0.8358 C.ar      1 <0>        -0.1178
      7 C7          3.5774   -1.2008   -0.3617 C.ar      1 <0>        -0.0765
      8 C8          4.5617   -0.8435   -1.2802 C.ar      1 <0>        -0.0890
      9 C9          5.8945   -0.9966   -0.9563 C.ar      1 <0>        -0.1318
     10 C10         6.2584   -1.5048    0.2787 C.ar      1 <0>        -0.0989
     11 C11         5.2914   -1.8631    1.1978 C.ar      1 <0>        -0.1203
     12 C12         3.9478   -1.7085    0.8886 C.ar      1 <0>         0.1565
     13 N1          2.9682   -2.0645    1.8193 N.am      1 <0>        -0.6729
     14 C13         3.1661   -3.1181    2.6362 C.2       1 <0>         0.5110
     15 O1          4.2264   -3.7067    2.6208 O.2       1 <0>        -0.5169
     16 C14         2.0698   -3.5648    3.5688 C.3       1 <0>        -0.1397
     17 C15         2.5492   -4.7712    4.3786 C.3       1 <0>        -0.1058
     18 C16         1.4362   -5.2247    5.3254 C.3       1 <0>        -0.1195
     19 C17         1.9155   -6.4311    6.1352 C.3       1 <0>        -0.1199
     20 C18         0.8025   -6.8845    7.0820 C.3       1 <0>        -0.1158
     21 C19         1.2819   -8.0909    7.8918 C.3       1 <0>        -0.1347
     22 C20         0.1689   -8.5444    8.8386 C.3       1 <0>         0.1126
     23 N2          0.6278   -9.6996    9.6140 N.pl3     1 <0>        -0.2859
     24 C21         0.6307   -9.7950   10.9628 C.2       1 <0>        -0.0334
     25 C22         1.1359  -11.0294   11.2525 C.2       1 <0>         0.0179
     26 N3          1.4094  -11.6096   10.0703 N.2       1 <0>        -0.2560
     27 N4          1.0910  -10.7963    9.1263 N.2       1 <0>        -0.0738
     28 C23         1.3420  -11.6141   12.6014 C.ar      1 <0>        -0.0571
     29 C24         1.9726  -12.8523   12.7496 C.ar      1 <0>        -0.0494
     30 C25         2.1410  -13.3544   14.0285 C.ar      1 <0>        -0.1683
     31 C26         1.6840  -12.6213   15.1086 C.ar      1 <0>         0.1009
     32 N5          1.0924  -11.4552   14.9372 N.ar      1 <0>        -0.4808
     33 C27         0.9152  -10.9347   13.7398 C.ar      1 <0>         0.1138
     34 H1         -1.5771   -0.6153   -1.5924 H         1 <0>         0.1236
     35 H2         -0.0145    1.2534   -1.9370 H         1 <0>         0.1253
     36 H3          2.3651    0.9931   -1.3698 H         1 <0>         0.1250
     37 H4          1.6083   -3.0341   -0.1160 H         1 <0>         0.1205
     38 H5         -0.7679   -2.7556   -0.6885 H         1 <0>         0.1244
     39 H6          4.2821   -0.4472   -2.2452 H         1 <0>         0.1274
     40 H7          6.6566   -0.7191   -1.6694 H         1 <0>         0.1263
     41 H8          7.3034   -1.6220    0.5247 H         1 <0>         0.1271
     42 H9          5.5817   -2.2597    2.1595 H         1 <0>         0.1412
     43 H10         2.1459   -1.5534    1.8775 H         1 <0>         0.4115
     44 H11         1.8151   -2.7501    4.2467 H         1 <0>         0.0969
     45 H12         1.1901   -3.8430    2.9885 H         1 <0>         0.0973
     46 H13         2.8038   -5.5858    3.7007 H         1 <0>         0.0717
     47 H14         3.4289   -4.4929    4.9589 H         1 <0>         0.0713
     48 H15         1.1815   -4.4100    6.0034 H         1 <0>         0.0638
     49 H16         0.5564   -5.5029    4.7451 H         1 <0>         0.0643
     50 H17         2.1702   -7.2457    5.4573 H         1 <0>         0.0664
     51 H18         2.7952   -6.1528    6.7155 H         1 <0>         0.0647
     52 H19         0.5478   -6.0699    7.7600 H         1 <0>         0.0674
     53 H20        -0.0772   -7.1628    6.5017 H         1 <0>         0.0691
     54 H21         1.5365   -8.9056    7.2139 H         1 <0>         0.0839
     55 H22         2.1616   -7.8127    8.4721 H         1 <0>         0.0727
     56 H23        -0.0858   -7.7298    9.5166 H         1 <0>         0.1085
     57 H24        -0.7109   -8.8227    8.2583 H         1 <0>         0.1031
     58 H25         0.3005   -9.0464   11.6677 H         1 <0>         0.1951
     59 H26         2.3194  -13.4036   11.8882 H         1 <0>         0.1432
     60 H27         2.6236  -14.3084   14.1812 H         1 <0>         0.1407
     61 H28         1.8133  -13.0101   16.1079 H         1 <0>         0.1594
     62 H29         0.4308   -9.9747   13.6399 H         1 <0>         0.1558
@<TRIPOS>BOND
     1    1    6 ar
     2    1    2 ar
     3    1   34 1
     4    2    3 ar
     5    2   35 1
     6    3    4 ar
     7    3   36 1
     8    4    5 ar
     9    4    7 1
    10    5    6 ar
    11    5   37 1
    12    6   38 1
    13    7   12 ar
    14    7    8 ar
    15    8    9 ar
    16    8   39 1
    17    9   10 ar
    18    9   40 1
    19   10   11 ar
    20   10   41 1
    21   11   12 ar
    22   11   42 1
    23   12   13 1
    24   13   14 am
    25   13   43 1
    26   14   15 2
    27   14   16 1
    28   16   17 1
    29   16   44 1
    30   16   45 1
    31   17   18 1
    32   17   46 1
    33   17   47 1
    34   18   19 1
    35   18   48 1
    36   18   49 1
    37   19   20 1
    38   19   50 1
    39   19   51 1
    40   20   21 1
    41   20   52 1
    42   20   53 1
    43   21   22 1
    44   21   54 1
    45   21   55 1
    46   22   23 1
    47   22   56 1
    48   22   57 1
    49   23   27 1
    50   23   24 1
    51   24   25 2
    52   24   58 1
    53   25   26 1
    54   25   28 1
    55   26   27 2
    56   28   33 ar
    57   28   29 ar
    58   29   30 ar
    59   29   59 1
    60   30   31 ar
    61   30   60 1
    62   31   32 ar
    63   31   61 1
    64   32   33 ar
    65   33   62 1
