@<TRIPOS>MOLECULE
ZINC15115178
   44    47     0     0     0
SMALL
USER_CHARGES
(6aR,11aR)-2-(3-methylbut-2-enyl)-6a,11a-dihydro-6H-chromeno[4,3-b]benzofuran-3,9-diol
@<TRIPOS>ATOM
      1 C1         -7.1794    4.5429    3.8351 C.3       1 <0>        -0.1187
      2 C2         -5.9568    5.3807    3.5621 C.2       1 <0>        -0.1207
      3 C3         -4.7622    4.8643    3.7112 C.2       1 <0>        -0.1628
      4 C4         -4.6091    3.4004    4.0347 C.3       1 <0>        -0.0423
      5 C5         -3.6973    2.7551    3.0231 C.ar      1 <0>        -0.1295
      6 C6         -2.3743    2.5250    3.3378 C.ar      1 <0>        -0.0436
      7 C7         -1.5214    1.9320    2.4161 C.ar      1 <0>        -0.1718
      8 C8         -2.0154    1.5780    1.1712 C.ar      1 <0>         0.1551
      9 C9         -3.3456    1.8032    0.8512 C.ar      1 <0>        -0.1732
     10 C10        -4.1909    2.3936    1.7777 C.ar      1 <0>         0.1596
     11 O1         -5.4953    2.6164    1.4684 O.3       1 <0>        -0.4855
     12 O2         -1.1938    1.0155    0.2437 O.3       1 <0>        -0.3100
     13 C11         0.1891    1.3916    0.3113 C.3       1 <0>         0.0753
     14 C12         0.7300    1.0285    1.6940 C.3       1 <0>        -0.1068
     15 H1          0.7824   -0.0519    1.8287 H         1 <0>         0.1161
     16 C13        -0.0954    1.6966    2.8082 C.3       1 <0>         0.1373
     17 H2         -0.0511    1.0926    3.7145 H         1 <0>         0.1040
     18 O3          0.5815    2.9489    3.0216 O.3       1 <0>        -0.2874
     19 C14         1.8826    2.8027    2.6917 C.ar      1 <0>         0.1294
     20 C15         2.0786    1.6762    1.8836 C.ar      1 <0>        -0.1897
     21 C16         3.3195    1.3158    1.4048 C.ar      1 <0>        -0.0393
     22 C17         4.3926    2.1244    1.7609 C.ar      1 <0>        -0.1796
     23 C18         4.2164    3.2405    2.5610 C.ar      1 <0>         0.1472
     24 C19         2.9648    3.6074    3.0449 C.ar      1 <0>        -0.1653
     25 O4          5.2969    3.9994    2.8824 O.3       1 <0>        -0.4972
     26 C20        -6.1086    6.8126    3.1176 C.3       1 <0>        -0.1182
     27 H3         -7.1222    4.1347    4.8442 H         1 <0>         0.0634
     28 H4         -8.0719    5.1618    3.7435 H         1 <0>         0.0587
     29 H5         -7.2282    3.7260    3.1150 H         1 <0>         0.0702
     30 H6         -3.8870    5.4876    3.6023 H         1 <0>         0.1060
     31 H7         -5.5858    2.9174    4.0036 H         1 <0>         0.0813
     32 H8         -4.1813    3.2913    5.0312 H         1 <0>         0.0775
     33 H9         -1.9983    2.8083    4.3098 H         1 <0>         0.1331
     34 H10        -3.7229    1.5191   -0.1200 H         1 <0>         0.1418
     35 H11        -6.0839    1.8833    1.6944 H         1 <0>         0.3920
     36 H12         0.2702    2.4678    0.1589 H         1 <0>         0.0691
     37 H13         0.7632    0.8690   -0.4538 H         1 <0>         0.1205
     38 H14         3.4524    0.4441    0.7812 H         1 <0>         0.1410
     39 H15         5.3826    1.8773    1.4069 H         1 <0>         0.1340
     40 H16         2.8368    4.4800    3.6683 H         1 <0>         0.1437
     41 H17         5.7430    3.7245    3.6951 H         1 <0>         0.3958
     42 H18        -6.1549    6.8523    2.0293 H         1 <0>         0.0676
     43 H19        -7.0258    7.2275    3.5355 H         1 <0>         0.0611
     44 H20        -5.2550    7.3938    3.4664 H         1 <0>         0.0605
@<TRIPOS>BOND
     1    1    2 1
     2    1   27 1
     3    1   28 1
     4    1   29 1
     5    2    3 2
     6    2   26 1
     7    3    4 1
     8    3   30 1
     9    4    5 1
    10    4   31 1
    11    4   32 1
    12    5   10 ar
    13    5    6 ar
    14    6    7 ar
    15    6   33 1
    16    7   16 1
    17    7    8 ar
    18    8    9 ar
    19    8   12 1
    20    9   10 ar
    21    9   34 1
    22   10   11 1
    23   11   35 1
    24   12   13 1
    25   13   14 1
    26   13   36 1
    27   13   37 1
    28   14   15 1
    29   14   20 1
    30   14   16 1
    31   16   17 1
    32   16   18 1
    33   18   19 1
    34   19   24 ar
    35   19   20 ar
    36   20   21 ar
    37   21   22 ar
    38   21   38 1
    39   22   23 ar
    40   22   39 1
    41   23   24 ar
    42   23   25 1
    43   24   40 1
    44   25   41 1
    45   26   42 1
    46   26   43 1
    47   26   44 1
