@<TRIPOS>MOLECULE
ZINC05188392
   62    63     0     0     0
SMALL
USER_CHARGES

@<TRIPOS>ATOM
      1 C1         -0.0187    1.5254    0.0104 C.3       1 <0>        -0.1262
      2 C2          1.4131    2.0635   -0.0004 C.3       1 <0>        -0.1171
      3 C3          2.1280    1.6340    1.2851 C.3       1 <0>        -0.0644
      4 C4          2.0284    0.1299    1.4113 C.2       1 <0>         0.1491
      5 N1          3.0715   -0.5818    1.6179 N.2       1 <0>        -0.2838
      6 O1          2.9575   -1.9885    1.7331 O.3       1 <0>        -0.2384
      7 C5          4.1283   -2.6169    1.9492 C.2       1 <0>         0.6543
      8 O2          5.1570   -1.9749    2.0281 O.2       1 <0>        -0.5420
      9 N2          4.1595   -3.9582    2.0779 N.am      1 <0>        -0.7134
     10 C6          5.4336   -4.6420    2.3130 C.3       1 <0>         0.1371
     11 C7          5.1914   -6.1489    2.4203 C.3       1 <0>        -0.1326
     12 C8          6.5220   -6.8631    2.6658 C.3       1 <0>        -0.1156
     13 C9          6.2798   -8.3700    2.7731 C.3       1 <0>        -0.1156
     14 C10         7.6104   -9.0842    3.0186 C.3       1 <0>        -0.1326
     15 C11         7.3682  -10.5911    3.1259 C.3       1 <0>         0.1371
     16 N3          8.6423  -11.2750    3.3610 N.am      1 <0>        -0.7133
     17 C12         8.6735  -12.6162    3.4897 C.2       1 <0>         0.6542
     18 O3          7.6448  -13.2583    3.4107 O.2       1 <0>        -0.5420
     19 O4          9.8444  -13.2447    3.7058 O.3       1 <0>        -0.2384
     20 N4          9.7303  -14.6514    3.8210 N.2       1 <0>        -0.2837
     21 C13        10.7735  -15.3630    4.0276 C.2       1 <0>         0.1493
     22 C14        12.1370  -14.7212    4.1581 C.3       1 <0>        -0.1227
     23 C15        12.7950  -15.2326    5.4440 C.3       1 <0>        -0.1142
     24 C16        12.8170  -16.7619    5.4301 C.3       1 <0>        -0.1261
     25 C17        11.3856  -17.3012    5.4342 C.3       1 <0>        -0.1174
     26 C18        10.6738  -16.8672    4.1538 C.3       1 <0>        -0.0643
     27 C19         0.6639   -0.5113    1.2876 C.3       1 <0>        -0.1227
     28 C20         0.0021   -0.0041    0.0020 C.3       1 <0>        -0.1142
     29 H1         -0.5307    1.8758    0.9066 H         1 <0>         0.0691
     30 H2         -0.5477    1.8854   -0.8720 H         1 <0>         0.0708
     31 H3          1.9453    1.6634   -0.8634 H         1 <0>         0.0687
     32 H4          1.3920    3.1517   -0.0584 H         1 <0>         0.0807
     33 H5          3.1763    1.9287    1.2369 H         1 <0>         0.0908
     34 H6          1.6513    2.1059    2.1443 H         1 <0>         0.0992
     35 H7          3.3384   -4.4707    2.0149 H         1 <0>         0.4054
     36 H8          6.1121   -4.4412    1.4839 H         1 <0>         0.0723
     37 H9          5.8755   -4.2781    3.2406 H         1 <0>         0.0723
     38 H10         4.5128   -6.3497    3.2493 H         1 <0>         0.0733
     39 H11         4.7495   -6.5128    1.4927 H         1 <0>         0.0732
     40 H12         7.2006   -6.6623    1.8368 H         1 <0>         0.0691
     41 H13         6.9639   -6.4992    3.5934 H         1 <0>         0.0691
     42 H14         5.6013   -8.5708    3.6021 H         1 <0>         0.0691
     43 H15         5.8379   -8.7339    1.8455 H         1 <0>         0.0691
     44 H16         8.2890   -8.8834    2.1896 H         1 <0>         0.0733
     45 H17         8.0524   -8.7203    3.9462 H         1 <0>         0.0732
     46 H18         6.6897  -10.7919    3.9549 H         1 <0>         0.0723
     47 H19         6.9263  -10.9550    2.1983 H         1 <0>         0.0723
     48 H20         9.4634  -10.7625    3.4240 H         1 <0>         0.4054
     49 H21        12.7523  -14.9909    3.2997 H         1 <0>         0.0931
     50 H22        12.0284  -13.6378    4.2083 H         1 <0>         0.0832
     51 H23        13.8156  -14.8549    5.5051 H         1 <0>         0.0742
     52 H24        12.2263  -14.8850    6.3064 H         1 <0>         0.0654
     53 H25        13.3322  -17.1087    4.5344 H         1 <0>         0.0691
     54 H26        13.3434  -17.1247    6.3129 H         1 <0>         0.0709
     55 H27        11.4074  -18.3896    5.4885 H         1 <0>         0.0809
     56 H28        10.8503  -16.9047    6.2969 H         1 <0>         0.0684
     57 H29         9.6255  -17.1619    4.2012 H         1 <0>         0.0908
     58 H30        11.1512  -17.3391    3.2950 H         1 <0>         0.0990
     59 H31         0.7715   -1.5950    1.2410 H         1 <0>         0.0832
     60 H32         0.0517   -0.2380    2.1470 H         1 <0>         0.0931
     61 H33        -1.0191   -0.3812   -0.0544 H         1 <0>         0.0741
     62 H34         0.5677   -0.3552   -0.8610 H         1 <0>         0.0654
@<TRIPOS>BOND
     1    1   28 1
     2    1    2 1
     3    1   29 1
     4    1   30 1
     5    2    3 1
     6    2   31 1
     7    2   32 1
     8    3    4 1
     9    3   33 1
    10    3   34 1
    11    4    5 2
    12    4   27 1
    13    5    6 1
    14    6    7 1
    15    7    8 2
    16    7    9 am
    17    9   10 1
    18    9   35 1
    19   10   11 1
    20   10   36 1
    21   10   37 1
    22   11   12 1
    23   11   38 1
    24   11   39 1
    25   12   13 1
    26   12   40 1
    27   12   41 1
    28   13   14 1
    29   13   42 1
    30   13   43 1
    31   14   15 1
    32   14   44 1
    33   14   45 1
    34   15   16 1
    35   15   46 1
    36   15   47 1
    37   16   17 am
    38   16   48 1
    39   17   18 2
    40   17   19 1
    41   19   20 1
    42   20   21 2
    43   21   26 1
    44   21   22 1
    45   22   23 1
    46   22   49 1
    47   22   50 1
    48   23   24 1
    49   23   51 1
    50   23   52 1
    51   24   25 1
    52   24   53 1
    53   24   54 1
    54   25   26 1
    55   25   55 1
    56   25   56 1
    57   26   57 1
    58   26   58 1
    59   27   28 1
    60   27   59 1
    61   27   60 1
    62   28   61 1
    63   28   62 1
