@<TRIPOS>MOLECULE
ZINC03872335
   31    31     0     0     0
SMALL
USER_CHARGES

@<TRIPOS>ATOM
      1 C1         -0.0167    1.3781    0.0096 C.ar      1 <0>        -0.1272
      2 C2          1.1709    2.0855    0.0021 C.ar      1 <0>        -0.1174
      3 C3          2.3773    1.4107   -0.0130 C.ar      1 <0>        -0.1135
      4 C4          2.3960    0.0285   -0.0201 C.ar      1 <0>        -0.0768
      5 C5          1.2084   -0.6789   -0.0117 C.ar      1 <0>        -0.1195
      6 C6          0.0021   -0.0041    0.0020 C.ar      1 <0>        -0.1201
      7 C7          3.7112   -0.7071   -0.0376 C.3       1 <0>        -0.0562
      8 C8          4.1714   -0.9633    1.3989 C.3       1 <0>        -0.0855
      9 H1          4.2087   -0.0191    1.9423 H         1 <0>         0.1072
     10 C9          3.1871   -1.9101    2.0886 C.3       1 <0>        -0.0744
     11 S1          3.6492   -2.0971    3.8327 S.3       1 <0>        -0.2155
     12 C10         5.5425   -1.5884    1.3832 C.2       1 <0>         0.5003
     13 O1          6.0971   -1.8074    0.3271 O.2       1 <0>        -0.5619
     14 N1          6.1525   -1.9040    2.5428 N.am      1 <0>        -0.6810
     15 C11         7.4855   -2.5117    2.5276 C.3       1 <0>         0.0474
     16 C12         7.9387   -2.7640    3.9425 C.2       1 <0>         0.4891
     17 O2          7.2154   -2.4640    4.8770 O.co2     1 <0>        -0.6823
     18 O3          9.0288   -3.2681    4.1527 O.co2     1 <0>        -0.6937
     19 H2         -0.9591    1.9053    0.0259 H         1 <0>         0.1184
     20 H3          1.1563    3.1654    0.0076 H         1 <0>         0.1207
     21 H4          3.3051    1.9634   -0.0196 H         1 <0>         0.1243
     22 H5          1.2231   -1.7588   -0.0176 H         1 <0>         0.1209
     23 H6         -0.9258   -0.5567    0.0082 H         1 <0>         0.1191
     24 H7          3.5884   -1.6586   -0.5549 H         1 <0>         0.0825
     25 H8          4.4573   -0.1052   -0.5563 H         1 <0>         0.0906
     26 H9          2.1799   -1.4989    2.0217 H         1 <0>         0.0963
     27 H10         3.2154   -2.8834    1.5988 H         1 <0>         0.0871
     28 H11         2.7241   -2.9397    4.3259 H         1 <0>         0.0791
     29 H12         5.7090   -1.7288    3.3875 H         1 <0>         0.4138
     30 H13         7.4482   -3.4558    1.9842 H         1 <0>         0.0641
     31 H14         8.1867   -1.8372    2.0363 H         1 <0>         0.0640
@<TRIPOS>BOND
     1    1    6 ar
     2    1    2 ar
     3    1   19 1
     4    2    3 ar
     5    2   20 1
     6    3    4 ar
     7    3   21 1
     8    4    5 ar
     9    4    7 1
    10    5    6 ar
    11    5   22 1
    12    6   23 1
    13    7    8 1
    14    7   24 1
    15    7   25 1
    16    8    9 1
    17    8   10 1
    18    8   12 1
    19   10   11 1
    20   10   26 1
    21   10   27 1
    22   11   28 1
    23   12   13 2
    24   12   14 am
    25   14   15 1
    26   14   29 1
    27   15   16 1
    28   15   30 1
    29   15   31 1
    30   16   17 2
    31   16   18 1
@<TRIPOS>MOLECULE
ZINC03872336
   31    31     0     0     0
SMALL
USER_CHARGES

@<TRIPOS>ATOM
      1 C1          2.6440   -5.2211    3.5972 C.ar      1 <0>        -0.1212
      2 C2          1.8857   -4.0804    3.7836 C.ar      1 <0>        -0.1206
      3 C3          2.0088   -3.0179    2.9080 C.ar      1 <0>        -0.1134
      4 C4          2.8905   -3.0957    1.8463 C.ar      1 <0>        -0.0882
      5 C5          3.6495   -4.2360    1.6604 C.ar      1 <0>        -0.1056
      6 C6          3.5254   -5.2991    2.5352 C.ar      1 <0>        -0.1162
      7 C7          3.0240   -1.9378    0.8911 C.3       1 <0>        -0.0676
      8 C8          4.0524   -0.9440    1.4350 C.3       1 <0>        -0.0844
      9 H1          3.7721   -0.6478    2.4458 H         1 <0>         0.0995
     10 C9          4.0930    0.2921    0.5342 C.3       1 <0>        -0.0511
     11 S1          2.5044    1.1626    0.6300 S.3       1 <0>        -0.2429
     12 C10         5.4126   -1.5921    1.4603 C.2       1 <0>         0.5147
     13 O1          5.9284   -1.9600    0.4261 O.2       1 <0>        -0.5596
     14 N1          6.0560   -1.7629    2.6322 N.am      1 <0>        -0.6892
     15 C11         7.3784   -2.3929    2.6568 C.3       1 <0>         0.0513
     16 C12         7.8746   -2.4640    4.0780 C.2       1 <0>         0.4902
     17 O2          7.1873   -2.0288    4.9861 O.co2     1 <0>        -0.6900
     18 O3          8.9633   -2.9568    4.3197 O.co2     1 <0>        -0.6896
     19 H2          2.5511   -6.0495    4.2839 H         1 <0>         0.1182
     20 H3          1.1968   -4.0196    4.6131 H         1 <0>         0.1193
     21 H4          1.4157   -2.1270    3.0532 H         1 <0>         0.1221
     22 H5          4.3382   -4.2970    0.8306 H         1 <0>         0.1208
     23 H6          4.1182   -6.1902    2.3897 H         1 <0>         0.1190
     24 H7          3.3524   -2.3048   -0.0813 H         1 <0>         0.0829
     25 H8          2.0595   -1.4411    0.7852 H         1 <0>         0.0933
     26 H9          4.8918    0.9562    0.8645 H         1 <0>         0.0885
     27 H10         4.2778   -0.0145   -0.4953 H         1 <0>         0.0961
     28 H11         2.6604    2.2156   -0.1921 H         1 <0>         0.0859
     29 H12         5.6435   -1.4686    3.4593 H         1 <0>         0.4084
     30 H13         7.3088   -3.3999    2.2454 H         1 <0>         0.0650
     31 H14         8.0730   -1.8032    2.0585 H         1 <0>         0.0645
@<TRIPOS>BOND
     1    1    6 ar
     2    1    2 ar
     3    1   19 1
     4    2    3 ar
     5    2   20 1
     6    3    4 ar
     7    3   21 1
     8    4    5 ar
     9    4    7 1
    10    5    6 ar
    11    5   22 1
    12    6   23 1
    13    7    8 1
    14    7   24 1
    15    7   25 1
    16    8    9 1
    17    8   10 1
    18    8   12 1
    19   10   11 1
    20   10   26 1
    21   10   27 1
    22   11   28 1
    23   12   13 2
    24   12   14 am
    25   14   15 1
    26   14   29 1
    27   15   16 1
    28   15   30 1
    29   15   31 1
    30   16   17 2
    31   16   18 1
