@<TRIPOS>MOLECULE
ZINC12503116
   43    43     0     0     0
SMALL
USER_CHARGES
(4S,5R,6R)-5-acetamido-4-guanidino-6-[(1R,2R)-1,2,3-trihydroxypropyl]-5,6-dihydro-4H-pyran-2-carboxylic acid
@<TRIPOS>ATOM
      1 C1         -4.1414    4.7859    0.3505 C.3       1 <0>        -0.1767
      2 C2         -3.1218    3.9854   -0.4180 C.2       1 <0>         0.5136
      3 O1         -3.4332    3.4460   -1.4585 O.2       1 <0>        -0.5375
      4 N1         -1.8636    3.8690    0.0512 N.am      1 <0>        -0.7255
      5 C3         -0.8724    3.0908   -0.6959 C.3       1 <0>         0.1008
      6 H1         -1.0522    3.1969   -1.7658 H         1 <0>         0.1236
      7 C4         -0.9707    1.6140   -0.3056 C.3       1 <0>         0.1807
      8 H2         -1.0181    1.5313    0.7802 H         1 <0>         0.1073
      9 C5          0.2396    0.8778   -0.8125 C.2       1 <0>        -0.3310
     10 C6          1.3445    1.5057   -1.1868 C.2       1 <0>         0.1380
     11 O2          1.4773    2.8537   -1.1474 O.3       1 <0>        -0.2716
     12 C7          0.5391    3.5886   -0.3564 C.3       1 <0>         0.0502
     13 H3          0.7425    3.4242    0.7018 H         1 <0>         0.0950
     14 C8          0.6508    5.0803   -0.6772 C.3       1 <0>         0.0991
     15 H4         -0.0010    5.6451   -0.0109 H         1 <0>         0.1137
     16 C9          2.0981    5.5368   -0.4826 C.3       1 <0>         0.0757
     17 H5          2.7501    4.9719   -1.1490 H         1 <0>         0.1274
     18 C10         2.2099    7.0286   -0.8034 C.3       1 <0>         0.0494
     19 O3          3.5799    7.4292   -0.7348 O.3       1 <0>        -0.5602
     20 O4          2.4908    5.3104    0.8726 O.3       1 <0>        -0.5355
     21 O5          0.2583    5.3067   -2.0325 O.3       1 <0>        -0.5485
     22 C11         2.4811    0.7013   -1.6686 C.2       1 <0>         0.4903
     23 O6          2.3917   -0.5097   -1.7159 O.co2     1 <0>        -0.6012
     24 C12        -3.2091    0.5912   -0.2152 C.cat     1 <0>         0.7402
     25 N2         -3.2727    0.7955    1.1429 N.pl3     1 <0>        -0.8158
     26 N3         -4.2259   -0.0737   -0.8587 N.pl3     1 <0>        -0.8144
     27 H6         -4.1156    5.8232    0.0167 H         1 <0>         0.1013
     28 H7         -5.1347    4.3726    0.1756 H         1 <0>         0.0945
     29 H8         -3.9115    4.7409    1.4151 H         1 <0>         0.0817
     30 H9         -1.6145    4.3004    0.8835 H         1 <0>         0.4049
     31 H10         0.2048   -0.1997   -0.8778 H         1 <0>         0.1515
     32 H11         1.8270    7.2141   -1.8069 H         1 <0>         0.0634
     33 H12         1.6275    7.6003   -0.0809 H         1 <0>         0.0444
     34 H13         3.7260    8.3656   -0.9274 H         1 <0>         0.3802
     35 H14         1.9527    5.7831    1.5223 H         1 <0>         0.3653
     36 H15         0.7964    4.8340   -2.6821 H         1 <0>         0.3932
     37 H16        -2.6431    1.3950    1.5732 H         1 <0>         0.4314
     38 H17        -3.9472    0.3401    1.6708 H         1 <0>         0.4350
     39 H18        -4.1809   -0.2179   -1.8168 H         1 <0>         0.4368
     40 H19        -4.9882   -0.3987   -0.3545 H         1 <0>         0.4310
     41 O7          3.6199    1.3087   -2.0570 O.co2     1 <0>        -0.7082
     42 N4         -2.1868    1.0234   -0.9634 N.pl3     1 <0>        -0.6482
     43 H20        -2.2332    0.9516   -1.9866 H         1 <0>         0.4548
@<TRIPOS>BOND
     1    1    2 1
     2    1   27 1
     3    1   28 1
     4    1   29 1
     5    2    3 2
     6    2    4 am
     7    4    5 1
     8    4   30 1
     9    5    6 1
    10    5   12 1
    11    5    7 1
    12    7    8 1
    13    7    9 1
    14    7   42 1
    15    9   10 2
    16    9   31 1
    17   10   11 1
    18   10   22 1
    19   11   12 1
    20   12   13 1
    21   12   14 1
    22   14   15 1
    23   14   16 1
    24   14   21 1
    25   16   17 1
    26   16   18 1
    27   16   20 1
    28   18   19 1
    29   18   32 1
    30   18   33 1
    31   19   34 1
    32   20   35 1
    33   21   36 1
    34   22   23 2
    35   22   41 1
    36   24   25 1
    37   24   26 1
    38   24   42 2
    39   25   37 1
    40   25   38 1
    41   26   39 1
    42   26   40 1
    43   42   43 1
