@<TRIPOS>MOLECULE
ZINC00120283
   20    22     0     0     0
SMALL
USER_CHARGES

@<TRIPOS>ATOM
      1 C1         -0.0178    1.4620    0.0101 C.2       1 <0>         0.0055
      2 C2          1.1694    2.1197    0.0023 C.2       1 <0>        -0.2465
      3 C3          2.3765    1.3892   -0.0131 C.2       1 <0>         0.5109
      4 O1          3.4343    1.9926   -0.0197 O.2       1 <0>        -0.4567
      5 O2          2.3902    0.0476   -0.0203 O.3       1 <0>        -0.2700
      6 C4          1.2449   -0.6712   -0.0133 C.ar      1 <0>         0.1699
      7 C5          0.0021   -0.0041    0.0020 C.ar      1 <0>        -0.1713
      8 C6         -1.1862   -0.7341    0.0089 C.ar      1 <0>         0.0014
      9 C7         -1.1318   -2.1211    0.0005 C.ar      1 <0>        -0.1527
     10 C8         -2.1465   -3.1842    0.0033 C.2       1 <0>        -0.2016
     11 C9         -1.4741   -4.3417   -0.0098 C.2       1 <0>         0.0155
     12 O3         -0.1492   -4.1111   -0.0204 O.3       1 <0>        -0.1894
     13 C10         0.1102   -2.7875   -0.0149 C.ar      1 <0>         0.1074
     14 C11         1.2880   -2.0543   -0.0216 C.ar      1 <0>        -0.1289
     15 H1         -0.9519    2.0039    0.0263 H         1 <0>         0.1568
     16 H2          1.1901    3.1995    0.0075 H         1 <0>         0.1671
     17 H3         -2.1389   -0.2255    0.0210 H         1 <0>         0.1482
     18 H4         -3.2190   -3.0571    0.0141 H         1 <0>         0.1655
     19 H5         -1.9303   -5.3206   -0.0109 H         1 <0>         0.2149
     20 H6          2.2401   -2.5638   -0.0334 H         1 <0>         0.1541
@<TRIPOS>BOND
     1    1    7 1
     2    1    2 2
     3    1   15 1
     4    2    3 1
     5    2   16 1
     6    3    4 2
     7    3    5 1
     8    5    6 1
     9    6   14 ar
    10    6    7 ar
    11    7    8 ar
    12    8    9 ar
    13    8   17 1
    14    9   13 ar
    15    9   10 1
    16   10   11 2
    17   10   18 1
    18   11   12 1
    19   11   19 1
    20   12   13 1
    21   13   14 ar
    22   14   20 1
@<TRIPOS>MOLECULE
ZINC03861600
   39    42     0     0     0
SMALL
USER_CHARGES

@<TRIPOS>ATOM
      1 C1         -0.0166    1.3743    0.0096 C.ar      1 <0>        -0.0916
      2 C2          1.1707    2.0863    0.0021 C.ar      1 <0>        -0.1282
      3 C3          2.3846    1.4216   -0.0130 C.ar      1 <0>        -0.0292
      4 C4          2.4199    0.0432   -0.0207 C.ar      1 <0>        -0.6366
      5 C5          1.2249   -0.6832   -0.0132 C.ar      1 <0>         0.0046
      6 C6          0.0021   -0.0041    0.0020 C.ar      1 <0>        -0.1190
      7 C7          1.2538   -2.1570   -0.0218 C.2       1 <0>         0.0752
      8 C8          0.9501   -2.9286    1.1860 C.ar      1 <0>        -0.1308
      9 C9          0.6221   -2.2840    2.3865 C.ar      1 <0>        -0.0359
     10 C10         0.3423   -3.0215    3.4993 C.ar      1 <0>        -0.1556
     11 C11         0.3804   -4.4143    3.4509 C.ar      1 <0>         0.1399
     12 C12         0.7037   -5.0717    2.2711 C.ar      1 <0>         0.0572
     13 C13         0.9915   -4.3359    1.1261 C.ar      1 <0>         0.1476
     14 O1          1.3056   -4.9634   -0.0262 O.3       1 <0>        -0.1889
     15 C14         1.5916   -4.2903   -1.1614 C.2       1 <0>         0.1522
     16 C15         1.9063   -4.9895   -2.3129 C.2       1 <0>        -0.0142
     17 C16         2.2038   -4.2932   -3.4931 C.2       1 <0>         0.3452
     18 O2          2.5064   -4.9674   -4.6023 O.2       1 <0>        -0.5671
     19 C17         2.1839   -2.8851   -3.5125 C.2       1 <0>        -0.2047
     20 C18         1.8763   -2.1900   -2.3879 C.2       1 <0>         0.0258
     21 C19         1.5695   -2.8754   -1.1966 C.2       1 <0>        -0.0393
     22 O3          1.9276   -6.3513   -2.3001 O.3       1 <0>        -0.4656
     23 O4          0.7384   -6.4317    2.2351 O.3       1 <0>        -0.4655
     24 O5          0.0994   -5.1343    4.5672 O.3       1 <0>        -0.4775
     25 S1          3.9665   -0.8007   -0.0405 S.o2      1 <0>         2.6727
     26 O6          4.3511   -1.0105    1.3466 O.2       1 <0>        -1.0506
     27 O7          3.7530   -2.0576   -0.7412 O.2       1 <0>        -1.0424
     28 O8          4.9078    0.0588   -0.7413 O.3       1 <0>        -1.0532
     29 H1         -0.9599    1.9000    0.0259 H         1 <0>         0.1284
     30 H2          1.1496    3.1661    0.0077 H         1 <0>         0.1281
     31 H3          3.3066    1.9840   -0.0192 H         1 <0>         0.1392
     32 H4         -0.9249   -0.5582    0.0082 H         1 <0>         0.1289
     33 H5          0.5913   -1.2053    2.4305 H         1 <0>         0.1461
     34 H6          0.0901   -2.5234    4.4237 H         1 <0>         0.1466
     35 H7          2.4146   -2.3564   -4.4255 H         1 <0>         0.1444
     36 H8          1.8624   -1.1103   -2.4080 H         1 <0>         0.1364
     37 H9          2.1580   -6.7491   -3.1509 H         1 <0>         0.4006
     38 H10        -0.1056   -6.8405    1.9995 H         1 <0>         0.3850
     39 H11        -0.8361   -5.3584    4.6655 H         1 <0>         0.3919
@<TRIPOS>BOND
     1    1    6 ar
     2    1    2 ar
     3    1   29 1
     4    2    3 ar
     5    2   30 1
     6    3    4 ar
     7    3   31 1
     8    4    5 ar
     9    4   25 1
    10    5    6 ar
    11    5    7 1
    12    6   32 1
    13    7   21 2
    14    7    8 1
    15    8   13 ar
    16    8    9 ar
    17    9   10 ar
    18    9   33 1
    19   10   11 ar
    20   10   34 1
    21   11   12 ar
    22   11   24 1
    23   12   13 ar
    24   12   23 1
    25   13   14 1
    26   14   15 1
    27   15   21 1
    28   15   16 2
    29   16   17 1
    30   16   22 1
    31   17   18 2
    32   17   19 1
    33   19   20 2
    34   19   35 1
    35   20   21 1
    36   20   36 1
    37   22   37 1
    38   23   38 1
    39   24   39 1
    40   25   26 2
    41   25   27 2
    42   25   28 1
@<TRIPOS>MOLECULE
ZINC03925289
   59    61     0     0     0
SMALL
USER_CHARGES
3,8-dihydroxy-2,6-dimethoxy-1,7-bis(3-methylbut-2-enyl)xanthen-9-one
@<TRIPOS>ATOM
      1 C1          4.5673   12.5347    1.0614 C.3       1 <0>        -0.1257
      2 C2          3.5482   12.0646    0.0557 C.2       1 <0>        -0.1224
      3 C3          3.2571   10.7906   -0.0353 C.2       1 <0>        -0.1634
      4 C4          3.8055    9.8182    0.9771 C.3       1 <0>        -0.0440
      5 C5          2.6748    9.0140    1.5650 C.ar      1 <0>        -0.1674
      6 C6          2.0173    9.4682    2.7029 C.ar      1 <0>         0.2185
      7 C7          0.9748    8.7405    3.2553 C.ar      1 <0>        -0.2518
      8 C8          0.5746    7.5438    2.6772 C.ar      1 <0>         0.2171
      9 C9          1.2388    7.0836    1.5274 C.ar      1 <0>        -0.2927
     10 C10         2.2919    7.8248    0.9731 C.ar      1 <0>         0.2433
     11 O1          2.9314    7.3777   -0.1369 O.3       1 <0>        -0.4674
     12 C11         0.8094    5.8133    0.9192 C.2       1 <0>         0.4418
     13 O2          1.3496    5.3685   -0.0778 O.2       1 <0>        -0.4258
     14 C12        -0.3033    5.1019    1.5783 C.ar      1 <0>        -0.2241
     15 C13        -0.8876    5.6705    2.7214 C.ar      1 <0>         0.1785
     16 O3         -0.4396    6.8410    3.2218 O.3       1 <0>        -0.2264
     17 C14        -1.9386    5.0097    3.3449 C.ar      1 <0>        -0.1705
     18 C15        -2.4035    3.8092    2.8378 C.ar      1 <0>         0.1632
     19 C16        -1.8242    3.2489    1.6970 C.ar      1 <0>         0.0384
     20 C17        -0.7798    3.8930    1.0667 C.ar      1 <0>         0.0176
     21 C18        -0.1519    3.2919   -0.1644 C.3       1 <0>        -0.0670
     22 C19        -0.7729    3.9026   -1.3942 C.2       1 <0>        -0.1421
     23 C20        -1.2900    3.1317   -2.3185 C.2       1 <0>        -0.1282
     24 C21        -1.3352    1.6390   -2.1162 C.3       1 <0>        -0.1197
     25 C22        -1.8396    3.7375   -3.5842 C.3       1 <0>        -0.1161
     26 O4         -2.2896    2.0678    1.2079 O.3       1 <0>        -0.3124
     27 C23        -1.6814    0.8745    1.7062 C.3       1 <0>         0.0280
     28 O5         -3.4310    3.1705    3.4544 O.3       1 <0>        -0.4776
     29 O6          2.3996   10.6364    3.2783 O.3       1 <0>        -0.2938
     30 C24         1.6853   11.0493    4.4450 C.3       1 <0>         0.0190
     31 C25         2.8641   13.0600   -0.8455 C.3       1 <0>        -0.1182
     32 H1          5.0237   11.6720    1.5467 H         1 <0>         0.0710
     33 H2          5.3373   13.1158    0.5540 H         1 <0>         0.0643
     34 H3          4.0778   13.1564    1.8111 H         1 <0>         0.0645
     35 H4          2.6241   10.4371   -0.8357 H         1 <0>         0.1046
     36 H5          4.3121   10.3672    1.7709 H         1 <0>         0.0935
     37 H6          4.5136    9.1476    0.4902 H         1 <0>         0.0871
     38 H7          0.4729    9.1055    4.1391 H         1 <0>         0.1516
     39 H8          2.5414    7.6857   -0.9664 H         1 <0>         0.4021
     40 H9         -2.3936    5.4339    4.2277 H         1 <0>         0.1547
     41 H10        -0.3201    2.2149   -0.1690 H         1 <0>         0.0860
     42 H11         0.9195    3.4923   -0.1606 H         1 <0>         0.1118
     43 H12        -0.7916    4.9758   -1.5135 H         1 <0>         0.1045
     44 H13        -2.2245    1.3769   -1.5430 H         1 <0>         0.0723
     45 H14        -1.3682    1.1418   -3.0857 H         1 <0>         0.0590
     46 H15        -0.4457    1.3188   -1.5737 H         1 <0>         0.0631
     47 H16        -1.0466    4.2758   -4.1035 H         1 <0>         0.0648
     48 H17        -2.2241    2.9468   -4.2284 H         1 <0>         0.0615
     49 H18        -2.6455    4.4283   -3.3363 H         1 <0>         0.0628
     50 H19        -0.6158    0.8868    1.4772 H         1 <0>         0.0483
     51 H20        -1.8203    0.8195    2.7859 H         1 <0>         0.0445
     52 H21        -2.1442    0.0070    1.2357 H         1 <0>         0.0998
     53 H22        -3.1525    2.5484    4.1403 H         1 <0>         0.3971
     54 H23         2.0903   11.9958    4.8031 H         1 <0>         0.1077
     55 H24         0.6307   11.1749    4.1999 H         1 <0>         0.0625
     56 H25         1.7900   10.2921    5.2221 H         1 <0>         0.0626
     57 H26         1.9546   13.4203   -0.3647 H         1 <0>         0.0666
     58 H27         3.5330   13.8999   -1.0332 H         1 <0>         0.0615
     59 H28         2.6097   12.5798   -1.7904 H         1 <0>         0.0612
@<TRIPOS>BOND
     1    1    2 1
     2    1   32 1
     3    1   33 1
     4    1   34 1
     5    2    3 2
     6    2   31 1
     7    3    4 1
     8    3   35 1
     9    4    5 1
    10    4   36 1
    11    4   37 1
    12    5   10 ar
    13    5    6 ar
    14    6    7 ar
    15    6   29 1
    16    7    8 ar
    17    7   38 1
    18    8   16 1
    19    8    9 ar
    20    9   10 ar
    21    9   12 1
    22   10   11 1
    23   11   39 1
    24   12   13 2
    25   12   14 1
    26   14   20 ar
    27   14   15 ar
    28   15   16 1
    29   15   17 ar
    30   17   18 ar
    31   17   40 1
    32   18   19 ar
    33   18   28 1
    34   19   20 ar
    35   19   26 1
    36   20   21 1
    37   21   22 1
    38   21   41 1
    39   21   42 1
    40   22   23 2
    41   22   43 1
    42   23   24 1
    43   23   25 1
    44   24   44 1
    45   24   45 1
    46   24   46 1
    47   25   47 1
    48   25   48 1
    49   25   49 1
    50   26   27 1
    51   27   50 1
    52   27   51 1
    53   27   52 1
    54   28   53 1
    55   29   30 1
    56   30   54 1
    57   30   55 1
    58   30   56 1
    59   31   57 1
    60   31   58 1
    61   31   59 1
@<TRIPOS>MOLECULE
ZINC04280929
   27    28     0     0     0
SMALL
USER_CHARGES
2-chloro-N-(3,5-dichlorophenyl)-4-(trifluoromethyl)pyrimidine-5-carboxamide
@<TRIPOS>ATOM
      1 C1          0.3089    2.9834    0.5692 C.ar      1 <0>        -0.1263
      2 C2         -0.6415    3.8908    1.0188 C.ar      1 <0>         0.1656
      3 C3         -1.7387    3.4420    1.7424 C.ar      1 <0>        -0.1055
      4 C4         -1.8821    2.0941    2.0132 C.ar      1 <0>        -0.0053
      5 C5         -0.9336    1.1921    1.5640 C.ar      1 <0>        -0.1101
      6 C6          0.1636    1.6373    0.8477 C.ar      1 <0>        -0.0058
      7 Cl1         1.3548    0.5032    0.2922 Cl        1 <0>        -0.0451
      8 Cl2        -3.2529    1.5324    2.9181 Cl        1 <0>        -0.0433
      9 N1         -0.4938    5.2539    0.7438 N.am      1 <0>        -0.6563
     10 C7         -1.5799    6.0139    0.5003 C.2       1 <0>         0.5668
     11 O1         -2.6924    5.5349    0.6035 O.2       1 <0>        -0.4759
     12 C8         -1.4184    7.4291    0.1078 C.ar      1 <0>        -0.2008
     13 C9         -0.3465    8.1912    0.5880 C.ar      1 <0>         0.2135
     14 N2         -0.2399    9.4528    0.2113 N.ar      1 <0>        -0.4771
     15 C10        -1.1251    9.9951   -0.6045 C.ar      1 <0>         0.3886
     16 N3         -2.1500    9.3127   -1.0802 N.ar      1 <0>        -0.4632
     17 C11        -2.3295    8.0437   -0.7590 C.ar      1 <0>         0.1663
     18 C12        -3.4994    7.2719   -1.3127 C.3       1 <0>         0.5270
     19 F1         -4.4137    7.0110   -0.2865 F         1 <0>        -0.1434
     20 F2         -4.1235    8.0250   -2.3130 F         1 <0>        -0.1539
     21 F3         -3.0471    6.0632   -1.8528 F         1 <0>        -0.1577
     22 Cl3        -0.9347   11.6576   -1.0666 Cl        1 <0>         0.0685
     23 H1          1.1631    3.3298    0.0063 H         1 <0>         0.1467
     24 H2         -2.4794    4.1455    2.0929 H         1 <0>         0.1587
     25 H3         -1.0475    0.1394    1.7767 H         1 <0>         0.1491
     26 H4          0.3904    5.6525    0.7284 H         1 <0>         0.4180
     27 H5          0.3817    7.7544    1.2553 H         1 <0>         0.2010
@<TRIPOS>BOND
     1    1    6 ar
     2    1    2 ar
     3    1   23 1
     4    2    3 ar
     5    2    9 1
     6    3    4 ar
     7    3   24 1
     8    4    5 ar
     9    4    8 1
    10    5    6 ar
    11    5   25 1
    12    6    7 1
    13    9   10 am
    14    9   26 1
    15   10   11 2
    16   10   12 1
    17   12   17 ar
    18   12   13 ar
    19   13   14 ar
    20   13   27 1
    21   14   15 ar
    22   15   16 ar
    23   15   22 1
    24   16   17 ar
    25   17   18 1
    26   18   19 1
    27   18   20 1
    28   18   21 1
@<TRIPOS>MOLECULE
ZINC05664046
   68    72     0     0     0
SMALL
USER_CHARGES
dihydroxy-dimethoxy-(4-methoxyphenyl)-N,N-dimethyl-phenyl-BLAHcarboxamide
@<TRIPOS>ATOM
      1 C1         -7.5092   -1.5922   -2.5939 C.3       1 <0>         0.0823
      2 N1         -6.8493   -0.3424   -2.2083 N.am      1 <0>        -0.6259
      3 C2         -7.5472    0.9352   -2.3721 C.3       1 <0>         0.0734
      4 C3         -5.6002   -0.3680   -1.7028 C.2       1 <0>         0.5180
      5 O1         -4.9855   -1.4125   -1.6579 O.2       1 <0>        -0.5064
      6 C4         -4.9673    0.9013   -1.1935 C.3       1 <0>        -0.1352
      7 H1         -5.3959    1.7616   -1.7077 H         1 <0>         0.1109
      8 C5         -3.4516    0.8538   -1.4187 C.3       1 <0>        -0.0234
      9 H2         -3.1717   -0.0883   -1.8899 H         1 <0>         0.1155
     10 C6         -2.7771    0.9705   -0.0463 C.3       1 <0>         0.1855
     11 C7         -3.8660    1.5236    0.9152 C.3       1 <0>         0.1813
     12 C8         -5.1971    1.0292    0.3195 C.3       1 <0>         0.1022
     13 H3         -5.9883    1.7520    0.5187 H         1 <0>         0.0765
     14 O2         -5.5420   -0.2416    0.8746 O.3       1 <0>        -0.5285
     15 C9         -3.5640    0.7554    2.1886 C.ar      1 <0>        -0.2499
     16 C10        -2.7511   -0.3142    1.8371 C.ar      1 <0>         0.2143
     17 C11        -2.3150   -1.1851    2.8316 C.ar      1 <0>        -0.2092
     18 C12        -2.6933   -0.9872    4.1491 C.ar      1 <0>         0.2074
     19 C13        -3.5091    0.0810    4.4896 C.ar      1 <0>        -0.3275
     20 C14        -3.9447    0.9543    3.5026 C.ar      1 <0>         0.2262
     21 O3         -4.7448    2.0036    3.8275 O.3       1 <0>        -0.3164
     22 C15        -5.0983    2.1478    5.2046 C.3       1 <0>         0.0277
     23 O4         -2.2626   -1.8434    5.1125 O.3       1 <0>        -0.3088
     24 C16        -2.6892   -1.5816    6.4510 C.3       1 <0>         0.0270
     25 O5         -2.5128   -0.3322    0.4965 O.3       1 <0>        -0.2618
     26 O6         -3.8143    2.9418    1.0825 O.3       1 <0>        -0.5130
     27 C17        -1.5453    1.8378   -0.0852 C.ar      1 <0>        -0.1313
     28 C18        -0.6477    1.7152   -1.1297 C.ar      1 <0>        -0.0416
     29 C19         0.4791    2.5134   -1.1709 C.ar      1 <0>        -0.1589
     30 C20         0.7126    3.4345   -0.1602 C.ar      1 <0>         0.1403
     31 C21        -0.1867    3.5516    0.8897 C.ar      1 <0>        -0.2192
     32 C22        -1.3120    2.7511    0.9263 C.ar      1 <0>        -0.0359
     33 O7          1.8201    4.2212   -0.1987 O.3       1 <0>        -0.3179
     34 C23         1.9959    5.1470    0.8756 C.3       1 <0>         0.0276
     35 C24        -3.0369    2.0092   -2.2928 C.ar      1 <0>        -0.0769
     36 C25        -3.2658    3.3075   -1.8770 C.ar      1 <0>        -0.1014
     37 C26        -2.8814    4.3674   -2.6769 C.ar      1 <0>        -0.1173
     38 C27        -2.2763    4.1288   -3.8967 C.ar      1 <0>        -0.1155
     39 C28        -2.0521    2.8304   -4.3148 C.ar      1 <0>        -0.1182
     40 C29        -2.4326    1.7706   -3.5130 C.ar      1 <0>        -0.1127
     41 H4         -8.0585   -1.9912   -1.7411 H         1 <0>         0.0566
     42 H5         -8.2010   -1.3998   -3.4139 H         1 <0>         0.0710
     43 H6         -6.7590   -2.3155   -2.9135 H         1 <0>         0.0795
     44 H7         -7.2715    1.3798   -3.3284 H         1 <0>         0.0613
     45 H8         -8.6238    0.7670   -2.3466 H         1 <0>         0.0782
     46 H9         -7.2655    1.6094   -1.5633 H         1 <0>         0.0690
     47 H10        -6.3721   -0.6057    0.5378 H         1 <0>         0.3735
     48 H11        -1.6793   -2.0195    2.5744 H         1 <0>         0.1388
     49 H12        -3.8038    0.2330    5.5174 H         1 <0>         0.1385
     50 H13        -4.1943    2.2733    5.8005 H         1 <0>         0.0568
     51 H14        -5.7377    3.0221    5.3259 H         1 <0>         0.1027
     52 H15        -5.6324    1.2580    5.5377 H         1 <0>         0.0565
     53 H16        -2.3394   -0.5958    6.7576 H         1 <0>         0.0565
     54 H17        -3.7778   -1.6115    6.4978 H         1 <0>         0.0567
     55 H18        -2.2759   -2.3376    7.1185 H         1 <0>         0.1039
     56 H19        -4.4893    3.2923    1.6797 H         1 <0>         0.3852
     57 H20        -0.8299    0.9980   -1.9164 H         1 <0>         0.1275
     58 H21         1.1775    2.4206   -1.9895 H         1 <0>         0.1287
     59 H22        -0.0070    4.2677    1.6780 H         1 <0>         0.1256
     60 H23        -2.0125    2.8421    1.7432 H         1 <0>         0.1439
     61 H24         1.1499    5.8336    0.9057 H         1 <0>         0.0554
     62 H25         2.0559    4.6027    1.8181 H         1 <0>         0.0550
     63 H26         2.9161    5.7107    0.7224 H         1 <0>         0.0994
     64 H27        -3.7420    3.4938   -0.9257 H         1 <0>         0.1383
     65 H28        -3.0563    5.3818   -2.3501 H         1 <0>         0.1185
     66 H29        -1.9784    4.9568   -4.5228 H         1 <0>         0.1184
     67 H30        -1.5794    2.6440   -5.2678 H         1 <0>         0.1208
     68 H31        -2.2575    0.7562   -3.8397 H         1 <0>         0.1202
@<TRIPOS>BOND
     1    1    2 1
     2    1   41 1
     3    1   42 1
     4    1   43 1
     5    2    3 1
     6    2    4 am
     7    3   44 1
     8    3   45 1
     9    3   46 1
    10    4    5 2
    11    4    6 1
    12    6    7 1
    13    6   12 1
    14    6    8 1
    15    8    9 1
    16    8   10 1
    17    8   35 1
    18   10   25 1
    19   10   11 1
    20   10   27 1
    21   11   12 1
    22   11   15 1
    23   11   26 1
    24   12   13 1
    25   12   14 1
    26   14   47 1
    27   15   20 ar
    28   15   16 ar
    29   16   17 ar
    30   16   25 1
    31   17   18 ar
    32   17   48 1
    33   18   19 ar
    34   18   23 1
    35   19   20 ar
    36   19   49 1
    37   20   21 1
    38   21   22 1
    39   22   50 1
    40   22   51 1
    41   22   52 1
    42   23   24 1
    43   24   53 1
    44   24   54 1
    45   24   55 1
    46   26   56 1
    47   27   32 ar
    48   27   28 ar
    49   28   29 ar
    50   28   57 1
    51   29   30 ar
    52   29   58 1
    53   30   31 ar
    54   30   33 1
    55   31   32 ar
    56   31   59 1
    57   32   60 1
    58   33   34 1
    59   34   61 1
    60   34   62 1
    61   34   63 1
    62   35   40 ar
    63   35   36 ar
    64   36   37 ar
    65   36   64 1
    66   37   38 ar
    67   37   65 1
    68   38   39 ar
    69   38   66 1
    70   39   40 ar
    71   39   67 1
    72   40   68 1
@<TRIPOS>MOLECULE
ZINC00073700
   20    22     0     0     0
SMALL
USER_CHARGES
furo[2,3-h]chromen-2-one
@<TRIPOS>ATOM
      1 C1         -1.2043    1.7351    0.0172 C.ar      1 <0>        -0.0331
      2 C2         -0.0126    1.0758    0.0080 C.ar      1 <0>        -0.1218
      3 C3          1.1899    1.7844    0.0003 C.ar      1 <0>         0.1026
      4 C4          1.1726    3.1873    0.0075 C.ar      1 <0>        -0.1543
      5 C5          2.5806    3.5996   -0.0036 C.2       1 <0>        -0.1874
      6 C6          3.2997    2.4686   -0.0161 C.2       1 <0>         0.0075
      7 O1          2.4823    1.4015   -0.0137 O.3       1 <0>        -0.1815
      8 C7         -0.0464    3.8739    0.0233 C.ar      1 <0>         0.2024
      9 C8         -1.2416    3.1380    0.0316 C.ar      1 <0>        -0.1806
     10 C9         -2.5169    3.8576    0.0481 C.2       1 <0>         0.0091
     11 C10        -2.4887    5.2156    0.0552 C.2       1 <0>        -0.2513
     12 C11        -1.2503    5.8896    0.0466 C.2       1 <0>         0.5055
     13 O2         -1.2364    7.1076    0.0531 O.2       1 <0>        -0.4608
     14 O3         -0.0866    5.2218    0.0310 O.3       1 <0>        -0.2656
     15 H1         -2.1272    1.1742    0.0185 H         1 <0>         0.1540
     16 H2          0.0021   -0.0041    0.0020 H         1 <0>         0.1468
     17 H3          2.9609    4.6104   -0.0018 H         1 <0>         0.1665
     18 H4          4.3787    2.4215   -0.0264 H         1 <0>         0.2173
     19 H5         -3.4551    3.3227    0.0541 H         1 <0>         0.1579
     20 H6         -3.4113    5.7770    0.0670 H         1 <0>         0.1669
@<TRIPOS>BOND
     1    1    9 ar
     2    1    2 ar
     3    1   15 1
     4    2    3 ar
     5    2   16 1
     6    3    7 1
     7    3    4 ar
     8    4    5 1
     9    4    8 ar
    10    5    6 2
    11    5   17 1
    12    6    7 1
    13    6   18 1
    14    8   14 1
    15    8    9 ar
    16    9   10 1
    17   10   11 2
    18   10   19 1
    19   11   12 1
    20   11   20 1
    21   12   13 2
    22   12   14 1
