@<TRIPOS>MOLECULE
ZINC03795331
   64    68     0     0     0
SMALL
USER_CHARGES

@<TRIPOS>ATOM
      1 C1          0.3212    1.0082   -0.8934 C.3       1 <0>         0.0206
      2 O1          0.2942   -0.3984   -0.6425 O.3       1 <0>        -0.3288
      3 C2         -0.9225   -1.0035   -0.6520 C.ar      1 <0>         0.1432
      4 C3         -2.0666   -0.2598   -0.9033 C.ar      1 <0>        -0.1980
      5 C4         -3.3021   -0.8773   -0.9127 C.ar      1 <0>        -0.0558
      6 C5         -3.3994   -2.2356   -0.6721 C.ar      1 <0>        -0.1459
      7 C6         -2.2611   -2.9787   -0.4210 C.ar      1 <0>        -0.0752
      8 C7         -1.0223   -2.3668   -0.4160 C.ar      1 <0>        -0.1465
      9 C8          0.2188   -3.1786   -0.1484 C.3       1 <0>        -0.0647
     10 C9          0.5650   -3.0991    1.3161 C.cat     1 <0>         0.5654
     11 N1          1.1731   -2.0567    1.7812 N.pl3     1 <0>        -0.7214
     12 N2          0.2356   -4.1310    2.1549 N.pl3     1 <0>        -0.5676
     13 C10        -0.7544   -5.1868    1.8858 C.3       1 <0>         0.1073
     14 C11        -1.1082   -5.8225    3.2314 C.3       1 <0>        -0.1470
     15 H1         -0.7332   -6.8459    3.2230 H         1 <0>         0.1264
     16 C12        -0.3358   -5.0538    4.2959 C.3       1 <0>        -0.0733
     17 H2          0.0804   -5.7469    5.0270 H         1 <0>         0.1270
     18 C13         0.8130   -4.3875    3.4862 C.3       1 <0>         0.0776
     19 C14        -1.1199   -3.9713    5.0001 C.3       1 <0>         0.0330
     20 C15        -2.5621   -4.2962    5.3123 C.3       1 <0>        -0.0993
     21 C16        -3.3102   -4.7179    4.0460 C.3       1 <0>        -0.1927
     22 C17        -2.5764   -5.8757    3.4788 C.2       1 <0>         0.3672
     23 O2         -3.1989   -6.8803    3.2303 O.2       1 <0>        -0.4250
     24 C18        -1.0922   -2.7348    4.1392 C.ar      1 <0>        -0.0790
     25 C19        -0.4901   -1.5812    4.6057 C.ar      1 <0>        -0.1205
     26 C20        -0.4646   -0.4469    3.8160 C.ar      1 <0>        -0.1211
     27 C21        -1.0408   -0.4663    2.5596 C.ar      1 <0>        -0.1176
     28 C22        -1.6421   -1.6202    2.0927 C.ar      1 <0>        -0.1520
     29 C23        -1.6638   -2.7557    2.8807 C.ar      1 <0>        -0.1402
     30 C24        -0.4193   -3.6498    6.2950 C.ar      1 <0>        -0.0869
     31 C25        -1.0186   -2.8101    7.2151 C.ar      1 <0>        -0.1094
     32 C26        -0.3760   -2.5151    8.4029 C.ar      1 <0>        -0.1102
     33 C27         0.8658   -3.0602    8.6708 C.ar      1 <0>        -0.1117
     34 C28         1.4647   -3.9006    7.7510 C.ar      1 <0>        -0.1106
     35 C29         0.8202   -4.1990    6.5651 C.ar      1 <0>        -0.1298
     36 H3          1.3509    1.3640   -0.8572 H         1 <0>         0.1109
     37 H4         -0.0984    1.2096   -1.8790 H         1 <0>         0.0676
     38 H5         -0.2682    1.5238   -0.1352 H         1 <0>         0.0627
     39 H6         -1.9912    0.8011   -1.0909 H         1 <0>         0.1404
     40 H7         -4.1930   -0.2988   -1.1080 H         1 <0>         0.1381
     41 H8         -4.3664   -2.7165   -0.6799 H         1 <0>         0.1383
     42 H9         -2.3397   -4.0393   -0.2329 H         1 <0>         0.1347
     43 H10         0.0394   -4.2180   -0.4234 H         1 <0>         0.1307
     44 H11         1.0455   -2.7840   -0.7391 H         1 <0>         0.1409
     45 H12         1.4602   -2.0357    2.7075 H         1 <0>         0.4243
     46 H13        -1.6464   -4.7530    1.4339 H         1 <0>         0.1009
     47 H14        -0.3257   -5.9373    1.2217 H         1 <0>         0.1151
     48 H15         1.6648   -5.0628    3.4060 H         1 <0>         0.1123
     49 H16         1.1138   -3.4508    3.9555 H         1 <0>         0.1012
     50 H17        -2.5978   -5.1091    6.0376 H         1 <0>         0.0835
     51 H18        -3.0442   -3.4159    5.7374 H         1 <0>         0.0910
     52 H19        -4.3348   -4.9951    4.2939 H         1 <0>         0.1095
     53 H20        -3.3086   -3.9017    3.3236 H         1 <0>         0.1159
     54 H21        -0.0399   -1.5660    5.5873 H         1 <0>         0.1369
     55 H22         0.0051    0.4546    4.1808 H         1 <0>         0.1272
     56 H23        -1.0216    0.4201    1.9429 H         1 <0>         0.1194
     57 H24        -2.0926   -1.6352    1.1113 H         1 <0>         0.1483
     58 H25        -2.1303   -3.6583    2.5145 H         1 <0>         0.1347
     59 H26        -1.9888   -2.3842    7.0058 H         1 <0>         0.1246
     60 H27        -0.8439   -1.8585    9.1215 H         1 <0>         0.1274
     61 H28         1.3682   -2.8292    9.5985 H         1 <0>         0.1270
     62 H29         2.4351   -4.3262    7.9602 H         1 <0>         0.1267
     63 H30         1.2864   -4.8585    5.8482 H         1 <0>         0.1236
     64 H31         1.3420   -1.2959    1.2037 H         1 <0>         0.4487
@<TRIPOS>BOND
     1    1    2 1
     2    1   36 1
     3    1   37 1
     4    1   38 1
     5    2    3 1
     6    3    8 ar
     7    3    4 ar
     8    4    5 ar
     9    4   39 1
    10    5    6 ar
    11    5   40 1
    12    6    7 ar
    13    6   41 1
    14    7    8 ar
    15    7   42 1
    16    8    9 1
    17    9   10 1
    18    9   43 1
    19    9   44 1
    20   10   11 2
    21   10   12 1
    22   11   45 1
    23   11   64 1
    24   12   18 1
    25   12   13 1
    26   13   14 1
    27   13   46 1
    28   13   47 1
    29   14   15 1
    30   14   22 1
    31   14   16 1
    32   16   17 1
    33   16   18 1
    34   16   19 1
    35   18   48 1
    36   18   49 1
    37   19   20 1
    38   19   24 1
    39   19   30 1
    40   20   21 1
    41   20   50 1
    42   20   51 1
    43   21   22 1
    44   21   52 1
    45   21   53 1
    46   22   23 2
    47   24   29 ar
    48   24   25 ar
    49   25   26 ar
    50   25   54 1
    51   26   27 ar
    52   26   55 1
    53   27   28 ar
    54   27   56 1
    55   28   29 ar
    56   28   57 1
    57   29   58 1
    58   30   35 ar
    59   30   31 ar
    60   31   32 ar
    61   31   59 1
    62   32   33 ar
    63   32   60 1
    64   33   34 ar
    65   33   61 1
    66   34   35 ar
    67   34   62 1
    68   35   63 1
@<TRIPOS>MOLECULE
ZINC19361055
   64    68     0     0     0
SMALL
USER_CHARGES

@<TRIPOS>ATOM
      1 C1         -0.9467    0.1313   -0.9819 C.3       1 <0>         0.0256
      2 O1         -0.5538   -1.2133   -0.6997 O.3       1 <0>        -0.3241
      3 C2         -1.5433   -2.1413   -0.6194 C.ar      1 <0>         0.1300
      4 C3         -2.8650   -1.7665   -0.8140 C.ar      1 <0>        -0.2074
      5 C4         -3.8689   -2.7116   -0.7323 C.ar      1 <0>        -0.0718
      6 C5         -3.5576   -4.0306   -0.4568 C.ar      1 <0>        -0.1546
      7 C6         -2.2416   -4.4065   -0.2620 C.ar      1 <0>        -0.0537
      8 C7         -1.2333   -3.4659   -0.3483 C.ar      1 <0>        -0.1206
      9 C8          0.2017   -3.8775   -0.1421 C.3       1 <0>         0.1126
     10 N1          0.6164   -3.5390    1.2259 N.3       1 <0>        -0.6601
     11 C9          2.0132   -3.9268    1.4637 C.3       1 <0>         0.0857
     12 H1          2.2033   -4.9015    1.0143 H         1 <0>         0.1168
     13 C10         2.2770   -3.9961    2.9695 C.3       1 <0>         0.0405
     14 H2          2.5883   -5.0061    3.2360 H         1 <0>         0.1391
     15 N2          3.3320   -3.0491    3.3380 N.4       1 <0>        -0.3734
     16 C11         2.9249   -1.6769    3.0267 C.3       1 <0>        -0.0127
     17 C12         2.6825   -1.5305    1.5228 C.3       1 <0>        -0.1377
     18 C13         2.9497   -2.8825    0.8418 C.3       1 <0>        -0.1333
     19 C14         4.3979   -3.2940    1.1379 C.3       1 <0>        -0.1316
     20 C15         4.5852   -3.3826    2.6569 C.3       1 <0>        -0.0072
     21 C16         0.9948   -3.6438    3.7262 C.3       1 <0>         0.0059
     22 C17        -0.0483   -4.7000    3.4662 C.ar      1 <0>        -0.0395
     23 C18         0.2639   -6.0360    3.6346 C.ar      1 <0>        -0.1264
     24 C19        -0.6928   -7.0048    3.3961 C.ar      1 <0>        -0.1155
     25 C20        -1.9620   -6.6375    2.9896 C.ar      1 <0>        -0.1153
     26 C21        -2.2745   -5.3014    2.8220 C.ar      1 <0>        -0.1105
     27 C22        -1.3190   -4.3324    3.0647 C.ar      1 <0>        -0.0668
     28 C23         1.2853   -3.5778    5.2035 C.ar      1 <0>        -0.1274
     29 C24         0.9386   -2.4517    5.9264 C.ar      1 <0>        -0.1107
     30 C25         1.2051   -2.3911    7.2815 C.ar      1 <0>        -0.1084
     31 C26         1.8180   -3.4568    7.9137 C.ar      1 <0>        -0.1043
     32 C27         2.1640   -4.5832    7.1909 C.ar      1 <0>        -0.1090
     33 C28         1.8935   -4.6455    5.8367 C.ar      1 <0>        -0.1238
     34 H3         -0.0628    0.7681   -1.0185 H         1 <0>         0.1002
     35 H4         -1.4594    0.1659   -1.9432 H         1 <0>         0.0589
     36 H5         -1.6177    0.4856   -0.1994 H         1 <0>         0.0573
     37 H6         -3.1087   -0.7365   -1.0288 H         1 <0>         0.1280
     38 H7         -4.8978   -2.4203   -0.8833 H         1 <0>         0.1264
     39 H8         -4.3440   -4.7681   -0.3933 H         1 <0>         0.1257
     40 H9         -2.0011   -5.4371   -0.0466 H         1 <0>         0.1282
     41 H10         0.2969   -4.9525   -0.2952 H         1 <0>         0.0843
     42 H11         0.8366   -3.3514   -0.8549 H         1 <0>         0.0482
     43 H12         0.4766   -2.5576    1.4138 H         1 <0>         0.3456
     44 H13         2.0073   -1.4408    3.5655 H         1 <0>         0.1280
     45 H14         3.7110   -0.9876    3.3351 H         1 <0>         0.1305
     46 H15         1.6493   -1.2314    1.3467 H         1 <0>         0.0985
     47 H16         3.3573   -0.7775    1.1156 H         1 <0>         0.1028
     48 H17         2.7744   -2.8096   -0.2315 H         1 <0>         0.1182
     49 H18         4.6007   -4.2660    0.6883 H         1 <0>         0.1002
     50 H19         5.0803   -2.5499    0.7271 H         1 <0>         0.1006
     51 H20         5.3625   -2.6844    2.9674 H         1 <0>         0.1305
     52 H21         4.8838   -4.3961    2.9247 H         1 <0>         0.1291
     53 H22         0.6255   -2.6767    3.3850 H         1 <0>         0.1036
     54 H23         1.2555   -6.3230    3.9522 H         1 <0>         0.1094
     55 H24        -0.4487   -8.0487    3.5269 H         1 <0>         0.1193
     56 H25        -2.7093   -7.3945    2.8025 H         1 <0>         0.1201
     57 H26        -3.2660   -5.0145    2.5041 H         1 <0>         0.1195
     58 H27        -1.5642   -3.2883    2.9374 H         1 <0>         0.1121
     59 H28         0.4597   -1.6191    5.4325 H         1 <0>         0.1255
     60 H29         0.9349   -1.5111    7.8462 H         1 <0>         0.1306
     61 H30         2.0269   -3.4091    8.9722 H         1 <0>         0.1304
     62 H31         2.6431   -5.4156    7.6848 H         1 <0>         0.1302
     63 H32         2.1604   -5.5270    5.2727 H         1 <0>         0.1249
     64 H33         3.4834   -3.1113    4.3336 H         1 <0>         0.4228
@<TRIPOS>BOND
     1    1    2 1
     2    1   34 1
     3    1   35 1
     4    1   36 1
     5    2    3 1
     6    3    8 ar
     7    3    4 ar
     8    4    5 ar
     9    4   37 1
    10    5    6 ar
    11    5   38 1
    12    6    7 ar
    13    6   39 1
    14    7    8 ar
    15    7   40 1
    16    8    9 1
    17    9   10 1
    18    9   41 1
    19    9   42 1
    20   10   11 1
    21   10   43 1
    22   11   12 1
    23   11   18 1
    24   11   13 1
    25   13   14 1
    26   13   15 1
    27   13   21 1
    28   15   20 1
    29   15   16 1
    30   15   64 1
    31   16   17 1
    32   16   44 1
    33   16   45 1
    34   17   18 1
    35   17   46 1
    36   17   47 1
    37   18   19 1
    38   18   48 1
    39   19   20 1
    40   19   49 1
    41   19   50 1
    42   20   51 1
    43   20   52 1
    44   21   22 1
    45   21   28 1
    46   21   53 1
    47   22   27 ar
    48   22   23 ar
    49   23   24 ar
    50   23   54 1
    51   24   25 ar
    52   24   55 1
    53   25   26 ar
    54   25   56 1
    55   26   27 ar
    56   26   57 1
    57   27   58 1
    58   28   33 ar
    59   28   29 ar
    60   29   30 ar
    61   29   59 1
    62   30   31 ar
    63   30   60 1
    64   31   32 ar
    65   31   61 1
    66   32   33 ar
    67   32   62 1
    68   33   63 1
@<TRIPOS>MOLECULE
ZINC19361055
   64    68     0     0     0
SMALL
USER_CHARGES

@<TRIPOS>ATOM
      1 C1         -0.7272    0.0235   -0.8992 C.3       1 <0>         0.0215
      2 O1         -0.2937   -1.3085   -0.6164 O.3       1 <0>        -0.3280
      3 C2         -1.2509   -2.2722   -0.5708 C.ar      1 <0>         0.1490
      4 C3         -2.5794   -1.9436   -0.7995 C.ar      1 <0>        -0.2025
      5 C4         -3.5502   -2.9250   -0.7532 C.ar      1 <0>        -0.0445
      6 C5         -3.1991   -4.2341   -0.4791 C.ar      1 <0>        -0.1484
      7 C6         -1.8762   -4.5641   -0.2504 C.ar      1 <0>        -0.0511
      8 C7         -0.9006   -3.5870   -0.3013 C.ar      1 <0>        -0.1934
      9 C8          0.5421   -3.9485   -0.0581 C.3       1 <0>         0.0449
     10 N1          0.9062   -3.6071    1.3235 N.4       1 <0>        -0.5103
     11 C9          2.3125   -3.9594    1.5606 C.3       1 <0>        -0.0043
     12 H1          2.4507   -5.0304    1.4121 H         1 <0>         0.1418
     13 C10         2.7005   -3.5857    2.9941 C.3       1 <0>         0.0806
     14 H2          3.0227   -4.4795    3.5284 H         1 <0>         0.1238
     15 N2          3.7988   -2.6106    2.9632 N.3       1 <0>        -0.4995
     16 C11         3.3857   -1.3713    2.2903 C.3       1 <0>         0.0375
     17 C12         3.0163   -1.6818    0.8371 C.3       1 <0>        -0.1685
     18 C13         3.2078   -3.1855    0.5848 C.3       1 <0>        -0.1027
     19 C14         4.6707   -3.5463    0.8720 C.3       1 <0>        -0.1468
     20 C15         4.9938   -3.1814    2.3265 C.3       1 <0>         0.0451
     21 C16         1.4931   -2.9728    3.7064 C.3       1 <0>        -0.0158
     22 C17         0.4319   -4.0263    3.8932 C.ar      1 <0>        -0.1306
     23 C18         0.7836   -5.2939    4.3181 C.ar      1 <0>        -0.1081
     24 C19        -0.1899   -6.2603    4.4894 C.ar      1 <0>        -0.1029
     25 C20        -1.5150   -5.9590    4.2364 C.ar      1 <0>        -0.1015
     26 C21        -1.8668   -4.6912    3.8124 C.ar      1 <0>        -0.1020
     27 C22        -0.8939   -3.7236    3.6451 C.ar      1 <0>        -0.1374
     28 C23         1.9186   -2.4443    5.0520 C.ar      1 <0>        -0.0590
     29 C24         1.6492   -1.1329    5.3962 C.ar      1 <0>        -0.1127
     30 C25         2.0396   -0.6481    6.6305 C.ar      1 <0>        -0.1123
     31 C26         2.6989   -1.4749    7.5208 C.ar      1 <0>        -0.1112
     32 C27         2.9675   -2.7866    7.1769 C.ar      1 <0>        -0.1118
     33 C28         2.5733   -3.2726    5.9443 C.ar      1 <0>        -0.0986
     34 H3          0.1337    0.6920   -0.9062 H         1 <0>         0.1104
     35 H4         -1.2139    0.0478   -1.8742 H         1 <0>         0.0668
     36 H5         -1.4320    0.3466   -0.1331 H         1 <0>         0.0646
     37 H6         -2.8541   -0.9212   -1.0133 H         1 <0>         0.1407
     38 H7         -4.5844   -2.6696   -0.9308 H         1 <0>         0.1385
     39 H8         -3.9597   -5.0001   -0.4433 H         1 <0>         0.1382
     40 H9         -1.6046   -5.5872   -0.0362 H         1 <0>         0.1378
     41 H10         0.6804   -5.0180   -0.2166 H         1 <0>         0.1348
     42 H11         1.1770   -3.3937   -0.7488 H         1 <0>         0.1378
     43 H12         0.7781   -2.6171    1.4702 H         1 <0>         0.4191
     44 H13         2.5212   -0.9498    2.8033 H         1 <0>         0.0837
     45 H14         4.2067   -0.6547    2.3117 H         1 <0>         0.0963
     46 H15         1.9753   -1.4120    0.6593 H         1 <0>         0.0678
     47 H16         3.6621   -1.1145    0.1669 H         1 <0>         0.0954
     48 H17         2.9434   -3.4330   -0.4433 H         1 <0>         0.1046
     49 H18         4.8191   -4.6158    0.7230 H         1 <0>         0.0800
     50 H19         5.3231   -2.9881    0.2005 H         1 <0>         0.0894
     51 H20         5.8017   -2.4500    2.3478 H         1 <0>         0.0941
     52 H21         5.3001   -4.0779    2.8656 H         1 <0>         0.0884
     53 H22         1.0926   -2.1563    3.1055 H         1 <0>         0.0798
     54 H23         1.8189   -5.5293    4.5158 H         1 <0>         0.1326
     55 H24         0.0850   -7.2508    4.8207 H         1 <0>         0.1358
     56 H25        -2.2755   -6.7143    4.3696 H         1 <0>         0.1350
     57 H26        -2.9021   -4.4560    3.6143 H         1 <0>         0.1344
     58 H27        -1.1692   -2.7320    3.3174 H         1 <0>         0.1268
     59 H28         1.1341   -0.4869    4.7007 H         1 <0>         0.1148
     60 H29         1.8298    0.3767    6.8992 H         1 <0>         0.1242
     61 H30         3.0045   -1.0960    8.4849 H         1 <0>         0.1246
     62 H31         3.4829   -3.4324    7.8724 H         1 <0>         0.1241
     63 H32         2.7799   -4.2984    5.6771 H         1 <0>         0.1156
     64 H33         0.3184   -4.1207    1.9629 H         1 <0>         0.4234
@<TRIPOS>BOND
     1    1    2 1
     2    1   34 1
     3    1   35 1
     4    1   36 1
     5    2    3 1
     6    3    8 ar
     7    3    4 ar
     8    4    5 ar
     9    4   37 1
    10    5    6 ar
    11    5   38 1
    12    6    7 ar
    13    6   39 1
    14    7    8 ar
    15    7   40 1
    16    8    9 1
    17    9   10 1
    18    9   41 1
    19    9   42 1
    20   10   11 1
    21   10   43 1
    22   10   64 1
    23   11   12 1
    24   11   18 1
    25   11   13 1
    26   13   14 1
    27   13   15 1
    28   13   21 1
    29   15   20 1
    30   15   16 1
    31   16   17 1
    32   16   44 1
    33   16   45 1
    34   17   18 1
    35   17   46 1
    36   17   47 1
    37   18   19 1
    38   18   48 1
    39   19   20 1
    40   19   49 1
    41   19   50 1
    42   20   51 1
    43   20   52 1
    44   21   22 1
    45   21   28 1
    46   21   53 1
    47   22   27 ar
    48   22   23 ar
    49   23   24 ar
    50   23   54 1
    51   24   25 ar
    52   24   55 1
    53   25   26 ar
    54   25   56 1
    55   26   27 ar
    56   26   57 1
    57   27   58 1
    58   28   33 ar
    59   28   29 ar
    60   29   30 ar
    61   29   59 1
    62   30   31 ar
    63   30   60 1
    64   31   32 ar
    65   31   61 1
    66   32   33 ar
    67   32   62 1
    68   33   63 1
